MODEL 1
REMARK VINA RESULT:      -7.5      0.000      0.000
REMARK  7 active torsions:
REMARK  status: ('A' for Active; 'I' for Inactive)
REMARK    1  A    between atoms: C_7  and  C_8 
REMARK    2  A    between atoms: C_8  and  N_9 
REMARK       I    between atoms: N_9  and  C_10 
REMARK       I    between atoms: C_10  and  N_11 
REMARK    3  A    between atoms: N_11  and  C_12 
REMARK    4  A    between atoms: C_12  and  C_13 
REMARK    5  A    between atoms: C_13  and  C_14 
REMARK    6  A    between atoms: C_14  and  O_15 
REMARK    7  A    between atoms: C_14  and  C_16 
ROOT
HETATM    1  N   UNL     1     -41.939  56.445 -50.168  1.00  0.00    -0.337 N 
HETATM    2  C   UNL     1     -41.385  57.648 -50.527  1.00  0.00     0.316 C 
HETATM    3  N   UNL     1     -42.331  58.522 -50.974  1.00  0.00    -0.339 N 
HETATM    4  O   UNL     1     -40.179  57.865 -50.484  1.00  0.00    -0.247 OA
HETATM    5  H   UNL     1     -42.883  56.531 -49.814  1.00  0.00     0.164 HD
HETATM    6  H   UNL     1     -43.228  58.143 -51.242  1.00  0.00     0.164 HD
ENDROOT
BRANCH   1   7
HETATM    7  C   UNL     1     -41.124  55.409 -49.559  1.00  0.00     0.183 C 
BRANCH   7   8
HETATM    8  C   UNL     1     -40.768  54.370 -50.559  1.00  0.00     0.044 A 
HETATM    9  N   UNL     1     -40.864  54.583 -51.928  1.00  0.00    -0.343 N 
HETATM   10  C   UNL     1     -40.534  53.495 -52.606  1.00  0.00     0.112 A 
HETATM   11  H   UNL     1     -41.216  55.463 -52.326  1.00  0.00     0.167 HD
HETATM   12  N   UNL     1     -40.184  52.548 -51.712  1.00  0.00    -0.311 N 
HETATM   13  C   UNL     1     -40.516  53.236 -54.064  1.00  0.00     0.049 A 
HETATM   14  C   UNL     1     -39.783  51.269 -52.094  1.00  0.00     0.014 A 
HETATM   15  C   UNL     1     -40.317  53.074 -50.433  1.00  0.00     0.125 A 
HETATM   16  C   UNL     1     -39.407  50.238 -51.074  1.00  0.00     0.068 C 
HETATM   17  C   UNL     1     -39.763  51.021 -53.424  1.00  0.00     0.025 A 
HETATM   18  C   UNL     1     -40.130  52.005 -54.437  1.00  0.00     0.006 A 
ENDBRANCH   7   8
ENDBRANCH   1   7
BRANCH   3  19
HETATM   19  C   UNL     1     -42.066  59.905 -51.396  1.00  0.00     0.085 C 
HETATM   20  C   UNL     1     -42.692  60.916 -50.437  1.00  0.00     0.032 C 
BRANCH  19  21
HETATM   21  C   UNL     1     -42.459  60.094 -52.876  1.00  0.00     0.063 C 
BRANCH  21  22
HETATM   22  C   UNL     1     -41.497  59.513 -53.919  1.00  0.00     0.177 C 
BRANCH  22  23
HETATM   23  O   UNL     1     -40.243  59.203 -53.314  1.00  0.00    -0.389 OA
HETATM   24  H   UNL     1     -40.429  58.605 -52.570  1.00  0.00     0.210 HD
ENDBRANCH  22  23
BRANCH  22  25
HETATM   25  C   UNL     1     -41.992  58.282 -54.596  1.00  0.00     0.081 A 
HETATM   26  O   UNL     1     -42.068  57.147 -53.836  1.00  0.00    -0.324 OA
HETATM   27  C   UNL     1     -42.550  56.162 -54.637  1.00  0.00     0.142 A 
HETATM   28  C   UNL     1     -42.796  56.644 -55.900  1.00  0.00     0.027 A 
HETATM   29  C   UNL     1     -42.441  58.013 -55.873  1.00  0.00     0.037 A 
ENDBRANCH  22  25
ENDBRANCH  21  22
ENDBRANCH  19  21
ENDBRANCH   3  19
TORSDOF 7
ENDMDL
MODEL 2
REMARK VINA RESULT:      -7.5      1.663      1.947
REMARK  7 active torsions:
REMARK  status: ('A' for Active; 'I' for Inactive)
REMARK    1  A    between atoms: C_7  and  C_8 
REMARK    2  A    between atoms: C_8  and  N_9 
REMARK       I    between atoms: N_9  and  C_10 
REMARK       I    between atoms: C_10  and  N_11 
REMARK    3  A    between atoms: N_11  and  C_12 
REMARK    4  A    between atoms: C_12  and  C_13 
REMARK    5  A    between atoms: C_13  and  C_14 
REMARK    6  A    between atoms: C_14  and  O_15 
REMARK    7  A    between atoms: C_14  and  C_16 
ROOT
HETATM    1  N   UNL     1     -42.113  55.579 -50.100  1.00  0.00    -0.337 N 
HETATM    2  C   UNL     1     -42.337  56.649 -50.931  1.00  0.00     0.316 C 
HETATM    3  N   UNL     1     -43.647  57.026 -50.920  1.00  0.00    -0.339 N 
HETATM    4  O   UNL     1     -41.457  57.152 -51.619  1.00  0.00    -0.247 OA
HETATM    5  H   UNL     1     -42.729  55.562 -49.298  1.00  0.00     0.164 HD
HETATM    6  H   UNL     1     -44.319  56.367 -50.555  1.00  0.00     0.164 HD
ENDROOT
BRANCH   1   7
HETATM    7  C   UNL     1     -40.764  55.088 -49.876  1.00  0.00     0.183 C 
BRANCH   7   8
HETATM    8  C   UNL     1     -40.477  53.931 -50.762  1.00  0.00     0.044 A 
HETATM    9  N   UNL     1     -40.552  54.010 -52.147  1.00  0.00    -0.343 N 
HETATM   10  C   UNL     1     -40.295  52.839 -52.708  1.00  0.00     0.112 A 
HETATM   11  H   UNL     1     -40.842  54.867 -52.635  1.00  0.00     0.167 HD
HETATM   12  N   UNL     1     -40.015  51.966 -51.719  1.00  0.00    -0.311 N 
HETATM   13  C   UNL     1     -40.291  52.433 -54.131  1.00  0.00     0.049 A 
HETATM   14  C   UNL     1     -39.701  50.630 -51.966  1.00  0.00     0.014 A 
HETATM   15  C   UNL     1     -40.116  52.626 -50.501  1.00  0.00     0.125 A 
HETATM   16  C   UNL     1     -39.401  49.685 -50.842  1.00  0.00     0.068 C 
HETATM   17  C   UNL     1     -39.693  50.248 -53.263  1.00  0.00     0.025 A 
HETATM   18  C   UNL     1     -39.989  51.147 -54.375  1.00  0.00     0.006 A 
ENDBRANCH   7   8
ENDBRANCH   1   7
BRANCH   3  19
HETATM   19  C   UNL     1     -44.202  58.161 -51.671  1.00  0.00     0.085 C 
HETATM   20  C   UNL     1     -45.176  58.975 -50.822  1.00  0.00     0.032 C 
BRANCH  19  21
HETATM   21  C   UNL     1     -44.772  57.678 -53.020  1.00  0.00     0.063 C 
BRANCH  21  22
HETATM   22  C   UNL     1     -43.823  57.732 -54.223  1.00  0.00     0.177 C 
BRANCH  22  23
HETATM   23  O   UNL     1     -42.596  58.357 -53.855  1.00  0.00    -0.389 OA
HETATM   24  H   UNL     1     -42.825  59.215 -53.457  1.00  0.00     0.210 HD
ENDBRANCH  22  23
BRANCH  22  25
HETATM   25  C   UNL     1     -43.497  56.403 -54.812  1.00  0.00     0.081 A 
HETATM   26  O   UNL     1     -43.148  56.382 -56.134  1.00  0.00    -0.324 OA
HETATM   27  C   UNL     1     -42.882  55.090 -56.457  1.00  0.00     0.142 A 
HETATM   28  C   UNL     1     -43.044  54.276 -55.361  1.00  0.00     0.027 A 
HETATM   29  C   UNL     1     -43.436  55.123 -54.298  1.00  0.00     0.037 A 
ENDBRANCH  22  25
ENDBRANCH  21  22
ENDBRANCH  19  21
ENDBRANCH   3  19
TORSDOF 7
ENDMDL
MODEL 3
REMARK VINA RESULT:      -7.2      3.592      5.645
REMARK  7 active torsions:
REMARK  status: ('A' for Active; 'I' for Inactive)
REMARK    1  A    between atoms: C_7  and  C_8 
REMARK    2  A    between atoms: C_8  and  N_9 
REMARK       I    between atoms: N_9  and  C_10 
REMARK       I    between atoms: C_10  and  N_11 
REMARK    3  A    between atoms: N_11  and  C_12 
REMARK    4  A    between atoms: C_12  and  C_13 
REMARK    5  A    between atoms: C_13  and  C_14 
REMARK    6  A    between atoms: C_14  and  O_15 
REMARK    7  A    between atoms: C_14  and  C_16 
ROOT
HETATM    1  N   UNL     1     -41.225  55.457 -55.753  1.00  0.00    -0.337 N 
HETATM    2  C   UNL     1     -42.444  55.822 -56.269  1.00  0.00     0.316 C 
HETATM    3  N   UNL     1     -42.523  55.558 -57.604  1.00  0.00    -0.339 N 
HETATM    4  O   UNL     1     -43.318  56.359 -55.597  1.00  0.00    -0.247 OA
HETATM    5  H   UNL     1     -40.814  54.664 -56.227  1.00  0.00     0.164 HD
HETATM    6  H   UNL     1     -41.658  55.397 -58.100  1.00  0.00     0.164 HD
ENDROOT
BRANCH   1   7
HETATM    7  C   UNL     1     -40.971  55.548 -54.326  1.00  0.00     0.183 C 
BRANCH   7   8
HETATM    8  C   UNL     1     -40.675  54.207 -53.762  1.00  0.00     0.044 A 
HETATM    9  N   UNL     1     -40.589  53.970 -52.396  1.00  0.00    -0.343 N 
HETATM   10  C   UNL     1     -40.272  52.708 -52.149  1.00  0.00     0.112 A 
HETATM   11  H   UNL     1     -40.693  54.718 -51.699  1.00  0.00     0.167 HD
HETATM   12  N   UNL     1     -40.172  52.073 -53.334  1.00  0.00    -0.311 N 
HETATM   13  C   UNL     1     -40.039  52.008 -50.866  1.00  0.00     0.049 A 
HETATM   14  C   UNL     1     -39.845  50.721 -53.433  1.00  0.00     0.014 A 
HETATM   15  C   UNL     1     -40.424  52.985 -54.350  1.00  0.00     0.125 A 
HETATM   16  C   UNL     1     -39.735  50.047 -54.768  1.00  0.00     0.068 C 
HETATM   17  C   UNL     1     -39.630  50.071 -52.267  1.00  0.00     0.025 A 
HETATM   18  C   UNL     1     -39.724  50.705 -50.956  1.00  0.00     0.006 A 
ENDBRANCH   7   8
ENDBRANCH   1   7
BRANCH   3  19
HETATM   19  C   UNL     1     -43.708  55.796 -58.440  1.00  0.00     0.085 C 
HETATM   20  C   UNL     1     -44.085  54.556 -59.249  1.00  0.00     0.032 C 
BRANCH  19  21
HETATM   21  C   UNL     1     -43.520  57.077 -59.278  1.00  0.00     0.063 C 
BRANCH  21  22
HETATM   22  C   UNL     1     -42.083  57.591 -59.429  1.00  0.00     0.177 C 
BRANCH  22  23
HETATM   23  O   UNL     1     -41.381  56.814 -60.395  1.00  0.00    -0.389 OA
HETATM   24  H   UNL     1     -42.002  56.642 -61.124  1.00  0.00     0.210 HD
ENDBRANCH  22  23
BRANCH  22  25
HETATM   25  C   UNL     1     -41.979  59.021 -59.832  1.00  0.00     0.081 A 
HETATM   26  O   UNL     1     -41.784  59.276 -61.162  1.00  0.00    -0.324 OA
HETATM   27  C   UNL     1     -41.732  60.625 -61.307  1.00  0.00     0.142 A 
HETATM   28  C   UNL     1     -41.901  61.248 -60.093  1.00  0.00     0.027 A 
HETATM   29  C   UNL     1     -42.065  60.214 -59.142  1.00  0.00     0.037 A 
ENDBRANCH  22  25
ENDBRANCH  21  22
ENDBRANCH  19  21
ENDBRANCH   3  19
TORSDOF 7
ENDMDL
MODEL 4
REMARK VINA RESULT:      -6.8      3.360      7.294
REMARK  7 active torsions:
REMARK  status: ('A' for Active; 'I' for Inactive)
REMARK    1  A    between atoms: C_7  and  C_8 
REMARK    2  A    between atoms: C_8  and  N_9 
REMARK       I    between atoms: N_9  and  C_10 
REMARK       I    between atoms: C_10  and  N_11 
REMARK    3  A    between atoms: N_11  and  C_12 
REMARK    4  A    between atoms: C_12  and  C_13 
REMARK    5  A    between atoms: C_13  and  C_14 
REMARK    6  A    between atoms: C_14  and  O_15 
REMARK    7  A    between atoms: C_14  and  C_16 
ROOT
HETATM    1  N   UNL     1     -44.737  56.195 -54.309  1.00  0.00    -0.337 N 
HETATM    2  C   UNL     1     -43.724  55.947 -53.415  1.00  0.00     0.316 C 
HETATM    3  N   UNL     1     -43.677  54.631 -53.063  1.00  0.00    -0.339 N 
HETATM    4  O   UNL     1     -42.997  56.829 -52.972  1.00  0.00    -0.247 OA
HETATM    5  H   UNL     1     -44.933  55.410 -54.916  1.00  0.00     0.164 HD
HETATM    6  H   UNL     1     -44.493  54.067 -53.255  1.00  0.00     0.164 HD
ENDROOT
BRANCH   1   7
HETATM    7  C   UNL     1     -44.894  57.512 -54.900  1.00  0.00     0.183 C 
BRANCH   7   8
HETATM    8  C   UNL     1     -44.191  57.584 -56.206  1.00  0.00     0.044 A 
HETATM    9  N   UNL     1     -44.035  56.482 -57.036  1.00  0.00    -0.343 N 
HETATM   10  C   UNL     1     -43.338  56.792 -58.118  1.00  0.00     0.112 A 
HETATM   11  H   UNL     1     -44.370  55.545 -56.777  1.00  0.00     0.167 HD
HETATM   12  N   UNL     1     -43.042  58.106 -58.049  1.00  0.00    -0.311 N 
HETATM   13  C   UNL     1     -42.896  55.951 -59.253  1.00  0.00     0.049 A 
HETATM   14  C   UNL     1     -42.306  58.760 -59.036  1.00  0.00     0.014 A 
HETATM   15  C   UNL     1     -43.568  58.619 -56.871  1.00  0.00     0.125 A 
HETATM   16  C   UNL     1     -41.989  60.221 -58.925  1.00  0.00     0.068 C 
HETATM   17  C   UNL     1     -41.898  58.002 -60.079  1.00  0.00     0.025 A 
HETATM   18  C   UNL     1     -42.187  56.577 -60.207  1.00  0.00     0.006 A 
ENDBRANCH   7   8
ENDBRANCH   1   7
BRANCH   3  19
HETATM   19  C   UNL     1     -42.684  54.037 -52.156  1.00  0.00     0.085 C 
HETATM   20  C   UNL     1     -42.832  54.571 -50.733  1.00  0.00     0.032 C 
BRANCH  19  21
HETATM   21  C   UNL     1     -41.269  54.179 -52.752  1.00  0.00     0.063 C 
BRANCH  21  22
HETATM   22  C   UNL     1     -40.958  53.325 -53.988  1.00  0.00     0.177 C 
BRANCH  22  23
HETATM   23  O   UNL     1     -40.036  54.005 -54.837  1.00  0.00    -0.389 OA
HETATM   24  H   UNL     1     -40.489  54.800 -55.166  1.00  0.00     0.210 HD
ENDBRANCH  22  23
BRANCH  22  25
HETATM   25  C   UNL     1     -40.391  51.982 -53.683  1.00  0.00     0.081 A 
HETATM   26  O   UNL     1     -39.952  51.772 -52.404  1.00  0.00    -0.324 OA
HETATM   27  C   UNL     1     -39.494  50.496 -52.343  1.00  0.00     0.142 A 
HETATM   28  C   UNL     1     -39.639  49.873 -53.560  1.00  0.00     0.027 A 
HETATM   29  C   UNL     1     -40.223  50.829 -54.423  1.00  0.00     0.037 A 
ENDBRANCH  22  25
ENDBRANCH  21  22
ENDBRANCH  19  21
ENDBRANCH   3  19
TORSDOF 7
ENDMDL
MODEL 5
REMARK VINA RESULT:      -6.7      3.597      5.549
REMARK  7 active torsions:
REMARK  status: ('A' for Active; 'I' for Inactive)
REMARK    1  A    between atoms: C_7  and  C_8 
REMARK    2  A    between atoms: C_8  and  N_9 
REMARK       I    between atoms: N_9  and  C_10 
REMARK       I    between atoms: C_10  and  N_11 
REMARK    3  A    between atoms: N_11  and  C_12 
REMARK    4  A    between atoms: C_12  and  C_13 
REMARK    5  A    between atoms: C_13  and  C_14 
REMARK    6  A    between atoms: C_14  and  O_15 
REMARK    7  A    between atoms: C_14  and  C_16 
ROOT
HETATM    1  N   UNL     1     -42.229  55.284 -56.420  1.00  0.00    -0.337 N 
HETATM    2  C   UNL     1     -42.644  56.566 -56.684  1.00  0.00     0.316 C 
HETATM    3  N   UNL     1     -41.881  57.151 -57.650  1.00  0.00    -0.339 N 
HETATM    4  O   UNL     1     -43.561  57.107 -56.077  1.00  0.00    -0.247 OA
HETATM    5  H   UNL     1     -41.834  54.820 -57.227  1.00  0.00     0.164 HD
HETATM    6  H   UNL     1     -40.988  56.728 -57.860  1.00  0.00     0.164 HD
ENDROOT
BRANCH   1   7
HETATM    7  C   UNL     1     -42.974  54.441 -55.502  1.00  0.00     0.183 C 
BRANCH   7   8
HETATM    8  C   UNL     1     -42.401  54.525 -54.134  1.00  0.00     0.044 A 
HETATM    9  N   UNL     1     -42.698  55.562 -53.259  1.00  0.00    -0.343 N 
HETATM   10  C   UNL     1     -42.031  55.434 -52.123  1.00  0.00     0.112 A 
HETATM   11  H   UNL     1     -43.308  56.346 -53.520  1.00  0.00     0.167 HD
HETATM   12  N   UNL     1     -41.302  54.302 -52.202  1.00  0.00    -0.311 N 
HETATM   13  C   UNL     1     -41.998  56.300 -50.923  1.00  0.00     0.049 A 
HETATM   14  C   UNL     1     -40.474  53.870 -51.167  1.00  0.00     0.014 A 
HETATM   15  C   UNL     1     -41.523  53.718 -53.443  1.00  0.00     0.125 A 
HETATM   16  C   UNL     1     -39.673  52.609 -51.291  1.00  0.00     0.068 C 
HETATM   17  C   UNL     1     -40.437  54.653 -50.065  1.00  0.00     0.025 A 
HETATM   18  C   UNL     1     -41.201  55.888 -49.922  1.00  0.00     0.006 A 
ENDBRANCH   7   8
ENDBRANCH   1   7
BRANCH   3  19
HETATM   19  C   UNL     1     -42.093  58.503 -58.186  1.00  0.00     0.085 C 
HETATM   20  C   UNL     1     -42.182  59.543 -57.071  1.00  0.00     0.032 C 
BRANCH  19  21
HETATM   21  C   UNL     1     -43.285  58.506 -59.165  1.00  0.00     0.063 C 
BRANCH  21  22
HETATM   22  C   UNL     1     -43.176  57.576 -60.379  1.00  0.00     0.177 C 
BRANCH  22  23
HETATM   23  O   UNL     1     -41.816  57.207 -60.596  1.00  0.00    -0.389 OA
HETATM   24  H   UNL     1     -41.694  57.134 -61.558  1.00  0.00     0.210 HD
ENDBRANCH  22  23
BRANCH  22  25
HETATM   25  C   UNL     1     -43.975  56.324 -60.270  1.00  0.00     0.081 A 
HETATM   26  O   UNL     1     -43.455  55.324 -59.494  1.00  0.00    -0.324 OA
HETATM   27  C   UNL     1     -44.339  54.295 -59.523  1.00  0.00     0.142 A 
HETATM   28  C   UNL     1     -45.429  54.616 -60.297  1.00  0.00     0.027 A 
HETATM   29  C   UNL     1     -45.197  55.927 -60.775  1.00  0.00     0.037 A 
ENDBRANCH  22  25
ENDBRANCH  21  22
ENDBRANCH  19  21
ENDBRANCH   3  19
TORSDOF 7
ENDMDL
MODEL 6
REMARK VINA RESULT:      -6.7      2.141      4.305
REMARK  7 active torsions:
REMARK  status: ('A' for Active; 'I' for Inactive)
REMARK    1  A    between atoms: C_7  and  C_8 
REMARK    2  A    between atoms: C_8  and  N_9 
REMARK       I    between atoms: N_9  and  C_10 
REMARK       I    between atoms: C_10  and  N_11 
REMARK    3  A    between atoms: N_11  and  C_12 
REMARK    4  A    between atoms: C_12  and  C_13 
REMARK    5  A    between atoms: C_13  and  C_14 
REMARK    6  A    between atoms: C_14  and  O_15 
REMARK    7  A    between atoms: C_14  and  C_16 
ROOT
HETATM    1  N   UNL     1     -40.730  55.184 -55.161  1.00  0.00    -0.337 N 
HETATM    2  C   UNL     1     -42.059  55.507 -55.284  1.00  0.00     0.316 C 
HETATM    3  N   UNL     1     -42.266  56.845 -55.126  1.00  0.00    -0.339 N 
HETATM    4  O   UNL     1     -42.934  54.668 -55.467  1.00  0.00    -0.247 OA
HETATM    5  H   UNL     1     -40.111  55.921 -55.470  1.00  0.00     0.164 HD
HETATM    6  H   UNL     1     -41.530  57.383 -54.692  1.00  0.00     0.164 HD
ENDROOT
BRANCH   1   7
HETATM    7  C   UNL     1     -40.275  53.826 -55.404  1.00  0.00     0.183 C 
BRANCH   7   8
HETATM    8  C   UNL     1     -40.176  53.072 -54.128  1.00  0.00     0.044 A 
HETATM    9  N   UNL     1     -39.844  51.725 -54.077  1.00  0.00    -0.343 N 
HETATM   10  C   UNL     1     -39.865  51.274 -52.833  1.00  0.00     0.112 A 
HETATM   11  H   UNL     1     -39.678  51.165 -54.924  1.00  0.00     0.167 HD
HETATM   12  N   UNL     1     -40.179  52.309 -52.029  1.00  0.00    -0.311 N 
HETATM   13  C   UNL     1     -39.617  49.916 -52.297  1.00  0.00     0.049 A 
HETATM   14  C   UNL     1     -40.290  52.176 -50.645  1.00  0.00     0.014 A 
HETATM   15  C   UNL     1     -40.371  53.439 -52.814  1.00  0.00     0.125 A 
HETATM   16  C   UNL     1     -40.647  53.348 -49.781  1.00  0.00     0.068 C 
HETATM   17  C   UNL     1     -40.065  50.940 -50.144  1.00  0.00     0.025 A 
HETATM   18  C   UNL     1     -39.722  49.783 -50.964  1.00  0.00     0.006 A 
ENDBRANCH   7   8
ENDBRANCH   1   7
BRANCH   3  19
HETATM   19  C   UNL     1     -43.570  57.513 -55.239  1.00  0.00     0.085 C 
HETATM   20  C   UNL     1     -43.694  58.290 -56.549  1.00  0.00     0.032 C 
BRANCH  19  21
HETATM   21  C   UNL     1     -43.855  58.343 -53.970  1.00  0.00     0.063 C 
BRANCH  21  22
HETATM   22  C   UNL     1     -44.027  57.558 -52.664  1.00  0.00     0.177 C 
BRANCH  22  23
HETATM   23  O   UNL     1     -44.426  56.218 -52.943  1.00  0.00    -0.389 OA
HETATM   24  H   UNL     1     -45.059  55.963 -52.250  1.00  0.00     0.210 HD
ENDBRANCH  22  23
BRANCH  22  25
HETATM   25  C   UNL     1     -42.806  57.501 -51.813  1.00  0.00     0.081 A 
HETATM   26  O   UNL     1     -42.376  58.680 -51.268  1.00  0.00    -0.324 OA
HETATM   27  C   UNL     1     -41.273  58.400 -50.528  1.00  0.00     0.142 A 
HETATM   28  C   UNL     1     -40.987  57.056 -50.578  1.00  0.00     0.027 A 
HETATM   29  C   UNL     1     -41.979  56.475 -51.402  1.00  0.00     0.037 A 
ENDBRANCH  22  25
ENDBRANCH  21  22
ENDBRANCH  19  21
ENDBRANCH   3  19
TORSDOF 7
ENDMDL
MODEL 7
REMARK VINA RESULT:      -6.7      2.769      4.504
REMARK  7 active torsions:
REMARK  status: ('A' for Active; 'I' for Inactive)
REMARK    1  A    between atoms: C_7  and  C_8 
REMARK    2  A    between atoms: C_8  and  N_9 
REMARK       I    between atoms: N_9  and  C_10 
REMARK       I    between atoms: C_10  and  N_11 
REMARK    3  A    between atoms: N_11  and  C_12 
REMARK    4  A    between atoms: C_12  and  C_13 
REMARK    5  A    between atoms: C_13  and  C_14 
REMARK    6  A    between atoms: C_14  and  O_15 
REMARK    7  A    between atoms: C_14  and  C_16 
ROOT
HETATM    1  N   UNL     1     -41.948  56.716 -50.578  1.00  0.00    -0.337 N 
HETATM    2  C   UNL     1     -43.248  56.952 -50.951  1.00  0.00     0.316 C 
HETATM    3  N   UNL     1     -43.353  58.074 -51.719  1.00  0.00    -0.339 N 
HETATM    4  O   UNL     1     -44.183  56.249 -50.586  1.00  0.00    -0.247 OA
HETATM    5  H   UNL     1     -41.274  57.033 -51.262  1.00  0.00     0.164 HD
HETATM    6  H   UNL     1     -42.579  58.722 -51.706  1.00  0.00     0.164 HD
ENDROOT
BRANCH   1   7
HETATM    7  C   UNL     1     -41.597  55.510 -49.850  1.00  0.00     0.183 C 
BRANCH   7   8
HETATM    8  C   UNL     1     -41.090  54.468 -50.779  1.00  0.00     0.044 A 
HETATM    9  N   UNL     1     -41.036  54.652 -52.155  1.00  0.00    -0.343 N 
HETATM   10  C   UNL     1     -40.590  53.566 -52.765  1.00  0.00     0.112 A 
HETATM   11  H   UNL     1     -41.373  55.510 -52.610  1.00  0.00     0.167 HD
HETATM   12  N   UNL     1     -40.310  52.650 -51.816  1.00  0.00    -0.311 N 
HETATM   13  C   UNL     1     -40.396  53.281 -54.205  1.00  0.00     0.049 A 
HETATM   14  C   UNL     1     -39.820  51.380 -52.122  1.00  0.00     0.014 A 
HETATM   15  C   UNL     1     -40.608  53.193 -50.573  1.00  0.00     0.125 A 
HETATM   16  C   UNL     1     -39.525  50.384 -51.042  1.00  0.00     0.068 C 
HETATM   17  C   UNL     1     -39.638  51.110 -53.434  1.00  0.00     0.025 A 
HETATM   18  C   UNL     1     -39.924  52.060 -54.505  1.00  0.00     0.006 A 
ENDBRANCH   7   8
ENDBRANCH   1   7
BRANCH   3  19
HETATM   19  C   UNL     1     -44.602  58.575 -52.309  1.00  0.00     0.085 C 
HETATM   20  C   UNL     1     -44.580  58.487 -53.834  1.00  0.00     0.032 C 
BRANCH  19  21
HETATM   21  C   UNL     1     -44.930  59.975 -51.751  1.00  0.00     0.063 C 
BRANCH  21  22
HETATM   22  C   UNL     1     -45.841  60.024 -50.519  1.00  0.00     0.177 C 
BRANCH  22  23
HETATM   23  O   UNL     1     -45.784  58.786 -49.814  1.00  0.00    -0.389 OA
HETATM   24  H   UNL     1     -46.695  58.449 -49.760  1.00  0.00     0.210 HD
ENDBRANCH  22  23
BRANCH  22  25
HETATM   25  C   UNL     1     -45.517  61.112 -49.555  1.00  0.00     0.081 A 
HETATM   26  O   UNL     1     -46.559  61.633 -48.838  1.00  0.00    -0.324 OA
HETATM   27  C   UNL     1     -46.045  62.588 -48.021  1.00  0.00     0.142 A 
HETATM   28  C   UNL     1     -44.684  62.685 -48.191  1.00  0.00     0.027 A 
HETATM   29  C   UNL     1     -44.342  61.730 -49.176  1.00  0.00     0.037 A 
ENDBRANCH  22  25
ENDBRANCH  21  22
ENDBRANCH  19  21
ENDBRANCH   3  19
TORSDOF 7
ENDMDL
MODEL 8
REMARK VINA RESULT:      -6.6      3.631      7.884
REMARK  7 active torsions:
REMARK  status: ('A' for Active; 'I' for Inactive)
REMARK    1  A    between atoms: C_7  and  C_8 
REMARK    2  A    between atoms: C_8  and  N_9 
REMARK       I    between atoms: N_9  and  C_10 
REMARK       I    between atoms: C_10  and  N_11 
REMARK    3  A    between atoms: N_11  and  C_12 
REMARK    4  A    between atoms: C_12  and  C_13 
REMARK    5  A    between atoms: C_13  and  C_14 
REMARK    6  A    between atoms: C_14  and  O_15 
REMARK    7  A    between atoms: C_14  and  C_16 
ROOT
HETATM    1  N   UNL     1     -42.199  54.990 -54.700  1.00  0.00    -0.337 N 
HETATM    2  C   UNL     1     -40.980  54.376 -54.553  1.00  0.00     0.316 C 
HETATM    3  N   UNL     1     -41.114  53.100 -54.090  1.00  0.00    -0.339 N 
HETATM    4  O   UNL     1     -39.917  54.944 -54.775  1.00  0.00    -0.247 OA
HETATM    5  H   UNL     1     -42.942  54.347 -54.938  1.00  0.00     0.164 HD
HETATM    6  H   UNL     1     -41.996  52.847 -53.669  1.00  0.00     0.164 HD
ENDROOT
BRANCH   1   7
HETATM    7  C   UNL     1     -42.292  56.315 -55.287  1.00  0.00     0.183 C 
BRANCH   7   8
HETATM    8  C   UNL     1     -42.895  56.244 -56.642  1.00  0.00     0.044 A 
HETATM    9  N   UNL     1     -43.389  55.064 -57.182  1.00  0.00    -0.343 N 
HETATM   10  C   UNL     1     -43.833  55.251 -58.415  1.00  0.00     0.112 A 
HETATM   11  H   UNL     1     -43.337  54.166 -56.686  1.00  0.00     0.167 HD
HETATM   12  N   UNL     1     -43.674  56.557 -58.712  1.00  0.00    -0.311 N 
HETATM   13  C   UNL     1     -44.408  54.295 -59.388  1.00  0.00     0.049 A 
HETATM   14  C   UNL     1     -44.039  57.095 -59.946  1.00  0.00     0.014 A 
HETATM   15  C   UNL     1     -43.098  57.194 -57.620  1.00  0.00     0.125 A 
HETATM   16  C   UNL     1     -43.843  58.550 -60.245  1.00  0.00     0.068 C 
HETATM   17  C   UNL     1     -44.567  56.230 -60.842  1.00  0.00     0.025 A 
HETATM   18  C   UNL     1     -44.762  54.808 -60.578  1.00  0.00     0.006 A 
ENDBRANCH   7   8
ENDBRANCH   1   7
BRANCH   3  19
HETATM   19  C   UNL     1     -40.002  52.166 -53.865  1.00  0.00     0.085 C 
HETATM   20  C   UNL     1     -40.368  50.743 -54.283  1.00  0.00     0.032 C 
BRANCH  19  21
HETATM   21  C   UNL     1     -39.481  52.298 -52.419  1.00  0.00     0.063 C 
BRANCH  21  22
HETATM   22  C   UNL     1     -40.501  52.057 -51.300  1.00  0.00     0.177 C 
BRANCH  22  23
HETATM   23  O   UNL     1     -40.060  51.001 -50.450  1.00  0.00    -0.389 OA
HETATM   24  H   UNL     1     -40.467  50.182 -50.783  1.00  0.00     0.210 HD
ENDBRANCH  22  23
BRANCH  22  25
HETATM   25  C   UNL     1     -40.772  53.246 -50.446  1.00  0.00     0.081 A 
HETATM   26  O   UNL     1     -40.363  53.177 -49.142  1.00  0.00    -0.324 OA
HETATM   27  C   UNL     1     -40.691  54.356 -48.556  1.00  0.00     0.142 A 
HETATM   28  C   UNL     1     -41.298  55.193 -49.463  1.00  0.00     0.027 A 
HETATM   29  C   UNL     1     -41.345  54.479 -50.684  1.00  0.00     0.037 A 
ENDBRANCH  22  25
ENDBRANCH  21  22
ENDBRANCH  19  21
ENDBRANCH   3  19
TORSDOF 7
ENDMDL
MODEL 9
REMARK VINA RESULT:      -6.6      4.822      6.708
REMARK  7 active torsions:
REMARK  status: ('A' for Active; 'I' for Inactive)
REMARK    1  A    between atoms: C_7  and  C_8 
REMARK    2  A    between atoms: C_8  and  N_9 
REMARK       I    between atoms: N_9  and  C_10 
REMARK       I    between atoms: C_10  and  N_11 
REMARK    3  A    between atoms: N_11  and  C_12 
REMARK    4  A    between atoms: C_12  and  C_13 
REMARK    5  A    between atoms: C_13  and  C_14 
REMARK    6  A    between atoms: C_14  and  O_15 
REMARK    7  A    between atoms: C_14  and  C_16 
ROOT
HETATM    1  N   UNL     1     -43.412  55.309 -56.412  1.00  0.00    -0.337 N 
HETATM    2  C   UNL     1     -43.273  56.226 -57.423  1.00  0.00     0.316 C 
HETATM    3  N   UNL     1     -43.454  55.654 -58.647  1.00  0.00    -0.339 N 
HETATM    4  O   UNL     1     -42.978  57.399 -57.222  1.00  0.00    -0.247 OA
HETATM    5  H   UNL     1     -44.068  54.570 -56.631  1.00  0.00     0.164 HD
HETATM    6  H   UNL     1     -43.397  54.647 -58.705  1.00  0.00     0.164 HD
ENDROOT
BRANCH   1   7
HETATM    7  C   UNL     1     -43.369  55.729 -55.022  1.00  0.00     0.183 C 
BRANCH   7   8
HETATM    8  C   UNL     1     -42.489  54.831 -54.232  1.00  0.00     0.044 A 
HETATM    9  N   UNL     1     -42.096  55.120 -52.932  1.00  0.00    -0.343 N 
HETATM   10  C   UNL     1     -41.280  54.191 -52.461  1.00  0.00     0.112 A 
HETATM   11  H   UNL     1     -42.368  55.989 -52.454  1.00  0.00     0.167 HD
HETATM   12  N   UNL     1     -41.135  53.252 -53.418  1.00  0.00    -0.311 N 
HETATM   13  C   UNL     1     -40.588  54.088 -51.156  1.00  0.00     0.049 A 
HETATM   14  C   UNL     1     -40.330  52.127 -53.247  1.00  0.00     0.014 A 
HETATM   15  C   UNL     1     -41.883  53.628 -54.526  1.00  0.00     0.125 A 
HETATM   16  C   UNL     1     -40.186  51.106 -54.335  1.00  0.00     0.068 C 
HETATM   17  C   UNL     1     -39.693  52.022 -52.059  1.00  0.00     0.025 A 
HETATM   18  C   UNL     1     -39.811  53.005 -50.987  1.00  0.00     0.006 A 
ENDBRANCH   7   8
ENDBRANCH   1   7
BRANCH   3  19
HETATM   19  C   UNL     1     -43.411  56.375 -59.927  1.00  0.00     0.085 C 
HETATM   20  C   UNL     1     -42.078  57.095 -60.124  1.00  0.00     0.032 C 
BRANCH  19  21
HETATM   21  C   UNL     1     -44.656  57.275 -60.073  1.00  0.00     0.063 C 
BRANCH  21  22
HETATM   22  C   UNL     1     -46.018  56.580 -59.963  1.00  0.00     0.177 C 
BRANCH  22  23
HETATM   23  O   UNL     1     -46.536  56.720 -58.642  1.00  0.00    -0.389 OA
HETATM   24  H   UNL     1     -46.071  56.070 -58.087  1.00  0.00     0.210 HD
ENDBRANCH  22  23
BRANCH  22  25
HETATM   25  C   UNL     1     -47.048  57.088 -60.911  1.00  0.00     0.081 A 
HETATM   26  O   UNL     1     -47.628  56.171 -61.743  1.00  0.00    -0.324 OA
HETATM   27  C   UNL     1     -48.535  56.837 -62.503  1.00  0.00     0.142 A 
HETATM   28  C   UNL     1     -48.558  58.170 -62.169  1.00  0.00     0.027 A 
HETATM   29  C   UNL     1     -47.603  58.332 -61.138  1.00  0.00     0.037 A 
ENDBRANCH  22  25
ENDBRANCH  21  22
ENDBRANCH  19  21
ENDBRANCH   3  19
TORSDOF 7
ENDMDL
MODEL 10
REMARK VINA RESULT:      -6.6      1.949      3.372
REMARK  7 active torsions:
REMARK  status: ('A' for Active; 'I' for Inactive)
REMARK    1  A    between atoms: C_7  and  C_8 
REMARK    2  A    between atoms: C_8  and  N_9 
REMARK       I    between atoms: N_9  and  C_10 
REMARK       I    between atoms: C_10  and  N_11 
REMARK    3  A    between atoms: N_11  and  C_12 
REMARK    4  A    between atoms: C_12  and  C_13 
REMARK    5  A    between atoms: C_13  and  C_14 
REMARK    6  A    between atoms: C_14  and  O_15 
REMARK    7  A    between atoms: C_14  and  C_16 
ROOT
HETATM    1  N   UNL     1     -41.429  55.718 -51.991  1.00  0.00    -0.337 N 
HETATM    2  C   UNL     1     -42.702  56.216 -51.859  1.00  0.00     0.316 C 
HETATM    3  N   UNL     1     -43.085  56.914 -52.966  1.00  0.00    -0.339 N 
HETATM    4  O   UNL     1     -43.371  56.072 -50.842  1.00  0.00    -0.247 OA
HETATM    5  H   UNL     1     -41.186  55.496 -52.947  1.00  0.00     0.164 HD
HETATM    6  H   UNL     1     -42.360  57.212 -53.603  1.00  0.00     0.164 HD
ENDROOT
BRANCH   1   7
HETATM    7  C   UNL     1     -40.867  54.849 -50.972  1.00  0.00     0.183 C 
BRANCH   7   8
HETATM    8  C   UNL     1     -40.500  53.533 -51.554  1.00  0.00     0.044 A 
HETATM    9  N   UNL     1     -40.454  53.305 -52.923  1.00  0.00    -0.343 N 
HETATM   10  C   UNL     1     -40.145  52.045 -53.188  1.00  0.00     0.112 A 
HETATM   11  H   UNL     1     -40.702  54.027 -53.611  1.00  0.00     0.167 HD
HETATM   12  N   UNL     1     -39.950  51.417 -52.011  1.00  0.00    -0.311 N 
HETATM   13  C   UNL     1     -40.015  51.337 -54.482  1.00  0.00     0.049 A 
HETATM   14  C   UNL     1     -39.613  50.066 -51.930  1.00  0.00     0.014 A 
HETATM   15  C   UNL     1     -40.160  52.326 -50.982  1.00  0.00     0.125 A 
HETATM   16  C   UNL     1     -39.409  49.398 -50.604  1.00  0.00     0.068 C 
HETATM   17  C   UNL     1     -39.490  49.409 -53.106  1.00  0.00     0.025 A 
HETATM   18  C   UNL     1     -39.689  50.035 -54.409  1.00  0.00     0.006 A 
ENDBRANCH   7   8
ENDBRANCH   1   7
BRANCH   3  19
HETATM   19  C   UNL     1     -44.403  57.536 -53.154  1.00  0.00     0.085 C 
HETATM   20  C   UNL     1     -45.052  57.095 -54.465  1.00  0.00     0.032 C 
BRANCH  19  21
HETATM   21  C   UNL     1     -44.300  59.064 -52.969  1.00  0.00     0.063 C 
BRANCH  21  22
HETATM   22  C   UNL     1     -44.079  59.566 -51.538  1.00  0.00     0.177 C 
BRANCH  22  23
HETATM   23  O   UNL     1     -44.718  58.696 -50.606  1.00  0.00    -0.389 OA
HETATM   24  H   UNL     1     -44.787  59.183 -49.767  1.00  0.00     0.210 HD
ENDBRANCH  22  23
BRANCH  22  25
HETATM   25  C   UNL     1     -42.649  59.687 -51.140  1.00  0.00     0.081 A 
HETATM   26  O   UNL     1     -41.724  59.142 -51.987  1.00  0.00    -0.324 OA
HETATM   27  C   UNL     1     -40.500  59.374 -51.447  1.00  0.00     0.142 A 
HETATM   28  C   UNL     1     -40.619  60.072 -50.268  1.00  0.00     0.027 A 
HETATM   29  C   UNL     1     -42.004  60.278 -50.072  1.00  0.00     0.037 A 
ENDBRANCH  22  25
ENDBRANCH  21  22
ENDBRANCH  19  21
ENDBRANCH   3  19
TORSDOF 7
ENDMDL
