MODEL 1
REMARK VINA RESULT:      -7.8      0.000      0.000
REMARK  3 active torsions:
REMARK  status: ('A' for Active; 'I' for Inactive)
REMARK    1  A    between atoms: C_5  and  N_6 
REMARK       I    between atoms: N_6  and  C_7 
REMARK    2  A    between atoms: C_7  and  C_8 
REMARK    3  A    between atoms: C_8  and  C_9 
ROOT
HETATM    1  C   UNL     1     -43.623  57.018 -55.017  1.00  0.00     0.286 C 
HETATM    2  N   UNL     1     -42.655  57.799 -55.907  1.00  0.00    -0.056 N 
HETATM    3  H   UNL     1     -42.771  58.802 -55.656  1.00  0.00     0.278 HD
HETATM    4  H   UNL     1     -41.683  57.555 -55.681  1.00  0.00     0.278 HD
HETATM    5  C   UNL     1     -42.964  57.566 -57.354  1.00  0.00     0.209 C 
HETATM    6  C   UNL     1     -42.789  56.058 -57.649  1.00  0.00     0.115 C 
HETATM    7  N   UNL     1     -43.546  55.216 -56.725  1.00  0.00    -0.353 N 
HETATM    8  C   UNL     1     -43.652  55.517 -55.380  1.00  0.00     0.249 C 
HETATM    9  O   UNL     1     -43.841  54.630 -54.558  1.00  0.00    -0.271 OA
HETATM   10  C   UNL     1     -42.051  58.405 -58.236  1.00  0.00     0.035 C 
HETATM   11  C   UNL     1     -42.360  58.131 -59.710  1.00  0.00     0.002 C 
HETATM   12  C   UNL     1     -42.296  56.640 -60.051  1.00  0.00     0.002 C 
HETATM   13  C   UNL     1     -43.143  55.779 -59.109  1.00  0.00     0.027 C 
HETATM   14  H   UNL     1     -43.550  54.212 -56.896  1.00  0.00     0.163 HD
ENDROOT
BRANCH   1  15
HETATM   15  C   UNL     1     -43.320  57.250 -53.533  1.00  0.00     0.146 C 
BRANCH  15  16
HETATM   16  C   UNL     1     -41.897  57.723 -53.376  1.00  0.00     0.224 C 
HETATM   17  N   UNL     1     -40.845  56.872 -53.294  1.00  0.00    -0.327 N 
HETATM   18  H   UNL     1     -39.984  57.358 -53.056  1.00  0.00     0.169 HD
HETATM   19  O   UNL     1     -41.684  58.943 -53.314  1.00  0.00    -0.273 OA
BRANCH  17  20
HETATM   20  C   UNL     1     -40.709  55.480 -53.448  1.00  0.00     0.034 A 
HETATM   21  C   UNL     1     -40.961  54.528 -52.461  1.00  0.00     0.030 A 
HETATM   22  C   UNL     1     -40.803  53.162 -52.732  1.00  0.00     0.009 A 
HETATM   23  C   UNL     1     -40.391  52.726 -53.993  1.00  0.00    -0.062 A 
HETATM   24  C   UNL     1     -40.245  51.263 -54.297  1.00  0.00     0.048 C 
HETATM   25  C   UNL     1     -40.167  53.673 -54.993  1.00  0.00     0.009 A 
HETATM   26  C   UNL     1     -40.331  55.035 -54.722  1.00  0.00     0.030 A 
ENDBRANCH  17  20
ENDBRANCH  15  16
ENDBRANCH   1  15
TORSDOF 3
ENDMDL
MODEL 2
REMARK VINA RESULT:      -7.7      2.561      3.860
REMARK  3 active torsions:
REMARK  status: ('A' for Active; 'I' for Inactive)
REMARK    1  A    between atoms: C_5  and  N_6 
REMARK       I    between atoms: N_6  and  C_7 
REMARK    2  A    between atoms: C_7  and  C_8 
REMARK    3  A    between atoms: C_8  and  C_9 
ROOT
HETATM    1  C   UNL     1     -43.008  55.699 -51.857  1.00  0.00     0.286 C 
HETATM    2  N   UNL     1     -43.012  55.153 -53.285  1.00  0.00    -0.056 N 
HETATM    3  H   UNL     1     -42.113  54.641 -53.405  1.00  0.00     0.278 HD
HETATM    4  H   UNL     1     -43.758  54.457 -53.402  1.00  0.00     0.278 HD
HETATM    5  C   UNL     1     -43.132  56.268 -54.277  1.00  0.00     0.209 C 
HETATM    6  C   UNL     1     -44.476  56.992 -54.029  1.00  0.00     0.115 C 
HETATM    7  N   UNL     1     -44.642  57.399 -52.635  1.00  0.00    -0.353 N 
HETATM    8  C   UNL     1     -44.232  56.600 -51.586  1.00  0.00     0.249 C 
HETATM    9  O   UNL     1     -44.774  56.685 -50.491  1.00  0.00    -0.271 OA
HETATM   10  C   UNL     1     -43.056  55.730 -55.699  1.00  0.00     0.035 C 
HETATM   11  C   UNL     1     -43.212  56.879 -56.697  1.00  0.00     0.002 C 
HETATM   12  C   UNL     1     -44.481  57.699 -56.449  1.00  0.00     0.002 C 
HETATM   13  C   UNL     1     -44.609  58.168 -54.997  1.00  0.00     0.027 C 
HETATM   14  H   UNL     1     -45.465  57.952 -52.400  1.00  0.00     0.163 HD
ENDROOT
BRANCH   1  15
HETATM   15  C   UNL     1     -42.882  54.567 -50.832  1.00  0.00     0.146 C 
BRANCH  15  16
HETATM   16  C   UNL     1     -41.538  54.648 -50.153  1.00  0.00     0.224 C 
HETATM   17  N   UNL     1     -40.490  53.863 -50.502  1.00  0.00    -0.327 N 
HETATM   18  H   UNL     1     -39.714  53.960 -49.853  1.00  0.00     0.169 HD
HETATM   19  O   UNL     1     -41.391  55.466 -49.233  1.00  0.00    -0.273 OA
BRANCH  17  20
HETATM   20  C   UNL     1     -40.271  52.946 -51.546  1.00  0.00     0.034 A 
HETATM   21  C   UNL     1     -40.358  53.234 -52.907  1.00  0.00     0.030 A 
HETATM   22  C   UNL     1     -40.104  52.240 -53.863  1.00  0.00     0.009 A 
HETATM   23  C   UNL     1     -39.761  50.943 -53.473  1.00  0.00    -0.062 A 
HETATM   24  C   UNL     1     -39.464  49.882 -54.492  1.00  0.00     0.048 C 
HETATM   25  C   UNL     1     -39.644  50.659 -52.112  1.00  0.00     0.009 A 
HETATM   26  C   UNL     1     -39.891  51.653 -51.161  1.00  0.00     0.030 A 
ENDBRANCH  17  20
ENDBRANCH  15  16
ENDBRANCH   1  15
TORSDOF 3
ENDMDL
MODEL 3
REMARK VINA RESULT:      -7.6      3.091      5.105
REMARK  3 active torsions:
REMARK  status: ('A' for Active; 'I' for Inactive)
REMARK    1  A    between atoms: C_5  and  N_6 
REMARK       I    between atoms: N_6  and  C_7 
REMARK    2  A    between atoms: C_7  and  C_8 
REMARK    3  A    between atoms: C_8  and  C_9 
ROOT
HETATM    1  C   UNL     1     -43.171  55.892 -52.903  1.00  0.00     0.286 C 
HETATM    2  N   UNL     1     -41.832  56.481 -52.459  1.00  0.00    -0.056 N 
HETATM    3  H   UNL     1     -41.292  55.697 -52.036  1.00  0.00     0.278 HD
HETATM    4  H   UNL     1     -41.290  56.798 -53.273  1.00  0.00     0.278 HD
HETATM    5  C   UNL     1     -42.042  57.585 -51.469  1.00  0.00     0.209 C 
HETATM    6  C   UNL     1     -42.862  58.701 -52.158  1.00  0.00     0.115 C 
HETATM    7  N   UNL     1     -44.087  58.196 -52.772  1.00  0.00    -0.353 N 
HETATM    8  C   UNL     1     -44.130  56.981 -53.429  1.00  0.00     0.249 C 
HETATM    9  O   UNL     1     -44.948  56.784 -54.318  1.00  0.00    -0.271 OA
HETATM   10  C   UNL     1     -40.707  58.116 -50.969  1.00  0.00     0.035 C 
HETATM   11  C   UNL     1     -40.942  59.263 -49.983  1.00  0.00     0.002 C 
HETATM   12  C   UNL     1     -41.828  60.364 -50.570  1.00  0.00     0.002 C 
HETATM   13  C   UNL     1     -43.135  59.824 -51.157  1.00  0.00     0.027 C 
HETATM   14  H   UNL     1     -44.726  58.877 -53.181  1.00  0.00     0.163 HD
ENDROOT
BRANCH   1  15
HETATM   15  C   UNL     1     -42.968  54.758 -53.914  1.00  0.00     0.146 C 
BRANCH  15  16
HETATM   16  C   UNL     1     -41.687  54.983 -54.675  1.00  0.00     0.224 C 
HETATM   17  N   UNL     1     -40.570  54.244 -54.467  1.00  0.00    -0.327 N 
HETATM   18  H   UNL     1     -39.769  54.621 -54.968  1.00  0.00     0.169 HD
HETATM   19  O   UNL     1     -41.656  55.886 -55.524  1.00  0.00    -0.273 OA
BRANCH  17  20
HETATM   20  C   UNL     1     -40.294  53.098 -53.699  1.00  0.00     0.034 A 
HETATM   21  C   UNL     1     -40.078  51.817 -54.206  1.00  0.00     0.030 A 
HETATM   22  C   UNL     1     -39.798  50.748 -53.344  1.00  0.00     0.009 A 
HETATM   23  C   UNL     1     -39.730  50.942 -51.962  1.00  0.00    -0.062 A 
HETATM   24  C   UNL     1     -39.405  49.806 -51.036  1.00  0.00     0.048 C 
HETATM   25  C   UNL     1     -39.916  52.228 -51.453  1.00  0.00     0.009 A 
HETATM   26  C   UNL     1     -40.189  53.293 -52.315  1.00  0.00     0.030 A 
ENDBRANCH  17  20
ENDBRANCH  15  16
ENDBRANCH   1  15
TORSDOF 3
ENDMDL
MODEL 4
REMARK VINA RESULT:      -7.5      3.543      4.804
REMARK  3 active torsions:
REMARK  status: ('A' for Active; 'I' for Inactive)
REMARK    1  A    between atoms: C_5  and  N_6 
REMARK       I    between atoms: N_6  and  C_7 
REMARK    2  A    between atoms: C_7  and  C_8 
REMARK    3  A    between atoms: C_8  and  C_9 
ROOT
HETATM    1  C   UNL     1     -43.256  55.692 -51.088  1.00  0.00     0.286 C 
HETATM    2  N   UNL     1     -42.365  56.869 -50.689  1.00  0.00    -0.056 N 
HETATM    3  H   UNL     1     -42.465  56.977 -49.659  1.00  0.00     0.278 HD
HETATM    4  H   UNL     1     -41.376  56.646 -50.862  1.00  0.00     0.278 HD
HETATM    5  C   UNL     1     -42.785  58.116 -51.404  1.00  0.00     0.209 C 
HETATM    6  C   UNL     1     -42.628  57.878 -52.924  1.00  0.00     0.115 C 
HETATM    7  N   UNL     1     -43.307  56.664 -53.373  1.00  0.00    -0.353 N 
HETATM    8  C   UNL     1     -43.307  55.506 -52.620  1.00  0.00     0.249 C 
HETATM    9  O   UNL     1     -43.427  54.414 -53.160  1.00  0.00    -0.271 OA
HETATM   10  C   UNL     1     -41.949  59.302 -50.947  1.00  0.00     0.035 C 
HETATM   11  C   UNL     1     -42.372  60.560 -51.710  1.00  0.00     0.002 C 
HETATM   12  C   UNL     1     -42.330  60.363 -53.227  1.00  0.00     0.002 C 
HETATM   13  C   UNL     1     -43.095  59.119 -53.686  1.00  0.00     0.027 C 
HETATM   14  H   UNL     1     -43.320  56.473 -54.374  1.00  0.00     0.163 HD
ENDROOT
BRANCH   1  15
HETATM   15  C   UNL     1     -42.837  54.410 -50.360  1.00  0.00     0.146 C 
BRANCH  15  16
HETATM   16  C   UNL     1     -41.434  54.564 -49.831  1.00  0.00     0.224 C 
HETATM   17  N   UNL     1     -40.382  53.867 -50.325  1.00  0.00    -0.327 N 
HETATM   18  H   UNL     1     -39.545  53.997 -49.762  1.00  0.00     0.169 HD
HETATM   19  O   UNL     1     -41.239  55.361 -48.902  1.00  0.00    -0.273 OA
BRANCH  17  20
HETATM   20  C   UNL     1     -40.222  53.001 -51.423  1.00  0.00     0.034 A 
HETATM   21  C   UNL     1     -40.351  53.362 -52.763  1.00  0.00     0.030 A 
HETATM   22  C   UNL     1     -40.155  52.414 -53.778  1.00  0.00     0.009 A 
HETATM   23  C   UNL     1     -39.828  51.092 -53.468  1.00  0.00    -0.062 A 
HETATM   24  C   UNL     1     -39.593  50.079 -54.551  1.00  0.00     0.048 C 
HETATM   25  C   UNL     1     -39.669  50.734 -52.129  1.00  0.00     0.009 A 
HETATM   26  C   UNL     1     -39.859  51.681 -51.120  1.00  0.00     0.030 A 
ENDBRANCH  17  20
ENDBRANCH  15  16
ENDBRANCH   1  15
TORSDOF 3
ENDMDL
MODEL 5
REMARK VINA RESULT:      -7.5      2.109      6.556
REMARK  3 active torsions:
REMARK  status: ('A' for Active; 'I' for Inactive)
REMARK    1  A    between atoms: C_5  and  N_6 
REMARK       I    between atoms: N_6  and  C_7 
REMARK    2  A    between atoms: C_7  and  C_8 
REMARK    3  A    between atoms: C_8  and  C_9 
ROOT
HETATM    1  C   UNL     1     -43.012  54.678 -54.088  1.00  0.00     0.286 C 
HETATM    2  N   UNL     1     -41.832  53.920 -54.695  1.00  0.00    -0.056 N 
HETATM    3  H   UNL     1     -42.182  53.487 -55.575  1.00  0.00     0.278 HD
HETATM    4  H   UNL     1     -41.088  54.573 -54.970  1.00  0.00     0.278 HD
HETATM    5  C   UNL     1     -41.330  52.876 -53.745  1.00  0.00     0.209 C 
HETATM    6  C   UNL     1     -40.845  53.586 -52.459  1.00  0.00     0.115 C 
HETATM    7  N   UNL     1     -41.857  54.479 -51.899  1.00  0.00    -0.353 N 
HETATM    8  C   UNL     1     -42.668  55.260 -52.700  1.00  0.00     0.249 C 
HETATM    9  O   UNL     1     -43.138  56.307 -52.275  1.00  0.00    -0.271 OA
HETATM   10  C   UNL     1     -40.207  52.070 -54.381  1.00  0.00     0.035 C 
HETATM   11  C   UNL     1     -39.687  51.030 -53.386  1.00  0.00     0.002 C 
HETATM   12  C   UNL     1     -39.276  51.656 -52.051  1.00  0.00     0.002 C 
HETATM   13  C   UNL     1     -40.370  52.542 -51.448  1.00  0.00     0.027 C 
HETATM   14  H   UNL     1     -41.649  54.928 -51.008  1.00  0.00     0.163 HD
ENDROOT
BRANCH   1  15
HETATM   15  C   UNL     1     -43.537  55.748 -55.052  1.00  0.00     0.146 C 
BRANCH  15  16
HETATM   16  C   UNL     1     -42.396  56.294 -55.870  1.00  0.00     0.224 C 
HETATM   17  N   UNL     1     -42.462  56.444 -57.215  1.00  0.00    -0.327 N 
HETATM   18  H   UNL     1     -41.560  56.696 -57.612  1.00  0.00     0.169 HD
HETATM   19  O   UNL     1     -41.351  56.615 -55.285  1.00  0.00    -0.273 OA
BRANCH  17  20
HETATM   20  C   UNL     1     -43.498  56.305 -58.157  1.00  0.00     0.034 A 
HETATM   21  C   UNL     1     -43.698  55.199 -58.983  1.00  0.00     0.030 A 
HETATM   22  C   UNL     1     -44.776  55.164 -59.878  1.00  0.00     0.009 A 
HETATM   23  C   UNL     1     -45.670  56.233 -59.963  1.00  0.00    -0.062 A 
HETATM   24  C   UNL     1     -46.840  56.191 -60.902  1.00  0.00     0.048 C 
HETATM   25  C   UNL     1     -45.491  57.329 -59.118  1.00  0.00     0.009 A 
HETATM   26  C   UNL     1     -44.419  57.359 -58.222  1.00  0.00     0.030 A 
ENDBRANCH  17  20
ENDBRANCH  15  16
ENDBRANCH   1  15
TORSDOF 3
ENDMDL
MODEL 6
REMARK VINA RESULT:      -7.4      1.673      2.459
REMARK  3 active torsions:
REMARK  status: ('A' for Active; 'I' for Inactive)
REMARK    1  A    between atoms: C_5  and  N_6 
REMARK       I    between atoms: N_6  and  C_7 
REMARK    2  A    between atoms: C_7  and  C_8 
REMARK    3  A    between atoms: C_8  and  C_9 
ROOT
HETATM    1  C   UNL     1     -43.593  56.234 -53.532  1.00  0.00     0.286 C 
HETATM    2  N   UNL     1     -42.591  57.380 -53.676  1.00  0.00    -0.056 N 
HETATM    3  H   UNL     1     -42.705  57.977 -52.831  1.00  0.00     0.278 HD
HETATM    4  H   UNL     1     -41.629  57.022 -53.650  1.00  0.00     0.278 HD
HETATM    5  C   UNL     1     -42.859  58.161 -54.926  1.00  0.00     0.209 C 
HETATM    6  C   UNL     1     -42.691  57.211 -56.134  1.00  0.00     0.115 C 
HETATM    7  N   UNL     1     -43.483  55.991 -56.001  1.00  0.00    -0.353 N 
HETATM    8  C   UNL     1     -43.626  55.340 -54.790  1.00  0.00     0.249 C 
HETATM    9  O   UNL     1     -43.849  54.137 -54.754  1.00  0.00    -0.271 OA
HETATM   10  C   UNL     1     -41.912  59.348 -55.027  1.00  0.00     0.035 C 
HETATM   11  C   UNL     1     -42.180  60.115 -56.324  1.00  0.00     0.002 C 
HETATM   12  C   UNL     1     -42.121  59.212 -57.559  1.00  0.00     0.002 C 
HETATM   13  C   UNL     1     -43.004  57.967 -57.426  1.00  0.00     0.027 C 
HETATM   14  H   UNL     1     -43.492  55.345 -56.789  1.00  0.00     0.163 HD
ENDROOT
BRANCH   1  15
HETATM   15  C   UNL     1     -43.331  55.429 -52.254  1.00  0.00     0.146 C 
BRANCH  15  16
HETATM   16  C   UNL     1     -42.012  55.844 -51.656  1.00  0.00     0.224 C 
HETATM   17  N   UNL     1     -40.893  55.086 -51.747  1.00  0.00    -0.327 N 
HETATM   18  H   UNL     1     -40.138  55.456 -51.174  1.00  0.00     0.169 HD
HETATM   19  O   UNL     1     -41.953  56.925 -51.050  1.00  0.00    -0.273 OA
BRANCH  17  20
HETATM   20  C   UNL     1     -40.575  53.905 -52.444  1.00  0.00     0.034 A 
HETATM   21  C   UNL     1     -40.583  53.757 -53.830  1.00  0.00     0.030 A 
HETATM   22  C   UNL     1     -40.235  52.532 -54.417  1.00  0.00     0.009 A 
HETATM   23  C   UNL     1     -39.875  51.437 -53.628  1.00  0.00    -0.062 A 
HETATM   24  C   UNL     1     -39.477  50.131 -54.251  1.00  0.00     0.048 C 
HETATM   25  C   UNL     1     -39.837  51.591 -52.241  1.00  0.00     0.009 A 
HETATM   26  C   UNL     1     -40.179  52.814 -51.659  1.00  0.00     0.030 A 
ENDBRANCH  17  20
ENDBRANCH  15  16
ENDBRANCH   1  15
TORSDOF 3
ENDMDL
MODEL 7
REMARK VINA RESULT:      -7.2      1.927      3.059
REMARK  3 active torsions:
REMARK  status: ('A' for Active; 'I' for Inactive)
REMARK    1  A    between atoms: C_5  and  N_6 
REMARK       I    between atoms: N_6  and  C_7 
REMARK    2  A    between atoms: C_7  and  C_8 
REMARK    3  A    between atoms: C_8  and  C_9 
ROOT
HETATM    1  C   UNL     1     -42.751  56.908 -56.621  1.00  0.00     0.286 C 
HETATM    2  N   UNL     1     -43.490  55.676 -57.141  1.00  0.00    -0.056 N 
HETATM    3  H   UNL     1     -42.890  54.856 -56.913  1.00  0.00     0.278 HD
HETATM    4  H   UNL     1     -44.370  55.541 -56.628  1.00  0.00     0.278 HD
HETATM    5  C   UNL     1     -43.719  55.780 -58.617  1.00  0.00     0.209 C 
HETATM    6  C   UNL     1     -44.599  57.025 -58.882  1.00  0.00     0.115 C 
HETATM    7  N   UNL     1     -44.058  58.234 -58.265  1.00  0.00    -0.353 N 
HETATM    8  C   UNL     1     -43.470  58.217 -57.015  1.00  0.00     0.249 C 
HETATM    9  O   UNL     1     -43.465  59.223 -56.317  1.00  0.00    -0.271 OA
HETATM   10  C   UNL     1     -44.384  54.518 -59.146  1.00  0.00     0.035 C 
HETATM   11  C   UNL     1     -44.638  54.657 -60.649  1.00  0.00     0.002 C 
HETATM   12  C   UNL     1     -45.428  55.923 -60.993  1.00  0.00     0.002 C 
HETATM   13  C   UNL     1     -44.813  57.188 -60.387  1.00  0.00     0.027 C 
HETATM   14  H   UNL     1     -44.533  59.115 -58.455  1.00  0.00     0.163 HD
ENDROOT
BRANCH   1  15
HETATM   15  C   UNL     1     -42.507  56.811 -55.111  1.00  0.00     0.146 C 
BRANCH  15  16
HETATM   16  C   UNL     1     -43.687  56.146 -54.451  1.00  0.00     0.224 C 
HETATM   17  N   UNL     1     -43.596  54.952 -53.817  1.00  0.00    -0.327 N 
HETATM   18  H   UNL     1     -44.511  54.595 -53.551  1.00  0.00     0.169 HD
HETATM   19  O   UNL     1     -44.787  56.716 -54.496  1.00  0.00    -0.273 OA
BRANCH  17  20
HETATM   20  C   UNL     1     -42.518  54.113 -53.476  1.00  0.00     0.034 A 
HETATM   21  C   UNL     1     -41.788  53.331 -54.370  1.00  0.00     0.030 A 
HETATM   22  C   UNL     1     -40.722  52.541 -53.918  1.00  0.00     0.009 A 
HETATM   23  C   UNL     1     -40.370  52.519 -52.567  1.00  0.00    -0.062 A 
HETATM   24  C   UNL     1     -39.213  51.695 -52.081  1.00  0.00     0.048 C 
HETATM   25  C   UNL     1     -41.079  53.323 -51.674  1.00  0.00     0.009 A 
HETATM   26  C   UNL     1     -42.138  54.115 -52.127  1.00  0.00     0.030 A 
ENDBRANCH  17  20
ENDBRANCH  15  16
ENDBRANCH   1  15
TORSDOF 3
ENDMDL
MODEL 8
REMARK VINA RESULT:      -7.2      1.574      2.359
REMARK  3 active torsions:
REMARK  status: ('A' for Active; 'I' for Inactive)
REMARK    1  A    between atoms: C_5  and  N_6 
REMARK       I    between atoms: N_6  and  C_7 
REMARK    2  A    between atoms: C_7  and  C_8 
REMARK    3  A    between atoms: C_8  and  C_9 
ROOT
HETATM    1  C   UNL     1     -43.021  56.510 -54.612  1.00  0.00     0.286 C 
HETATM    2  N   UNL     1     -43.235  55.589 -55.813  1.00  0.00    -0.056 N 
HETATM    3  H   UNL     1     -42.535  54.825 -55.725  1.00  0.00     0.278 HD
HETATM    4  H   UNL     1     -44.159  55.142 -55.764  1.00  0.00     0.278 HD
HETATM    5  C   UNL     1     -43.051  56.342 -57.095  1.00  0.00     0.209 C 
HETATM    6  C   UNL     1     -44.109  57.469 -57.149  1.00  0.00     0.115 C 
HETATM    7  N   UNL     1     -44.100  58.303 -55.949  1.00  0.00    -0.353 N 
HETATM    8  C   UNL     1     -43.911  57.770 -54.689  1.00  0.00     0.249 C 
HETATM    9  O   UNL     1     -44.367  58.332 -53.701  1.00  0.00    -0.271 OA
HETATM   10  C   UNL     1     -43.186  55.407 -58.288  1.00  0.00     0.035 C 
HETATM   11  C   UNL     1     -43.026  56.200 -59.588  1.00  0.00     0.002 C 
HETATM   12  C   UNL     1     -43.984  57.391 -59.666  1.00  0.00     0.002 C 
HETATM   13  C   UNL     1     -43.918  58.288 -58.426  1.00  0.00     0.027 C 
HETATM   14  H   UNL     1     -44.712  59.117 -55.935  1.00  0.00     0.163 HD
ENDROOT
BRANCH   1  15
HETATM   15  C   UNL     1     -43.204  55.750 -53.293  1.00  0.00     0.146 C 
BRANCH  15  16
HETATM   16  C   UNL     1     -42.049  56.051 -52.373  1.00  0.00     0.224 C 
HETATM   17  N   UNL     1     -41.031  55.182 -52.163  1.00  0.00    -0.327 N 
HETATM   18  H   UNL     1     -40.417  55.494 -51.415  1.00  0.00     0.169 HD
HETATM   19  O   UNL     1     -42.036  57.140 -51.780  1.00  0.00    -0.273 OA
BRANCH  17  20
HETATM   20  C   UNL     1     -40.670  53.952 -52.743  1.00  0.00     0.034 A 
HETATM   21  C   UNL     1     -40.641  53.681 -54.111  1.00  0.00     0.030 A 
HETATM   22  C   UNL     1     -40.252  52.417 -54.578  1.00  0.00     0.009 A 
HETATM   23  C   UNL     1     -39.886  51.406 -53.686  1.00  0.00    -0.062 A 
HETATM   24  C   UNL     1     -39.445  50.060 -54.181  1.00  0.00     0.048 C 
HETATM   25  C   UNL     1     -39.886  51.683 -52.318  1.00  0.00     0.009 A 
HETATM   26  C   UNL     1     -40.269  52.945 -51.855  1.00  0.00     0.030 A 
ENDBRANCH  17  20
ENDBRANCH  15  16
ENDBRANCH   1  15
TORSDOF 3
ENDMDL
MODEL 9
REMARK VINA RESULT:      -7.0      3.025      5.743
REMARK  3 active torsions:
REMARK  status: ('A' for Active; 'I' for Inactive)
REMARK    1  A    between atoms: C_5  and  N_6 
REMARK       I    between atoms: N_6  and  C_7 
REMARK    2  A    between atoms: C_7  and  C_8 
REMARK    3  A    between atoms: C_8  and  C_9 
ROOT
HETATM    1  C   UNL     1     -43.070  58.748 -53.591  1.00  0.00     0.286 C 
HETATM    2  N   UNL     1     -43.997  58.460 -52.410  1.00  0.00    -0.056 N 
HETATM    3  H   UNL     1     -44.872  58.066 -52.814  1.00  0.00     0.278 HD
HETATM    4  H   UNL     1     -43.599  57.725 -51.812  1.00  0.00     0.278 HD
HETATM    5  C   UNL     1     -44.276  59.713 -51.639  1.00  0.00     0.209 C 
HETATM    6  C   UNL     1     -42.935  60.249 -51.086  1.00  0.00     0.115 C 
HETATM    7  N   UNL     1     -41.919  60.391 -52.127  1.00  0.00    -0.353 N 
HETATM    8  C   UNL     1     -41.778  59.466 -53.144  1.00  0.00     0.249 C 
HETATM    9  O   UNL     1     -40.696  59.307 -53.694  1.00  0.00    -0.271 OA
HETATM   10  C   UNL     1     -45.261  59.438 -50.512  1.00  0.00     0.035 C 
HETATM   11  C   UNL     1     -45.510  60.723 -49.717  1.00  0.00     0.002 C 
HETATM   12  C   UNL     1     -44.211  61.360 -49.217  1.00  0.00     0.002 C 
HETATM   13  C   UNL     1     -43.179  61.556 -50.332  1.00  0.00     0.027 C 
HETATM   14  H   UNL     1     -41.029  60.812 -51.864  1.00  0.00     0.163 HD
ENDROOT
BRANCH   1  15
HETATM   15  C   UNL     1     -42.779  57.474 -54.391  1.00  0.00     0.146 C 
BRANCH  15  16
HETATM   16  C   UNL     1     -43.965  56.546 -54.312  1.00  0.00     0.224 C 
HETATM   17  N   UNL     1     -43.851  55.236 -53.987  1.00  0.00    -0.327 N 
HETATM   18  H   UNL     1     -44.729  54.738 -54.114  1.00  0.00     0.169 HD
HETATM   19  O   UNL     1     -45.090  57.005 -54.560  1.00  0.00    -0.273 OA
BRANCH  17  20
HETATM   20  C   UNL     1     -42.783  54.436 -53.539  1.00  0.00     0.034 A 
HETATM   21  C   UNL     1     -42.384  54.291 -52.211  1.00  0.00     0.030 A 
HETATM   22  C   UNL     1     -41.309  53.454 -51.878  1.00  0.00     0.009 A 
HETATM   23  C   UNL     1     -40.618  52.750 -52.867  1.00  0.00    -0.062 A 
HETATM   24  C   UNL     1     -39.483  51.833 -52.514  1.00  0.00     0.048 C 
HETATM   25  C   UNL     1     -41.034  52.869 -54.193  1.00  0.00     0.009 A 
HETATM   26  C   UNL     1     -42.109  53.700 -54.522  1.00  0.00     0.030 A 
ENDBRANCH  17  20
ENDBRANCH  15  16
ENDBRANCH   1  15
TORSDOF 3
ENDMDL
MODEL 10
REMARK VINA RESULT:      -6.9      1.656      2.731
REMARK  3 active torsions:
REMARK  status: ('A' for Active; 'I' for Inactive)
REMARK    1  A    between atoms: C_5  and  N_6 
REMARK       I    between atoms: N_6  and  C_7 
REMARK    2  A    between atoms: C_7  and  C_8 
REMARK    3  A    between atoms: C_8  and  C_9 
ROOT
HETATM    1  C   UNL     1     -42.349  57.664 -55.561  1.00  0.00     0.286 C 
HETATM    2  N   UNL     1     -43.439  57.133 -56.492  1.00  0.00    -0.056 N 
HETATM    3  H   UNL     1     -43.531  56.117 -56.287  1.00  0.00     0.278 HD
HETATM    4  H   UNL     1     -44.346  57.558 -56.262  1.00  0.00     0.278 HD
HETATM    5  C   UNL     1     -43.066  57.362 -57.925  1.00  0.00     0.209 C 
HETATM    6  C   UNL     1     -42.930  58.886 -58.151  1.00  0.00     0.115 C 
HETATM    7  N   UNL     1     -42.034  59.517 -57.184  1.00  0.00    -0.353 N 
HETATM    8  C   UNL     1     -42.013  59.142 -55.854  1.00  0.00     0.249 C 
HETATM    9  O   UNL     1     -41.663  59.936 -54.990  1.00  0.00    -0.271 OA
HETATM   10  C   UNL     1     -44.115  56.763 -58.851  1.00  0.00     0.035 C 
HETATM   11  C   UNL     1     -43.733  57.034 -60.309  1.00  0.00     0.002 C 
HETATM   12  C   UNL     1     -43.490  58.520 -60.582  1.00  0.00     0.002 C 
HETATM   13  C   UNL     1     -42.504  59.151 -59.595  1.00  0.00     0.027 C 
HETATM   14  H   UNL     1     -41.826  60.506 -57.308  1.00  0.00     0.163 HD
ENDROOT
BRANCH   1  15
HETATM   15  C   UNL     1     -42.717  57.433 -54.091  1.00  0.00     0.146 C 
BRANCH  15  16
HETATM   16  C   UNL     1     -43.900  56.503 -54.006  1.00  0.00     0.224 C 
HETATM   17  N   UNL     1     -43.775  55.176 -53.762  1.00  0.00    -0.327 N 
HETATM   18  H   UNL     1     -44.659  54.686 -53.874  1.00  0.00     0.169 HD
HETATM   19  O   UNL     1     -45.034  56.975 -54.173  1.00  0.00    -0.273 OA
BRANCH  17  20
HETATM   20  C   UNL     1     -42.689  54.352 -53.412  1.00  0.00     0.034 A 
HETATM   21  C   UNL     1     -42.224  54.134 -52.116  1.00  0.00     0.030 A 
HETATM   22  C   UNL     1     -41.137  53.279 -51.884  1.00  0.00     0.009 A 
HETATM   23  C   UNL     1     -40.500  52.629 -52.942  1.00  0.00    -0.062 A 
HETATM   24  C   UNL     1     -39.352  51.693 -52.698  1.00  0.00     0.048 C 
HETATM   25  C   UNL     1     -40.981  52.821 -54.238  1.00  0.00     0.009 A 
HETATM   26  C   UNL     1     -42.068  53.669 -54.467  1.00  0.00     0.030 A 
ENDBRANCH  17  20
ENDBRANCH  15  16
ENDBRANCH   1  15
TORSDOF 3
ENDMDL
