MODEL 1
REMARK VINA RESULT:      -8.1      0.000      0.000
REMARK  5 active torsions:
REMARK  status: ('A' for Active; 'I' for Inactive)
REMARK    1  A    between atoms: C_9  and  C_10 
REMARK    2  A    between atoms: C_10  and  N_11 
REMARK    3  A    between atoms: N_11  and  C_14 
REMARK    4  A    between atoms: C_14  and  C_15 
REMARK    5  A    between atoms: C_16  and  C_17 
ROOT
HETATM    1  C   UNL     1     -40.434  53.379 -54.179  1.00  0.00    -0.036 A 
HETATM    2  C   UNL     1     -40.110  52.090 -54.615  1.00  0.00     0.013 A 
HETATM    3  C   UNL     1     -39.797  51.092 -53.688  1.00  0.00     0.023 A 
HETATM    4  C   UNL     1     -39.800  51.379 -52.319  1.00  0.00     0.044 A 
HETATM    5  C   UNL     1     -39.484  50.352 -51.369  1.00  0.00     0.099 C 
HETATM    6  N   UNL     1     -39.231  49.518 -50.603  1.00  0.00    -0.191 NA
HETATM    7  C   UNL     1     -40.117  52.669 -51.883  1.00  0.00     0.023 A 
HETATM    8  C   UNL     1     -40.434  53.666 -52.810  1.00  0.00     0.013 A 
ENDROOT
BRANCH   1   9
HETATM    9  C   UNL     1     -40.781  54.409 -55.159  1.00  0.00     0.009 C 
HETATM   10  C   UNL     1     -41.850  55.202 -54.978  1.00  0.00     0.001 C 
BRANCH  10  11
HETATM   11  C   UNL     1     -42.270  56.269 -55.930  1.00  0.00     0.259 C 
BRANCH  11  12
HETATM   12  N   UNL     1     -42.558  57.531 -55.197  1.00  0.00    -0.071 N 
HETATM   13  H   UNL     1     -43.528  57.466 -54.848  1.00  0.00     0.277 HD
HETATM   14  H   UNL     1     -42.560  58.300 -55.882  1.00  0.00     0.277 HD
BRANCH  12  15
HETATM   15  C   UNL     1     -41.600  57.841 -54.088  1.00  0.00     0.242 C 
BRANCH  15  16
HETATM   16  C   UNL     1     -42.293  58.234 -52.760  1.00  0.00     0.055 C 
HETATM   17  C   UNL     1     -42.408  57.069 -51.798  1.00  0.00    -0.025 A 
HETATM   18  C   UNL     1     -43.423  56.115 -51.937  1.00  0.00     0.010 A 
HETATM   19  C   UNL     1     -41.462  56.916 -50.771  1.00  0.00     0.041 A 
HETATM   20  C   UNL     1     -43.479  55.026 -51.067  1.00  0.00     0.001 A 
HETATM   21  C   UNL     1     -42.525  54.878 -50.059  1.00  0.00     0.002 A 
HETATM   22  C   UNL     1     -41.509  55.821 -49.912  1.00  0.00     0.030 A 
HETATM   23  N   UNL     1     -40.411  57.833 -50.662  1.00  0.00    -0.327 N 
HETATM   24  C   UNL     1     -40.333  58.969 -51.419  1.00  0.00     0.222 C 
HETATM   25  H   UNL     1     -39.616  57.624 -50.064  1.00  0.00     0.169 HD
HETATM   26  O   UNL     1     -39.262  59.518 -51.654  1.00  0.00    -0.273 OA
HETATM   27  C   UNL     1     -41.619  59.414 -52.064  1.00  0.00     0.114 C 
ENDBRANCH  15  16
ENDBRANCH  12  15
ENDBRANCH  11  12
ENDBRANCH  10  11
ENDBRANCH   1   9
TORSDOF 5
ENDMDL
MODEL 2
REMARK VINA RESULT:      -7.8      2.003      3.752
REMARK  5 active torsions:
REMARK  status: ('A' for Active; 'I' for Inactive)
REMARK    1  A    between atoms: C_9  and  C_10 
REMARK    2  A    between atoms: C_10  and  N_11 
REMARK    3  A    between atoms: N_11  and  C_14 
REMARK    4  A    between atoms: C_14  and  C_15 
REMARK    5  A    between atoms: C_16  and  C_17 
ROOT
HETATM    1  C   UNL     1     -40.623  53.908 -51.615  1.00  0.00    -0.036 A 
HETATM    2  C   UNL     1     -40.217  52.745 -50.950  1.00  0.00     0.013 A 
HETATM    3  C   UNL     1     -39.864  51.606 -51.678  1.00  0.00     0.023 A 
HETATM    4  C   UNL     1     -39.919  51.619 -53.075  1.00  0.00     0.044 A 
HETATM    5  C   UNL     1     -39.551  50.451 -53.821  1.00  0.00     0.099 C 
HETATM    6  N   UNL     1     -39.249  49.505 -54.420  1.00  0.00    -0.191 NA
HETATM    7  C   UNL     1     -40.330  52.778 -53.741  1.00  0.00     0.023 A 
HETATM    8  C   UNL     1     -40.681  53.920 -53.013  1.00  0.00     0.013 A 
ENDROOT
BRANCH   1   9
HETATM    9  C   UNL     1     -40.969  55.101 -50.843  1.00  0.00     0.009 C 
HETATM   10  C   UNL     1     -40.829  56.329 -51.367  1.00  0.00     0.001 C 
BRANCH  10  11
HETATM   11  C   UNL     1     -41.155  57.591 -50.645  1.00  0.00     0.259 C 
BRANCH  11  12
HETATM   12  N   UNL     1     -41.662  58.615 -51.597  1.00  0.00    -0.071 N 
HETATM   13  H   UNL     1     -41.263  59.523 -51.308  1.00  0.00     0.277 HD
HETATM   14  H   UNL     1     -42.679  58.701 -51.455  1.00  0.00     0.277 HD
BRANCH  12  15
HETATM   15  C   UNL     1     -41.373  58.327 -53.037  1.00  0.00     0.242 C 
BRANCH  15  16
HETATM   16  C   UNL     1     -42.641  58.245 -53.922  1.00  0.00     0.055 C 
HETATM   17  C   UNL     1     -42.837  56.872 -54.532  1.00  0.00    -0.025 A 
HETATM   18  C   UNL     1     -42.128  56.481 -55.674  1.00  0.00     0.010 A 
HETATM   19  C   UNL     1     -43.713  55.957 -53.925  1.00  0.00     0.041 A 
HETATM   20  C   UNL     1     -42.291  55.195 -56.189  1.00  0.00     0.001 A 
HETATM   21  C   UNL     1     -43.154  54.291 -55.569  1.00  0.00     0.002 A 
HETATM   22  C   UNL     1     -43.864  54.669 -54.431  1.00  0.00     0.030 A 
HETATM   23  N   UNL     1     -44.380  56.321 -52.750  1.00  0.00    -0.327 N 
HETATM   24  C   UNL     1     -44.340  57.585 -52.232  1.00  0.00     0.222 C 
HETATM   25  H   UNL     1     -44.849  55.611 -52.195  1.00  0.00     0.169 HD
HETATM   26  O   UNL     1     -44.524  57.801 -51.039  1.00  0.00    -0.273 OA
HETATM   27  C   UNL     1     -43.908  58.669 -53.184  1.00  0.00     0.114 C 
ENDBRANCH  15  16
ENDBRANCH  12  15
ENDBRANCH  11  12
ENDBRANCH  10  11
ENDBRANCH   1   9
TORSDOF 5
ENDMDL
MODEL 3
REMARK VINA RESULT:      -7.3      1.882      2.596
REMARK  5 active torsions:
REMARK  status: ('A' for Active; 'I' for Inactive)
REMARK    1  A    between atoms: C_9  and  C_10 
REMARK    2  A    between atoms: C_10  and  N_11 
REMARK    3  A    between atoms: N_11  and  C_14 
REMARK    4  A    between atoms: C_14  and  C_15 
REMARK    5  A    between atoms: C_16  and  C_17 
ROOT
HETATM    1  C   UNL     1     -40.675  53.852 -53.791  1.00  0.00    -0.036 A 
HETATM    2  C   UNL     1     -40.297  52.654 -54.408  1.00  0.00     0.013 A 
HETATM    3  C   UNL     1     -39.895  51.561 -53.635  1.00  0.00     0.023 A 
HETATM    4  C   UNL     1     -39.862  51.661 -52.240  1.00  0.00     0.044 A 
HETATM    5  C   UNL     1     -39.454  50.537 -51.448  1.00  0.00     0.099 C 
HETATM    6  N   UNL     1     -39.127  49.625 -50.812  1.00  0.00    -0.191 NA
HETATM    7  C   UNL     1     -40.233  52.860 -51.623  1.00  0.00     0.023 A 
HETATM    8  C   UNL     1     -40.639  53.952 -52.396  1.00  0.00     0.013 A 
ENDROOT
BRANCH   1   9
HETATM    9  C   UNL     1     -41.116  54.981 -54.611  1.00  0.00     0.009 C 
HETATM   10  C   UNL     1     -42.073  54.829 -55.540  1.00  0.00     0.001 C 
BRANCH  10  11
HETATM   11  C   UNL     1     -42.572  55.927 -56.415  1.00  0.00     0.259 C 
BRANCH  11  12
HETATM   12  N   UNL     1     -43.921  56.369 -55.970  1.00  0.00    -0.071 N 
HETATM   13  H   UNL     1     -43.964  56.233 -54.947  1.00  0.00     0.277 HD
HETATM   14  H   UNL     1     -44.613  55.716 -56.366  1.00  0.00     0.277 HD
BRANCH  12  15
HETATM   15  C   UNL     1     -44.275  57.774 -56.348  1.00  0.00     0.242 C 
BRANCH  15  16
HETATM   16  C   UNL     1     -44.303  58.752 -55.149  1.00  0.00     0.055 C 
HETATM   17  C   UNL     1     -43.621  58.186 -53.921  1.00  0.00    -0.025 A 
HETATM   18  C   UNL     1     -44.280  57.283 -53.079  1.00  0.00     0.010 A 
HETATM   19  C   UNL     1     -42.291  58.539 -53.636  1.00  0.00     0.041 A 
HETATM   20  C   UNL     1     -43.614  56.739 -51.981  1.00  0.00     0.001 A 
HETATM   21  C   UNL     1     -42.289  57.087 -51.717  1.00  0.00     0.002 A 
HETATM   22  C   UNL     1     -41.621  57.986 -52.548  1.00  0.00     0.030 A 
HETATM   23  N   UNL     1     -41.606  59.396 -54.505  1.00  0.00    -0.327 N 
HETATM   24  C   UNL     1     -42.212  60.034 -55.551  1.00  0.00     0.222 C 
HETATM   25  H   UNL     1     -40.598  59.495 -54.428  1.00  0.00     0.169 HD
HETATM   26  O   UNL     1     -41.582  60.403 -56.536  1.00  0.00    -0.273 OA
HETATM   27  C   UNL     1     -43.714  60.120 -55.484  1.00  0.00     0.114 C 
ENDBRANCH  15  16
ENDBRANCH  12  15
ENDBRANCH  11  12
ENDBRANCH  10  11
ENDBRANCH   1   9
TORSDOF 5
ENDMDL
MODEL 4
REMARK VINA RESULT:      -7.2      3.967      7.470
REMARK  5 active torsions:
REMARK  status: ('A' for Active; 'I' for Inactive)
REMARK    1  A    between atoms: C_9  and  C_10 
REMARK    2  A    between atoms: C_10  and  N_11 
REMARK    3  A    between atoms: N_11  and  C_14 
REMARK    4  A    between atoms: C_14  and  C_15 
REMARK    5  A    between atoms: C_16  and  C_17 
ROOT
HETATM    1  C   UNL     1     -44.357  56.470 -59.008  1.00  0.00    -0.036 A 
HETATM    2  C   UNL     1     -44.563  55.398 -59.884  1.00  0.00     0.013 A 
HETATM    3  C   UNL     1     -45.662  55.397 -60.748  1.00  0.00     0.023 A 
HETATM    4  C   UNL     1     -46.565  56.465 -60.739  1.00  0.00     0.044 A 
HETATM    5  C   UNL     1     -47.688  56.465 -61.630  1.00  0.00     0.099 C 
HETATM    6  N   UNL     1     -48.593  56.462 -62.355  1.00  0.00    -0.191 NA
HETATM    7  C   UNL     1     -46.363  57.534 -59.860  1.00  0.00     0.023 A 
HETATM    8  C   UNL     1     -45.262  57.537 -58.998  1.00  0.00     0.013 A 
ENDROOT
BRANCH   1   9
HETATM    9  C   UNL     1     -43.191  56.470 -58.125  1.00  0.00     0.009 C 
HETATM   10  C   UNL     1     -43.273  56.947 -56.872  1.00  0.00     0.001 C 
BRANCH  10  11
HETATM   11  C   UNL     1     -42.132  56.985 -55.915  1.00  0.00     0.259 C 
BRANCH  11  12
HETATM   12  N   UNL     1     -41.663  55.605 -55.615  1.00  0.00    -0.071 N 
HETATM   13  H   UNL     1     -40.951  55.366 -56.324  1.00  0.00     0.277 HD
HETATM   14  H   UNL     1     -42.449  54.962 -55.783  1.00  0.00     0.277 HD
BRANCH  12  15
HETATM   15  C   UNL     1     -41.137  55.412 -54.226  1.00  0.00     0.242 C 
BRANCH  15  16
HETATM   16  C   UNL     1     -41.862  54.295 -53.436  1.00  0.00     0.055 C 
HETATM   17  C   UNL     1     -41.045  53.023 -53.346  1.00  0.00    -0.025 A 
HETATM   18  C   UNL     1     -41.002  52.114 -54.410  1.00  0.00     0.010 A 
HETATM   19  C   UNL     1     -40.283  52.763 -52.194  1.00  0.00     0.041 A 
HETATM   20  C   UNL     1     -40.204  50.973 -54.321  1.00  0.00     0.001 A 
HETATM   21  C   UNL     1     -39.442  50.733 -53.177  1.00  0.00     0.002 A 
HETATM   22  C   UNL     1     -39.476  51.631 -52.111  1.00  0.00     0.030 A 
HETATM   23  N   UNL     1     -40.274  53.695 -51.151  1.00  0.00    -0.327 N 
HETATM   24  C   UNL     1     -41.090  54.792 -51.126  1.00  0.00     0.222 C 
HETATM   25  H   UNL     1     -39.580  53.622 -50.413  1.00  0.00     0.169 HD
HETATM   26  O   UNL     1     -40.799  55.800 -50.493  1.00  0.00    -0.273 OA
HETATM   27  C   UNL     1     -42.287  54.737 -52.038  1.00  0.00     0.114 C 
ENDBRANCH  15  16
ENDBRANCH  12  15
ENDBRANCH  11  12
ENDBRANCH  10  11
ENDBRANCH   1   9
TORSDOF 5
ENDMDL
MODEL 5
REMARK VINA RESULT:      -7.1      3.917      6.536
REMARK  5 active torsions:
REMARK  status: ('A' for Active; 'I' for Inactive)
REMARK    1  A    between atoms: C_9  and  C_10 
REMARK    2  A    between atoms: C_10  and  N_11 
REMARK    3  A    between atoms: N_11  and  C_14 
REMARK    4  A    between atoms: C_14  and  C_15 
REMARK    5  A    between atoms: C_16  and  C_17 
ROOT
HETATM    1  C   UNL     1     -40.609  54.251 -53.600  1.00  0.00    -0.036 A 
HETATM    2  C   UNL     1     -40.633  54.209 -52.202  1.00  0.00     0.013 A 
HETATM    3  C   UNL     1     -40.279  53.037 -51.527  1.00  0.00     0.023 A 
HETATM    4  C   UNL     1     -39.905  51.898 -52.247  1.00  0.00     0.044 A 
HETATM    5  C   UNL     1     -39.537  50.698 -51.553  1.00  0.00     0.099 C 
HETATM    6  N   UNL     1     -39.237  49.731 -50.987  1.00  0.00    -0.191 NA
HETATM    7  C   UNL     1     -39.886  51.936 -53.644  1.00  0.00     0.023 A 
HETATM    8  C   UNL     1     -40.237  53.110 -54.319  1.00  0.00     0.013 A 
ENDROOT
BRANCH   1   9
HETATM    9  C   UNL     1     -40.960  55.490 -54.294  1.00  0.00     0.009 C 
HETATM   10  C   UNL     1     -42.106  55.595 -54.985  1.00  0.00     0.001 C 
BRANCH  10  11
HETATM   11  C   UNL     1     -42.532  56.819 -55.720  1.00  0.00     0.259 C 
BRANCH  11  12
HETATM   12  N   UNL     1     -41.825  56.910 -57.026  1.00  0.00    -0.071 N 
HETATM   13  H   UNL     1     -41.865  55.973 -57.459  1.00  0.00     0.277 HD
HETATM   14  H   UNL     1     -40.828  57.085 -56.834  1.00  0.00     0.277 HD
BRANCH  12  15
HETATM   15  C   UNL     1     -42.355  57.961 -57.952  1.00  0.00     0.242 C 
BRANCH  15  16
HETATM   16  C   UNL     1     -42.348  57.538 -59.441  1.00  0.00     0.055 C 
HETATM   17  C   UNL     1     -43.497  56.615 -59.789  1.00  0.00    -0.025 A 
HETATM   18  C   UNL     1     -43.438  55.247 -59.498  1.00  0.00     0.010 A 
HETATM   19  C   UNL     1     -44.660  57.138 -60.379  1.00  0.00     0.041 A 
HETATM   20  C   UNL     1     -44.529  54.425 -59.785  1.00  0.00     0.001 A 
HETATM   21  C   UNL     1     -45.683  54.960 -60.358  1.00  0.00     0.002 A 
HETATM   22  C   UNL     1     -45.754  56.321 -60.652  1.00  0.00     0.030 A 
HETATM   23  N   UNL     1     -44.749  58.514 -60.619  1.00  0.00    -0.327 N 
HETATM   24  C   UNL     1     -43.697  59.370 -60.445  1.00  0.00     0.222 C 
HETATM   25  H   UNL     1     -45.646  58.930 -60.850  1.00  0.00     0.169 HD
HETATM   26  O   UNL     1     -43.864  60.563 -60.222  1.00  0.00    -0.273 OA
HETATM   27  C   UNL     1     -42.334  58.729 -60.397  1.00  0.00     0.114 C 
ENDBRANCH  15  16
ENDBRANCH  12  15
ENDBRANCH  11  12
ENDBRANCH  10  11
ENDBRANCH   1   9
TORSDOF 5
ENDMDL
MODEL 6
REMARK VINA RESULT:      -7.0      1.897      2.785
REMARK  5 active torsions:
REMARK  status: ('A' for Active; 'I' for Inactive)
REMARK    1  A    between atoms: C_9  and  C_10 
REMARK    2  A    between atoms: C_10  and  N_11 
REMARK    3  A    between atoms: N_11  and  C_14 
REMARK    4  A    between atoms: C_14  and  C_15 
REMARK    5  A    between atoms: C_16  and  C_17 
ROOT
HETATM    1  C   UNL     1     -40.575  53.652 -54.192  1.00  0.00    -0.036 A 
HETATM    2  C   UNL     1     -40.179  52.401 -54.678  1.00  0.00     0.013 A 
HETATM    3  C   UNL     1     -39.828  51.381 -53.788  1.00  0.00     0.023 A 
HETATM    4  C   UNL     1     -39.865  51.608 -52.409  1.00  0.00     0.044 A 
HETATM    5  C   UNL     1     -39.510  50.558 -51.498  1.00  0.00     0.099 C 
HETATM    6  N   UNL     1     -39.226  49.706 -50.765  1.00  0.00    -0.191 NA
HETATM    7  C   UNL     1     -40.255  52.860 -51.923  1.00  0.00     0.023 A 
HETATM    8  C   UNL     1     -40.609  53.879 -52.812  1.00  0.00     0.013 A 
ENDROOT
BRANCH   1   9
HETATM    9  C   UNL     1     -40.962  54.705 -55.133  1.00  0.00     0.009 C 
HETATM   10  C   UNL     1     -42.236  55.120 -55.221  1.00  0.00     0.001 C 
BRANCH  10  11
HETATM   11  C   UNL     1     -42.708  56.181 -56.153  1.00  0.00     0.259 C 
BRANCH  11  12
HETATM   12  N   UNL     1     -42.808  57.485 -55.444  1.00  0.00    -0.071 N 
HETATM   13  H   UNL     1     -43.162  58.175 -56.126  1.00  0.00     0.277 HD
HETATM   14  H   UNL     1     -41.853  57.790 -55.210  1.00  0.00     0.277 HD
BRANCH  12  15
HETATM   15  C   UNL     1     -43.651  57.460 -54.207  1.00  0.00     0.242 C 
BRANCH  15  16
HETATM   16  C   UNL     1     -42.945  56.819 -52.987  1.00  0.00     0.055 C 
HETATM   17  C   UNL     1     -41.926  57.743 -52.353  1.00  0.00    -0.025 A 
HETATM   18  C   UNL     1     -40.645  57.889 -52.899  1.00  0.00     0.010 A 
HETATM   19  C   UNL     1     -42.277  58.498 -51.222  1.00  0.00     0.041 A 
HETATM   20  C   UNL     1     -39.740  58.783 -52.325  1.00  0.00     0.001 A 
HETATM   21  C   UNL     1     -40.106  59.537 -51.209  1.00  0.00     0.002 A 
HETATM   22  C   UNL     1     -41.378  59.400 -50.657  1.00  0.00     0.030 A 
HETATM   23  N   UNL     1     -43.574  58.401 -50.706  1.00  0.00    -0.327 N 
HETATM   24  C   UNL     1     -44.488  57.491 -51.157  1.00  0.00     0.222 C 
HETATM   25  H   UNL     1     -43.900  59.082 -50.026  1.00  0.00     0.169 HD
HETATM   26  O   UNL     1     -45.694  57.678 -51.048  1.00  0.00    -0.273 OA
HETATM   27  C   UNL     1     -43.925  56.324 -51.926  1.00  0.00     0.114 C 
ENDBRANCH  15  16
ENDBRANCH  12  15
ENDBRANCH  11  12
ENDBRANCH  10  11
ENDBRANCH   1   9
TORSDOF 5
ENDMDL
MODEL 7
REMARK VINA RESULT:      -6.9     14.677     16.848
REMARK  5 active torsions:
REMARK  status: ('A' for Active; 'I' for Inactive)
REMARK    1  A    between atoms: C_9  and  C_10 
REMARK    2  A    between atoms: C_10  and  N_11 
REMARK    3  A    between atoms: N_11  and  C_14 
REMARK    4  A    between atoms: C_14  and  C_15 
REMARK    5  A    between atoms: C_16  and  C_17 
ROOT
HETATM    1  C   UNL     1     -37.268  41.412 -56.383  1.00  0.00    -0.036 A 
HETATM    2  C   UNL     1     -37.880  40.189 -56.680  1.00  0.00     0.013 A 
HETATM    3  C   UNL     1     -37.957  39.744 -58.003  1.00  0.00     0.023 A 
HETATM    4  C   UNL     1     -37.428  40.522 -59.038  1.00  0.00     0.044 A 
HETATM    5  C   UNL     1     -37.503  40.062 -60.394  1.00  0.00     0.099 C 
HETATM    6  N   UNL     1     -37.564  39.684 -61.489  1.00  0.00    -0.191 NA
HETATM    7  C   UNL     1     -36.822  41.747 -58.743  1.00  0.00     0.023 A 
HETATM    8  C   UNL     1     -36.741  42.191 -57.420  1.00  0.00     0.013 A 
ENDROOT
BRANCH   1   9
HETATM    9  C   UNL     1     -37.173  41.856 -54.992  1.00  0.00     0.009 C 
HETATM   10  C   UNL     1     -37.641  41.095 -53.990  1.00  0.00     0.001 C 
BRANCH  10  11
HETATM   11  C   UNL     1     -37.585  41.478 -52.552  1.00  0.00     0.259 C 
BRANCH  11  12
HETATM   12  N   UNL     1     -36.819  40.465 -51.776  1.00  0.00    -0.071 N 
HETATM   13  H   UNL     1     -37.308  40.338 -50.875  1.00  0.00     0.277 HD
HETATM   14  H   UNL     1     -35.904  40.874 -51.541  1.00  0.00     0.277 HD
BRANCH  12  15
HETATM   15  C   UNL     1     -36.625  39.157 -52.479  1.00  0.00     0.242 C 
BRANCH  15  16
HETATM   16  C   UNL     1     -35.139  38.791 -52.711  1.00  0.00     0.055 C 
HETATM   17  C   UNL     1     -34.645  39.206 -54.082  1.00  0.00    -0.025 A 
HETATM   18  C   UNL     1     -34.916  38.428 -55.214  1.00  0.00     0.010 A 
HETATM   19  C   UNL     1     -33.935  40.409 -54.233  1.00  0.00     0.041 A 
HETATM   20  C   UNL     1     -34.491  38.857 -56.472  1.00  0.00     0.001 A 
HETATM   21  C   UNL     1     -33.799  40.060 -56.610  1.00  0.00     0.002 A 
HETATM   22  C   UNL     1     -33.524  40.844 -55.491  1.00  0.00     0.030 A 
HETATM   23  N   UNL     1     -33.712  41.220 -53.115  1.00  0.00    -0.327 N 
HETATM   24  C   UNL     1     -34.020  40.834 -51.841  1.00  0.00     0.222 C 
HETATM   25  H   UNL     1     -33.387  42.175 -53.240  1.00  0.00     0.169 HD
HETATM   26  O   UNL     1     -34.245  41.649 -50.954  1.00  0.00    -0.273 OA
HETATM   27  C   UNL     1     -34.213  39.354 -51.635  1.00  0.00     0.114 C 
ENDBRANCH  15  16
ENDBRANCH  12  15
ENDBRANCH  11  12
ENDBRANCH  10  11
ENDBRANCH   1   9
TORSDOF 5
ENDMDL
MODEL 8
REMARK VINA RESULT:      -6.9      2.746      5.403
REMARK  5 active torsions:
REMARK  status: ('A' for Active; 'I' for Inactive)
REMARK    1  A    between atoms: C_9  and  C_10 
REMARK    2  A    between atoms: C_10  and  N_11 
REMARK    3  A    between atoms: N_11  and  C_14 
REMARK    4  A    between atoms: C_14  and  C_15 
REMARK    5  A    between atoms: C_16  and  C_17 
ROOT
HETATM    1  C   UNL     1     -41.260  55.560 -53.446  1.00  0.00    -0.036 A 
HETATM    2  C   UNL     1     -41.116  54.697 -52.354  1.00  0.00     0.013 A 
HETATM    3  C   UNL     1     -40.680  53.383 -52.550  1.00  0.00     0.023 A 
HETATM    4  C   UNL     1     -40.391  52.923 -53.839  1.00  0.00     0.044 A 
HETATM    5  C   UNL     1     -39.938  51.577 -54.037  1.00  0.00     0.099 C 
HETATM    6  N   UNL     1     -39.570  50.488 -54.192  1.00  0.00    -0.191 NA
HETATM    7  C   UNL     1     -40.540  53.783 -54.931  1.00  0.00     0.023 A 
HETATM    8  C   UNL     1     -40.974  55.098 -54.735  1.00  0.00     0.013 A 
ENDROOT
BRANCH   1   9
HETATM    9  C   UNL     1     -41.696  56.940 -53.226  1.00  0.00     0.009 C 
HETATM   10  C   UNL     1     -40.902  57.975 -53.545  1.00  0.00     0.001 C 
BRANCH  10  11
HETATM   11  C   UNL     1     -41.271  59.405 -53.348  1.00  0.00     0.259 C 
BRANCH  11  12
HETATM   12  N   UNL     1     -42.188  59.855 -54.430  1.00  0.00    -0.071 N 
HETATM   13  H   UNL     1     -42.184  60.888 -54.421  1.00  0.00     0.277 HD
HETATM   14  H   UNL     1     -43.145  59.578 -54.168  1.00  0.00     0.277 HD
BRANCH  12  15
HETATM   15  C   UNL     1     -41.859  59.321 -55.790  1.00  0.00     0.242 C 
BRANCH  15  16
HETATM   16  C   UNL     1     -43.076  59.261 -56.745  1.00  0.00     0.055 C 
HETATM   17  C   UNL     1     -42.910  58.221 -57.834  1.00  0.00    -0.025 A 
HETATM   18  C   UNL     1     -42.144  58.487 -58.976  1.00  0.00     0.010 A 
HETATM   19  C   UNL     1     -43.498  56.954 -57.685  1.00  0.00     0.041 A 
HETATM   20  C   UNL     1     -41.967  57.496 -59.942  1.00  0.00     0.001 A 
HETATM   21  C   UNL     1     -42.545  56.237 -59.775  1.00  0.00     0.002 A 
HETATM   22  C   UNL     1     -43.309  55.961 -58.642  1.00  0.00     0.030 A 
HETATM   23  N   UNL     1     -44.215  56.662 -56.519  1.00  0.00    -0.327 N 
HETATM   24  C   UNL     1     -44.504  57.601 -55.568  1.00  0.00     0.222 C 
HETATM   25  H   UNL     1     -44.467  55.701 -56.308  1.00  0.00     0.169 HD
HETATM   26  O   UNL     1     -44.717  57.294 -54.401  1.00  0.00    -0.273 OA
HETATM   27  C   UNL     1     -44.396  59.036 -56.012  1.00  0.00     0.114 C 
ENDBRANCH  15  16
ENDBRANCH  12  15
ENDBRANCH  11  12
ENDBRANCH  10  11
ENDBRANCH   1   9
TORSDOF 5
ENDMDL
MODEL 9
REMARK VINA RESULT:      -6.8     14.667     16.763
REMARK  5 active torsions:
REMARK  status: ('A' for Active; 'I' for Inactive)
REMARK    1  A    between atoms: C_9  and  C_10 
REMARK    2  A    between atoms: C_10  and  N_11 
REMARK    3  A    between atoms: N_11  and  C_14 
REMARK    4  A    between atoms: C_14  and  C_15 
REMARK    5  A    between atoms: C_16  and  C_17 
ROOT
HETATM    1  C   UNL     1     -33.119  38.741 -52.478  1.00  0.00    -0.036 A 
HETATM    2  C   UNL     1     -32.217  39.804 -52.361  1.00  0.00     0.013 A 
HETATM    3  C   UNL     1     -31.696  40.150 -51.111  1.00  0.00     0.023 A 
HETATM    4  C   UNL     1     -32.080  39.440 -49.969  1.00  0.00     0.044 A 
HETATM    5  C   UNL     1     -31.541  39.794 -48.688  1.00  0.00     0.099 C 
HETATM    6  N   UNL     1     -31.100  40.082 -47.654  1.00  0.00    -0.191 NA
HETATM    7  C   UNL     1     -32.986  38.382 -50.083  1.00  0.00     0.023 A 
HETATM    8  C   UNL     1     -33.504  38.032 -51.334  1.00  0.00     0.013 A 
ENDROOT
BRANCH   1   9
HETATM    9  C   UNL     1     -33.639  38.373 -53.795  1.00  0.00     0.009 C 
HETATM   10  C   UNL     1     -33.628  39.249 -54.812  1.00  0.00     0.001 C 
BRANCH  10  11
HETATM   11  C   UNL     1     -34.142  38.952 -56.179  1.00  0.00     0.259 C 
BRANCH  11  12
HETATM   12  N   UNL     1     -35.402  39.700 -56.431  1.00  0.00    -0.071 N 
HETATM   13  H   UNL     1     -35.655  39.545 -57.420  1.00  0.00     0.277 HD
HETATM   14  H   UNL     1     -35.194  40.705 -56.352  1.00  0.00     0.277 HD
BRANCH  12  15
HETATM   15  C   UNL     1     -36.534  39.343 -55.517  1.00  0.00     0.242 C 
BRANCH  15  16
HETATM   16  C   UNL     1     -37.174  40.565 -54.814  1.00  0.00     0.055 C 
HETATM   17  C   UNL     1     -36.603  40.805 -53.432  1.00  0.00    -0.025 A 
HETATM   18  C   UNL     1     -37.040  40.060 -52.330  1.00  0.00     0.010 A 
HETATM   19  C   UNL     1     -35.591  41.762 -53.251  1.00  0.00     0.041 A 
HETATM   20  C   UNL     1     -36.465  40.267 -51.076  1.00  0.00     0.001 A 
HETATM   21  C   UNL     1     -35.451  41.211 -50.913  1.00  0.00     0.002 A 
HETATM   22  C   UNL     1     -35.007  41.959 -52.002  1.00  0.00     0.030 A 
HETATM   23  N   UNL     1     -35.108  42.469 -54.358  1.00  0.00    -0.327 N 
HETATM   24  C   UNL     1     -35.675  42.386 -55.599  1.00  0.00     0.222 C 
HETATM   25  H   UNL     1     -34.250  43.007 -54.280  1.00  0.00     0.169 HD
HETATM   26  O   UNL     1     -35.036  42.621 -56.618  1.00  0.00    -0.273 OA
HETATM   27  C   UNL     1     -37.079  41.844 -55.642  1.00  0.00     0.114 C 
ENDBRANCH  15  16
ENDBRANCH  12  15
ENDBRANCH  11  12
ENDBRANCH  10  11
ENDBRANCH   1   9
TORSDOF 5
ENDMDL
MODEL 10
REMARK VINA RESULT:      -6.8     15.008     17.389
REMARK  5 active torsions:
REMARK  status: ('A' for Active; 'I' for Inactive)
REMARK    1  A    between atoms: C_9  and  C_10 
REMARK    2  A    between atoms: C_10  and  N_11 
REMARK    3  A    between atoms: N_11  and  C_14 
REMARK    4  A    between atoms: C_14  and  C_15 
REMARK    5  A    between atoms: C_16  and  C_17 
ROOT
HETATM    1  C   UNL     1     -35.853  41.991 -54.735  1.00  0.00    -0.036 A 
HETATM    2  C   UNL     1     -35.056  42.577 -55.725  1.00  0.00     0.013 A 
HETATM    3  C   UNL     1     -35.457  42.538 -57.064  1.00  0.00     0.023 A 
HETATM    4  C   UNL     1     -36.653  41.908 -57.421  1.00  0.00     0.044 A 
HETATM    5  C   UNL     1     -37.065  41.873 -58.795  1.00  0.00     0.099 C 
HETATM    6  N   UNL     1     -37.396  41.851 -59.906  1.00  0.00    -0.191 NA
HETATM    7  C   UNL     1     -37.447  41.317 -56.433  1.00  0.00     0.023 A 
HETATM    8  C   UNL     1     -37.048  41.358 -55.094  1.00  0.00     0.013 A 
ENDROOT
BRANCH   1   9
HETATM    9  C   UNL     1     -35.434  42.058 -53.334  1.00  0.00     0.009 C 
HETATM   10  C   UNL     1     -35.686  41.047 -52.488  1.00  0.00     0.001 C 
BRANCH  10  11
HETATM   11  C   UNL     1     -35.296  41.042 -51.050  1.00  0.00     0.259 C 
BRANCH  11  12
HETATM   12  N   UNL     1     -34.580  39.782 -50.713  1.00  0.00    -0.071 N 
HETATM   13  H   UNL     1     -34.793  39.566 -49.726  1.00  0.00     0.277 HD
HETATM   14  H   UNL     1     -33.569  39.976 -50.743  1.00  0.00     0.277 HD
BRANCH  12  15
HETATM   15  C   UNL     1     -34.901  38.623 -51.606  1.00  0.00     0.242 C 
BRANCH  15  16
HETATM   16  C   UNL     1     -33.664  38.031 -52.325  1.00  0.00     0.055 C 
HETATM   17  C   UNL     1     -33.466  38.607 -53.711  1.00  0.00    -0.025 A 
HETATM   18  C   UNL     1     -34.208  38.138 -54.802  1.00  0.00     0.010 A 
HETATM   19  C   UNL     1     -32.552  39.656 -53.907  1.00  0.00     0.041 A 
HETATM   20  C   UNL     1     -34.041  38.718 -56.060  1.00  0.00     0.001 A 
HETATM   21  C   UNL     1     -33.140  39.768 -56.238  1.00  0.00     0.002 A 
HETATM   22  C   UNL     1     -32.396  40.244 -55.160  1.00  0.00     0.030 A 
HETATM   23  N   UNL     1     -31.851  40.170 -52.811  1.00  0.00    -0.327 N 
HETATM   24  C   UNL     1     -31.895  39.604 -51.567  1.00  0.00     0.222 C 
HETATM   25  H   UNL     1     -31.349  41.049 -52.898  1.00  0.00     0.169 HD
HETATM   26  O   UNL     1     -31.671  40.254 -50.553  1.00  0.00    -0.273 OA
HETATM   27  C   UNL     1     -32.379  38.178 -51.514  1.00  0.00     0.114 C 
ENDBRANCH  15  16
ENDBRANCH  12  15
ENDBRANCH  11  12
ENDBRANCH  10  11
ENDBRANCH   1   9
TORSDOF 5
ENDMDL
