MODEL 1
REMARK VINA RESULT:      -7.9      0.000      0.000
REMARK  5 active torsions:
REMARK  status: ('A' for Active; 'I' for Inactive)
REMARK    1  A    between atoms: C_8  and  N_9 
REMARK       I    between atoms: N_9  and  C_10 
REMARK    2  A    between atoms: C_10  and  C_11 
REMARK    3  A    between atoms: C_11  and  N_12 
REMARK    4  A    between atoms: N_12  and  C_13 
REMARK    5  A    between atoms: C_13  and  C_14 
ROOT
HETATM    1  C   UNL     1     -42.067  56.476 -55.246  1.00  0.00     0.372 C 
ENDROOT
BRANCH   1   2
HETATM    2  C   UNL     1     -42.979  56.835 -56.430  1.00  0.00     0.250 C 
HETATM    3  N   UNL     1     -42.565  56.246 -57.606  1.00  0.00    -0.322 N 
HETATM    4  H   UNL     1     -41.738  55.663 -57.513  1.00  0.00     0.169 HD
HETATM    5  O   UNL     1     -43.960  57.551 -56.265  1.00  0.00    -0.271 OA
BRANCH   3   6
HETATM    6  C   UNL     1     -43.108  56.380 -58.870  1.00  0.00     0.085 A 
HETATM    7  C   UNL     1     -42.926  57.529 -59.617  1.00  0.00     0.052 A 
HETATM    8  C   UNL     1     -42.203  58.794 -59.351  1.00  0.00     0.072 C 
HETATM    9  N   UNL     1     -43.599  57.325 -60.787  1.00  0.00    -0.280 N 
HETATM   10  H   UNL     1     -43.689  57.956 -61.577  1.00  0.00     0.189 HD
HETATM   11  N   UNL     1     -44.206  56.138 -60.862  1.00  0.00    -0.177 NA
HETATM   12  C   UNL     1     -43.913  55.541 -59.696  1.00  0.00     0.079 A 
HETATM   13  C   UNL     1     -44.447  54.175 -59.463  1.00  0.00     0.075 C 
ENDBRANCH   3   6
ENDBRANCH   1   2
BRANCH   1  14
HETATM   14  N   UNL     1     -41.429  55.149 -55.456  1.00  0.00     0.100 N 
HETATM   15  H   UNL     1     -40.499  55.198 -55.030  1.00  0.00     0.317 HD
BRANCH  14  16
HETATM   16  C   UNL     1     -42.172  54.083 -54.757  1.00  0.00     0.250 C 
HETATM   17  C   UNL     1     -43.258  54.729 -53.888  1.00  0.00     0.048 C 
BRANCH  16  18
HETATM   18  C   UNL     1     -41.288  53.193 -53.899  1.00  0.00    -0.024 A 
HETATM   19  C   UNL     1     -40.731  52.003 -54.404  1.00  0.00     0.036 A 
HETATM   20  C   UNL     1     -39.907  51.211 -53.603  1.00  0.00     0.073 A 
HETATM   21 CL   UNL     1     -39.244  49.759 -54.247  1.00  0.00    -0.081 Cl
HETATM   22  C   UNL     1     -39.628  51.601 -52.296  1.00  0.00     0.138 A 
HETATM   23  F   UNL     1     -38.835  50.857 -51.511  1.00  0.00    -0.204 F 
HETATM   24  C   UNL     1     -40.165  52.776 -51.779  1.00  0.00     0.044 A 
HETATM   25  C   UNL     1     -40.991  53.570 -52.578  1.00  0.00     0.012 A 
ENDBRANCH  16  18
ENDBRANCH  14  16
ENDBRANCH   1  14
TORSDOF 5
ENDMDL
MODEL 2
REMARK VINA RESULT:      -7.9      1.459      1.660
REMARK  5 active torsions:
REMARK  status: ('A' for Active; 'I' for Inactive)
REMARK    1  A    between atoms: C_8  and  N_9 
REMARK       I    between atoms: N_9  and  C_10 
REMARK    2  A    between atoms: C_10  and  C_11 
REMARK    3  A    between atoms: C_11  and  N_12 
REMARK    4  A    between atoms: N_12  and  C_13 
REMARK    5  A    between atoms: C_13  and  C_14 
ROOT
HETATM    1  C   UNL     1     -42.802  54.920 -56.282  1.00  0.00     0.372 C 
ENDROOT
BRANCH   1   2
HETATM    2  C   UNL     1     -43.040  56.241 -57.031  1.00  0.00     0.250 C 
HETATM    3  N   UNL     1     -43.883  56.086 -58.111  1.00  0.00    -0.322 N 
HETATM    4  H   UNL     1     -44.225  55.137 -58.241  1.00  0.00     0.169 HD
HETATM    5  O   UNL     1     -42.523  57.281 -56.638  1.00  0.00    -0.271 OA
BRANCH   3   6
HETATM    6  C   UNL     1     -44.281  57.036 -59.032  1.00  0.00     0.085 A 
HETATM    7  C   UNL     1     -43.402  57.547 -59.968  1.00  0.00     0.052 A 
HETATM    8  C   UNL     1     -41.971  57.285 -60.248  1.00  0.00     0.072 C 
HETATM    9  N   UNL     1     -44.115  58.456 -60.695  1.00  0.00    -0.280 N 
HETATM   10  H   UNL     1     -43.796  59.031 -61.468  1.00  0.00     0.189 HD
HETATM   11  N   UNL     1     -45.387  58.580 -60.307  1.00  0.00    -0.177 NA
HETATM   12  C   UNL     1     -45.510  57.713 -59.289  1.00  0.00     0.079 A 
HETATM   13  C   UNL     1     -46.834  57.604 -58.627  1.00  0.00     0.075 C 
ENDBRANCH   3   6
ENDBRANCH   1   2
BRANCH   1  14
HETATM   14  N   UNL     1     -41.450  54.902 -55.662  1.00  0.00     0.100 N 
HETATM   15  H   UNL     1     -40.980  55.765 -55.951  1.00  0.00     0.317 HD
BRANCH  14  16
HETATM   16  C   UNL     1     -41.537  54.927 -54.189  1.00  0.00     0.250 C 
HETATM   17  C   UNL     1     -40.885  56.218 -53.681  1.00  0.00     0.048 C 
BRANCH  16  18
HETATM   18  C   UNL     1     -40.885  53.725 -53.525  1.00  0.00    -0.024 A 
HETATM   19  C   UNL     1     -40.595  52.553 -54.249  1.00  0.00     0.036 A 
HETATM   20  C   UNL     1     -39.979  51.468 -53.622  1.00  0.00     0.073 A 
HETATM   21 CL   UNL     1     -39.640  50.047 -54.532  1.00  0.00    -0.081 Cl
HETATM   22  C   UNL     1     -39.644  51.545 -52.274  1.00  0.00     0.138 A 
HETATM   23  F   UNL     1     -39.047  50.516 -51.653  1.00  0.00    -0.204 F 
HETATM   24  C   UNL     1     -39.918  52.696 -51.541  1.00  0.00     0.044 A 
HETATM   25  C   UNL     1     -40.536  53.783 -52.165  1.00  0.00     0.012 A 
ENDBRANCH  16  18
ENDBRANCH  14  16
ENDBRANCH   1  14
TORSDOF 5
ENDMDL
MODEL 3
REMARK VINA RESULT:      -7.7      3.310      5.756
REMARK  5 active torsions:
REMARK  status: ('A' for Active; 'I' for Inactive)
REMARK    1  A    between atoms: C_8  and  N_9 
REMARK       I    between atoms: N_9  and  C_10 
REMARK    2  A    between atoms: C_10  and  C_11 
REMARK    3  A    between atoms: C_11  and  N_12 
REMARK    4  A    between atoms: N_12  and  C_13 
REMARK    5  A    between atoms: C_13  and  C_14 
ROOT
HETATM    1  C   UNL     1     -42.393  56.837 -55.149  1.00  0.00     0.372 C 
ENDROOT
BRANCH   1   2
HETATM    2  C   UNL     1     -41.879  57.936 -54.205  1.00  0.00     0.250 C 
HETATM    3  N   UNL     1     -42.226  57.700 -52.891  1.00  0.00    -0.322 N 
HETATM    4  H   UNL     1     -42.753  56.843 -52.745  1.00  0.00     0.169 HD
HETATM    5  O   UNL     1     -41.220  58.872 -54.641  1.00  0.00    -0.271 OA
BRANCH   3   6
HETATM    6  C   UNL     1     -41.979  58.489 -51.784  1.00  0.00     0.085 A 
HETATM    7  C   UNL     1     -41.400  57.968 -50.641  1.00  0.00     0.052 A 
HETATM    8  C   UNL     1     -40.930  56.610 -50.285  1.00  0.00     0.072 C 
HETATM    9  N   UNL     1     -41.316  59.007 -49.758  1.00  0.00    -0.280 N 
HETATM   10  H   UNL     1     -40.946  58.998 -48.813  1.00  0.00     0.189 HD
HETATM   11  N   UNL     1     -41.794  60.159 -50.232  1.00  0.00    -0.177 NA
HETATM   12  C   UNL     1     -42.202  59.864 -51.477  1.00  0.00     0.079 A 
HETATM   13  C   UNL     1     -42.792  60.956 -52.292  1.00  0.00     0.075 C 
ENDBRANCH   3   6
ENDBRANCH   1   2
BRANCH   1  14
HETATM   14  N   UNL     1     -41.358  55.789 -55.351  1.00  0.00     0.100 N 
HETATM   15  H   UNL     1     -40.676  55.897 -54.595  1.00  0.00     0.317 HD
BRANCH  14  16
HETATM   16  C   UNL     1     -41.936  54.437 -55.225  1.00  0.00     0.250 C 
HETATM   17  C   UNL     1     -43.405  54.567 -54.806  1.00  0.00     0.048 C 
BRANCH  16  18
HETATM   18  C   UNL     1     -41.195  53.552 -54.235  1.00  0.00    -0.024 A 
HETATM   19  C   UNL     1     -40.668  52.304 -54.616  1.00  0.00     0.036 A 
HETATM   20  C   UNL     1     -39.976  51.517 -53.694  1.00  0.00     0.073 A 
HETATM   21 CL   UNL     1     -39.346  49.993 -54.187  1.00  0.00    -0.081 Cl
HETATM   22  C   UNL     1     -39.800  51.970 -52.390  1.00  0.00     0.138 A 
HETATM   23  F   UNL     1     -39.133  51.232 -51.490  1.00  0.00    -0.204 F 
HETATM   24  C   UNL     1     -40.308  53.203 -51.995  1.00  0.00     0.044 A 
HETATM   25  C   UNL     1     -41.003  53.992 -52.915  1.00  0.00     0.012 A 
ENDBRANCH  16  18
ENDBRANCH  14  16
ENDBRANCH   1  14
TORSDOF 5
ENDMDL
MODEL 4
REMARK VINA RESULT:      -7.5      3.326      5.686
REMARK  5 active torsions:
REMARK  status: ('A' for Active; 'I' for Inactive)
REMARK    1  A    between atoms: C_8  and  N_9 
REMARK       I    between atoms: N_9  and  C_10 
REMARK    2  A    between atoms: C_10  and  C_11 
REMARK    3  A    between atoms: C_11  and  N_12 
REMARK    4  A    between atoms: N_12  and  C_13 
REMARK    5  A    between atoms: C_13  and  C_14 
ROOT
HETATM    1  C   UNL     1     -42.085  56.416 -55.377  1.00  0.00     0.372 C 
ENDROOT
BRANCH   1   2
HETATM    2  C   UNL     1     -42.613  57.360 -54.285  1.00  0.00     0.250 C 
HETATM    3  N   UNL     1     -41.616  57.778 -53.429  1.00  0.00    -0.322 N 
HETATM    4  H   UNL     1     -40.693  57.414 -53.651  1.00  0.00     0.169 HD
HETATM    5  O   UNL     1     -43.795  57.679 -54.257  1.00  0.00    -0.271 OA
BRANCH   3   6
HETATM    6  C   UNL     1     -41.727  58.585 -52.313  1.00  0.00     0.085 A 
HETATM    7  C   UNL     1     -41.438  58.111 -51.046  1.00  0.00     0.052 A 
HETATM    8  C   UNL     1     -40.986  56.791 -50.549  1.00  0.00     0.072 C 
HETATM    9  N   UNL     1     -41.663  59.154 -50.195  1.00  0.00    -0.280 N 
HETATM   10  H   UNL     1     -41.559  59.174 -49.186  1.00  0.00     0.189 HD
HETATM   11  N   UNL     1     -42.078  60.268 -50.804  1.00  0.00    -0.177 NA
HETATM   12  C   UNL     1     -42.119  59.941 -52.105  1.00  0.00     0.079 A 
HETATM   13  C   UNL     1     -42.546  60.985 -53.070  1.00  0.00     0.075 C 
ENDBRANCH   3   6
ENDBRANCH   1   2
BRANCH   1  14
HETATM   14  N   UNL     1     -40.983  55.566 -54.852  1.00  0.00     0.100 N 
HETATM   15  H   UNL     1     -40.955  55.711 -53.839  1.00  0.00     0.317 HD
BRANCH  14  16
HETATM   16  C   UNL     1     -41.260  54.134 -55.078  1.00  0.00     0.250 C 
HETATM   17  C   UNL     1     -42.777  53.935 -55.166  1.00  0.00     0.048 C 
BRANCH  16  18
HETATM   18  C   UNL     1     -40.683  53.230 -54.001  1.00  0.00    -0.024 A 
HETATM   19  C   UNL     1     -40.610  53.642 -52.657  1.00  0.00     0.036 A 
HETATM   20  C   UNL     1     -40.093  52.788 -51.682  1.00  0.00     0.073 A 
HETATM   21 CL   UNL     1     -40.012  53.321 -50.047  1.00  0.00    -0.081 Cl
HETATM   22  C   UNL     1     -39.651  51.517 -52.037  1.00  0.00     0.138 A 
HETATM   23  F   UNL     1     -39.156  50.678 -51.114  1.00  0.00    -0.204 F 
HETATM   24  C   UNL     1     -39.720  51.088 -53.359  1.00  0.00     0.044 A 
HETATM   25  C   UNL     1     -40.235  51.941 -54.338  1.00  0.00     0.012 A 
ENDBRANCH  16  18
ENDBRANCH  14  16
ENDBRANCH   1  14
TORSDOF 5
ENDMDL
MODEL 5
REMARK VINA RESULT:      -7.4      3.066      4.416
REMARK  5 active torsions:
REMARK  status: ('A' for Active; 'I' for Inactive)
REMARK    1  A    between atoms: C_8  and  N_9 
REMARK       I    between atoms: N_9  and  C_10 
REMARK    2  A    between atoms: C_10  and  C_11 
REMARK    3  A    between atoms: C_11  and  N_12 
REMARK    4  A    between atoms: N_12  and  C_13 
REMARK    5  A    between atoms: C_13  and  C_14 
ROOT
HETATM    1  C   UNL     1     -42.854  56.054 -50.651  1.00  0.00     0.372 C 
ENDROOT
BRANCH   1   2
HETATM    2  C   UNL     1     -42.798  56.759 -52.015  1.00  0.00     0.250 C 
HETATM    3  N   UNL     1     -43.737  56.268 -52.897  1.00  0.00    -0.322 N 
HETATM    4  H   UNL     1     -44.324  55.531 -52.515  1.00  0.00     0.169 HD
HETATM    5  O   UNL     1     -41.997  57.665 -52.215  1.00  0.00    -0.271 OA
BRANCH   3   6
HETATM    6  C   UNL     1     -43.946  56.626 -54.215  1.00  0.00     0.085 A 
HETATM    7  C   UNL     1     -43.548  55.809 -55.257  1.00  0.00     0.052 A 
HETATM    8  C   UNL     1     -42.874  54.490 -55.297  1.00  0.00     0.072 C 
HETATM    9  N   UNL     1     -43.893  56.468 -56.402  1.00  0.00    -0.280 N 
HETATM   10  H   UNL     1     -43.753  56.172 -57.363  1.00  0.00     0.189 HD
HETATM   11  N   UNL     1     -44.481  57.648 -56.190  1.00  0.00    -0.177 NA
HETATM   12  C   UNL     1     -44.527  57.761 -54.854  1.00  0.00     0.079 A 
HETATM   13  C   UNL     1     -45.140  58.987 -54.282  1.00  0.00     0.075 C 
ENDBRANCH   3   6
ENDBRANCH   1   2
BRANCH   1  14
HETATM   14  N   UNL     1     -41.486  55.707 -50.180  1.00  0.00     0.100 N 
HETATM   15  H   UNL     1     -41.297  56.293 -49.362  1.00  0.00     0.317 HD
BRANCH  14  16
HETATM   16  C   UNL     1     -41.414  54.302 -49.735  1.00  0.00     0.250 C 
HETATM   17  C   UNL     1     -40.597  54.239 -48.440  1.00  0.00     0.048 C 
BRANCH  16  18
HETATM   18  C   UNL     1     -40.808  53.370 -50.772  1.00  0.00    -0.024 A 
HETATM   19  C   UNL     1     -40.315  52.100 -50.419  1.00  0.00     0.036 A 
HETATM   20  C   UNL     1     -39.779  51.254 -51.391  1.00  0.00     0.073 A 
HETATM   21 CL   UNL     1     -39.179  49.708 -50.930  1.00  0.00    -0.081 Cl
HETATM   22  C   UNL     1     -39.735  51.664 -52.720  1.00  0.00     0.138 A 
HETATM   23  F   UNL     1     -39.229  50.865 -53.671  1.00  0.00    -0.204 F 
HETATM   24  C   UNL     1     -40.222  52.914 -53.091  1.00  0.00     0.044 A 
HETATM   25  C   UNL     1     -40.757  53.764 -52.120  1.00  0.00     0.012 A 
ENDBRANCH  16  18
ENDBRANCH  14  16
ENDBRANCH   1  14
TORSDOF 5
ENDMDL
MODEL 6
REMARK VINA RESULT:      -7.4      1.825      2.574
REMARK  5 active torsions:
REMARK  status: ('A' for Active; 'I' for Inactive)
REMARK    1  A    between atoms: C_8  and  N_9 
REMARK       I    between atoms: N_9  and  C_10 
REMARK    2  A    between atoms: C_10  and  C_11 
REMARK    3  A    between atoms: C_11  and  N_12 
REMARK    4  A    between atoms: N_12  and  C_13 
REMARK    5  A    between atoms: C_13  and  C_14 
ROOT
HETATM    1  C   UNL     1     -42.735  55.125 -56.443  1.00  0.00     0.372 C 
ENDROOT
BRANCH   1   2
HETATM    2  C   UNL     1     -43.109  56.572 -56.798  1.00  0.00     0.250 C 
HETATM    3  N   UNL     1     -42.092  57.228 -57.459  1.00  0.00    -0.322 N 
HETATM    4  H   UNL     1     -41.264  56.661 -57.619  1.00  0.00     0.169 HD
HETATM    5  O   UNL     1     -44.216  57.016 -56.516  1.00  0.00    -0.271 OA
BRANCH   3   6
HETATM    6  C   UNL     1     -42.054  58.541 -57.887  1.00  0.00     0.085 A 
HETATM    7  C   UNL     1     -42.033  59.593 -56.990  1.00  0.00     0.052 A 
HETATM    8  C   UNL     1     -42.043  59.650 -55.510  1.00  0.00     0.072 C 
HETATM    9  N   UNL     1     -42.010  60.730 -57.746  1.00  0.00    -0.280 N 
HETATM   10  H   UNL     1     -41.994  61.694 -57.430  1.00  0.00     0.189 HD
HETATM   11  N   UNL     1     -42.017  60.504 -59.062  1.00  0.00    -0.177 NA
HETATM   12  C   UNL     1     -42.039  59.166 -59.170  1.00  0.00     0.079 A 
HETATM   13  C   UNL     1     -42.047  58.579 -60.533  1.00  0.00     0.075 C 
ENDBRANCH   3   6
ENDBRANCH   1   2
BRANCH   1  14
HETATM   14  N   UNL     1     -41.413  55.073 -55.765  1.00  0.00     0.100 N 
HETATM   15  H   UNL     1     -40.913  55.928 -56.025  1.00  0.00     0.317 HD
BRANCH  14  16
HETATM   16  C   UNL     1     -41.565  55.088 -54.297  1.00  0.00     0.250 C 
HETATM   17  C   UNL     1     -40.952  56.385 -53.754  1.00  0.00     0.048 C 
BRANCH  16  18
HETATM   18  C   UNL     1     -40.927  53.891 -53.611  1.00  0.00    -0.024 A 
HETATM   19  C   UNL     1     -40.644  52.706 -54.315  1.00  0.00     0.036 A 
HETATM   20  C   UNL     1     -40.041  51.625 -53.669  1.00  0.00     0.073 A 
HETATM   21 CL   UNL     1     -39.710  50.187 -54.554  1.00  0.00    -0.081 Cl
HETATM   22  C   UNL     1     -39.712  51.720 -52.320  1.00  0.00     0.138 A 
HETATM   23  F   UNL     1     -39.128  50.695 -51.680  1.00  0.00    -0.204 F 
HETATM   24  C   UNL     1     -39.980  52.885 -51.606  1.00  0.00     0.044 A 
HETATM   25  C   UNL     1     -40.585  53.967 -52.250  1.00  0.00     0.012 A 
ENDBRANCH  16  18
ENDBRANCH  14  16
ENDBRANCH   1  14
TORSDOF 5
ENDMDL
MODEL 7
REMARK VINA RESULT:      -7.2      2.513      3.402
REMARK  5 active torsions:
REMARK  status: ('A' for Active; 'I' for Inactive)
REMARK    1  A    between atoms: C_8  and  N_9 
REMARK       I    between atoms: N_9  and  C_10 
REMARK    2  A    between atoms: C_10  and  C_11 
REMARK    3  A    between atoms: C_11  and  N_12 
REMARK    4  A    between atoms: N_12  and  C_13 
REMARK    5  A    between atoms: C_13  and  C_14 
ROOT
HETATM    1  C   UNL     1     -41.022  57.089 -53.401  1.00  0.00     0.372 C 
ENDROOT
BRANCH   1   2
HETATM    2  C   UNL     1     -41.851  58.118 -54.187  1.00  0.00     0.250 C 
HETATM    3  N   UNL     1     -43.150  57.701 -54.387  1.00  0.00    -0.322 N 
HETATM    4  H   UNL     1     -43.364  56.793 -53.982  1.00  0.00     0.169 HD
HETATM    5  O   UNL     1     -41.350  59.179 -54.541  1.00  0.00    -0.271 OA
BRANCH   3   6
HETATM    6  C   UNL     1     -44.157  58.338 -55.084  1.00  0.00     0.085 A 
HETATM    7  C   UNL     1     -45.024  59.216 -54.460  1.00  0.00     0.052 A 
HETATM    8  C   UNL     1     -45.139  59.687 -53.060  1.00  0.00     0.072 C 
HETATM    9  N   UNL     1     -45.886  59.644 -55.428  1.00  0.00    -0.280 N 
HETATM   10  H   UNL     1     -46.660  60.294 -55.337  1.00  0.00     0.189 HD
HETATM   11  N   UNL     1     -45.652  59.115 -56.632  1.00  0.00    -0.177 NA
HETATM   12  C   UNL     1     -44.592  58.314 -56.442  1.00  0.00     0.079 A 
HETATM   13  C   UNL     1     -44.069  57.567 -57.614  1.00  0.00     0.075 C 
ENDBRANCH   3   6
ENDBRANCH   1   2
BRANCH   1  14
HETATM   14  N   UNL     1     -41.747  55.794 -53.301  1.00  0.00     0.100 N 
HETATM   15  H   UNL     1     -42.705  55.966 -53.621  1.00  0.00     0.317 HD
BRANCH  14  16
HETATM   16  C   UNL     1     -41.163  54.783 -54.204  1.00  0.00     0.250 C 
HETATM   17  C   UNL     1     -42.232  54.351 -55.214  1.00  0.00     0.048 C 
BRANCH  16  18
HETATM   18  C   UNL     1     -40.621  53.565 -53.475  1.00  0.00    -0.024 A 
HETATM   19  C   UNL     1     -40.266  52.392 -54.168  1.00  0.00     0.036 A 
HETATM   20  C   UNL     1     -39.753  51.291 -53.480  1.00  0.00     0.073 A 
HETATM   21 CL   UNL     1     -39.332  49.868 -54.353  1.00  0.00    -0.081 Cl
HETATM   22  C   UNL     1     -39.586  51.352 -52.100  1.00  0.00     0.138 A 
HETATM   23  F   UNL     1     -39.090  50.307 -51.420  1.00  0.00    -0.204 F 
HETATM   24  C   UNL     1     -39.925  52.504 -51.397  1.00  0.00     0.044 A 
HETATM   25  C   UNL     1     -40.441  53.607 -52.082  1.00  0.00     0.012 A 
ENDBRANCH  16  18
ENDBRANCH  14  16
ENDBRANCH   1  14
TORSDOF 5
ENDMDL
MODEL 8
REMARK VINA RESULT:      -7.1      4.115      5.363
REMARK  5 active torsions:
REMARK  status: ('A' for Active; 'I' for Inactive)
REMARK    1  A    between atoms: C_8  and  N_9 
REMARK       I    between atoms: N_9  and  C_10 
REMARK    2  A    between atoms: C_10  and  C_11 
REMARK    3  A    between atoms: C_11  and  N_12 
REMARK    4  A    between atoms: N_12  and  C_13 
REMARK    5  A    between atoms: C_13  and  C_14 
ROOT
HETATM    1  C   UNL     1     -42.034  55.671 -51.470  1.00  0.00     0.372 C 
ENDROOT
BRANCH   1   2
HETATM    2  C   UNL     1     -42.722  57.026 -51.705  1.00  0.00     0.250 C 
HETATM    3  N   UNL     1     -41.903  57.921 -52.359  1.00  0.00    -0.322 N 
HETATM    4  H   UNL     1     -40.985  57.554 -52.595  1.00  0.00     0.169 HD
HETATM    5  O   UNL     1     -43.879  57.207 -51.344  1.00  0.00    -0.271 OA
BRANCH   3   6
HETATM    6  C   UNL     1     -42.164  59.236 -52.694  1.00  0.00     0.085 A 
HETATM    7  C   UNL     1     -42.188  59.655 -54.011  1.00  0.00     0.052 A 
HETATM    8  C   UNL     1     -41.975  58.945 -55.294  1.00  0.00     0.072 C 
HETATM    9  N   UNL     1     -42.459  60.993 -53.974  1.00  0.00    -0.280 N 
HETATM   10  H   UNL     1     -42.550  61.637 -54.753  1.00  0.00     0.189 HD
HETATM   11  N   UNL     1     -42.611  61.479 -52.740  1.00  0.00    -0.177 NA
HETATM   12  C   UNL     1     -42.439  60.415 -51.939  1.00  0.00     0.079 A 
HETATM   13  C   UNL     1     -42.552  60.623 -50.474  1.00  0.00     0.075 C 
ENDBRANCH   3   6
ENDBRANCH   1   2
BRANCH   1  14
HETATM   14  N   UNL     1     -42.065  54.844 -52.706  1.00  0.00     0.100 N 
HETATM   15  H   UNL     1     -42.538  55.401 -53.423  1.00  0.00     0.317 HD
BRANCH  14  16
HETATM   16  C   UNL     1     -40.701  54.567 -53.198  1.00  0.00     0.250 C 
HETATM   17  C   UNL     1     -40.572  55.121 -54.622  1.00  0.00     0.048 C 
BRANCH  16  18
HETATM   18  C   UNL     1     -40.342  53.091 -53.185  1.00  0.00    -0.024 A 
HETATM   19  C   UNL     1     -40.155  52.390 -51.979  1.00  0.00     0.036 A 
HETATM   20  C   UNL     1     -39.843  51.029 -51.991  1.00  0.00     0.073 A 
HETATM   21 CL   UNL     1     -39.615  50.200 -50.501  1.00  0.00    -0.081 Cl
HETATM   22  C   UNL     1     -39.721  50.357 -53.204  1.00  0.00     0.138 A 
HETATM   23  F   UNL     1     -39.427  49.049 -53.239  1.00  0.00    -0.204 F 
HETATM   24  C   UNL     1     -39.908  51.030 -54.408  1.00  0.00     0.044 A 
HETATM   25  C   UNL     1     -40.218  52.392 -54.398  1.00  0.00     0.012 A 
ENDBRANCH  16  18
ENDBRANCH  14  16
ENDBRANCH   1  14
TORSDOF 5
ENDMDL
MODEL 9
REMARK VINA RESULT:      -7.0      3.825      5.024
REMARK  5 active torsions:
REMARK  status: ('A' for Active; 'I' for Inactive)
REMARK    1  A    between atoms: C_8  and  N_9 
REMARK       I    between atoms: N_9  and  C_10 
REMARK    2  A    between atoms: C_10  and  C_11 
REMARK    3  A    between atoms: C_11  and  N_12 
REMARK    4  A    between atoms: N_12  and  C_13 
REMARK    5  A    between atoms: C_13  and  C_14 
ROOT
HETATM    1  C   UNL     1     -41.435  56.307 -51.292  1.00  0.00     0.372 C 
ENDROOT
BRANCH   1   2
HETATM    2  C   UNL     1     -42.187  57.618 -51.569  1.00  0.00     0.250 C 
HETATM    3  N   UNL     1     -43.395  57.405 -52.200  1.00  0.00    -0.322 N 
HETATM    4  H   UNL     1     -43.609  56.426 -52.374  1.00  0.00     0.169 HD
HETATM    5  O   UNL     1     -41.714  58.692 -51.218  1.00  0.00    -0.271 OA
BRANCH   3   6
HETATM    6  C   UNL     1     -44.309  58.342 -52.641  1.00  0.00     0.085 A 
HETATM    7  C   UNL     1     -44.587  58.502 -53.986  1.00  0.00     0.052 A 
HETATM    8  C   UNL     1     -44.078  57.828 -55.203  1.00  0.00     0.072 C 
HETATM    9  N   UNL     1     -45.510  59.506 -54.061  1.00  0.00    -0.280 N 
HETATM   10  H   UNL     1     -45.945  59.898 -54.890  1.00  0.00     0.189 HD
HETATM   11  N   UNL     1     -45.854  60.013 -52.875  1.00  0.00    -0.177 NA
HETATM   12  C   UNL     1     -45.131  59.309 -51.990  1.00  0.00     0.079 A 
HETATM   13  C   UNL     1     -45.290  59.633 -50.549  1.00  0.00     0.075 C 
ENDBRANCH   3   6
ENDBRANCH   1   2
BRANCH   1  14
HETATM   14  N   UNL     1     -41.973  55.203 -52.132  1.00  0.00     0.100 N 
HETATM   15  H   UNL     1     -42.722  55.604 -52.703  1.00  0.00     0.317 HD
BRANCH  14  16
HETATM   16  C   UNL     1     -40.946  54.689 -53.060  1.00  0.00     0.250 C 
HETATM   17  C   UNL     1     -41.507  54.737 -54.486  1.00  0.00     0.048 C 
BRANCH  16  18
HETATM   18  C   UNL     1     -40.489  53.277 -52.733  1.00  0.00    -0.024 A 
HETATM   19  C   UNL     1     -40.284  52.319 -53.743  1.00  0.00     0.036 A 
HETATM   20  C   UNL     1     -39.847  51.033 -53.421  1.00  0.00     0.073 A 
HETATM   21 CL   UNL     1     -39.609  49.881 -54.677  1.00  0.00    -0.081 Cl
HETATM   22  C   UNL     1     -39.605  50.695 -52.093  1.00  0.00     0.138 A 
HETATM   23  F   UNL     1     -39.179  49.467 -51.762  1.00  0.00    -0.204 F 
HETATM   24  C   UNL     1     -39.797  51.629 -51.079  1.00  0.00     0.044 A 
HETATM   25  C   UNL     1     -40.237  52.916 -51.398  1.00  0.00     0.012 A 
ENDBRANCH  16  18
ENDBRANCH  14  16
ENDBRANCH   1  14
TORSDOF 5
ENDMDL
MODEL 10
REMARK VINA RESULT:      -7.0      3.755      4.992
REMARK  5 active torsions:
REMARK  status: ('A' for Active; 'I' for Inactive)
REMARK    1  A    between atoms: C_8  and  N_9 
REMARK       I    between atoms: N_9  and  C_10 
REMARK    2  A    between atoms: C_10  and  C_11 
REMARK    3  A    between atoms: C_11  and  N_12 
REMARK    4  A    between atoms: N_12  and  C_13 
REMARK    5  A    between atoms: C_13  and  C_14 
ROOT
HETATM    1  C   UNL     1     -41.757  55.829 -50.935  1.00  0.00     0.372 C 
ENDROOT
BRANCH   1   2
HETATM    2  C   UNL     1     -42.261  57.137 -51.566  1.00  0.00     0.250 C 
HETATM    3  N   UNL     1     -43.505  56.994 -52.144  1.00  0.00    -0.322 N 
HETATM    4  H   UNL     1     -43.901  56.062 -52.057  1.00  0.00     0.169 HD
HETATM    5  O   UNL     1     -41.586  58.158 -51.502  1.00  0.00    -0.271 OA
BRANCH   3   6
HETATM    6  C   UNL     1     -44.241  57.934 -52.837  1.00  0.00     0.085 A 
HETATM    7  C   UNL     1     -45.053  58.842 -52.183  1.00  0.00     0.052 A 
HETATM    8  C   UNL     1     -45.353  59.069 -50.750  1.00  0.00     0.072 C 
HETATM    9  N   UNL     1     -45.632  59.600 -53.161  1.00  0.00    -0.280 N 
HETATM   10  H   UNL     1     -46.290  60.365 -53.054  1.00  0.00     0.189 HD
HETATM   11  N   UNL     1     -45.264  59.258 -54.398  1.00  0.00    -0.177 NA
HETATM   12  C   UNL     1     -44.407  58.240 -54.221  1.00  0.00     0.079 A 
HETATM   13  C   UNL     1     -43.802  57.624 -55.429  1.00  0.00     0.075 C 
ENDBRANCH   3   6
ENDBRANCH   1   2
BRANCH   1  14
HETATM   14  N   UNL     1     -41.946  54.686 -51.868  1.00  0.00     0.100 N 
HETATM   15  H   UNL     1     -42.734  54.927 -52.476  1.00  0.00     0.317 HD
BRANCH  14  16
HETATM   16  C   UNL     1     -40.767  54.506 -52.736  1.00  0.00     0.250 C 
HETATM   17  C   UNL     1     -41.062  55.136 -54.102  1.00  0.00     0.048 C 
BRANCH  16  18
HETATM   18  C   UNL     1     -40.367  53.050 -52.917  1.00  0.00    -0.024 A 
HETATM   19  C   UNL     1     -40.056  52.231 -51.815  1.00  0.00     0.036 A 
HETATM   20  C   UNL     1     -39.709  50.892 -52.004  1.00  0.00     0.073 A 
HETATM   21 CL   UNL     1     -39.330  49.916 -50.638  1.00  0.00    -0.081 Cl
HETATM   22  C   UNL     1     -39.674  50.360 -53.289  1.00  0.00     0.138 A 
HETATM   23  F   UNL     1     -39.348  49.074 -53.493  1.00  0.00    -0.204 F 
HETATM   24  C   UNL     1     -39.982  51.151 -54.392  1.00  0.00     0.044 A 
HETATM   25  C   UNL     1     -40.328  52.492 -54.206  1.00  0.00     0.012 A 
ENDBRANCH  16  18
ENDBRANCH  14  16
ENDBRANCH   1  14
TORSDOF 5
ENDMDL
