MODEL 1
REMARK VINA RESULT:      -7.8      0.000      0.000
REMARK  4 active torsions:
REMARK  status: ('A' for Active; 'I' for Inactive)
REMARK    1  A    between atoms: C_2  and  C_3 
REMARK    2  A    between atoms: C_3  and  N_4 
REMARK    3  A    between atoms: C_3  and  C_17 
REMARK       I    between atoms: N_4  and  C_5 
REMARK    4  A    between atoms: C_5  and  C_6 
ROOT
HETATM    1  N   UNL     1     -41.056  57.447 -51.556  1.00  0.00    -0.345 N 
HETATM    2  C   UNL     1     -41.880  56.337 -51.547  1.00  0.00     0.252 C 
HETATM    3  O   UNL     1     -43.095  56.437 -51.403  1.00  0.00    -0.268 OA
HETATM    4  H   UNL     1     -40.072  57.259 -51.394  1.00  0.00     0.163 HD
ENDROOT
BRANCH   1   5
HETATM    5  C   UNL     1     -41.536  58.772 -51.144  1.00  0.00     0.152 C 
BRANCH   5   6
HETATM    6  C   UNL     1     -40.546  59.430 -50.171  1.00  0.00     0.028 C 
HETATM    7  C   UNL     1     -39.112  59.478 -50.686  1.00  0.00     0.007 C 
ENDBRANCH   5   6
BRANCH   5   8
HETATM    8  C   UNL     1     -41.945  59.660 -52.331  1.00  0.00     0.104 A 
HETATM    9  N   UNL     1     -41.781  59.391 -53.636  1.00  0.00    -0.347 N 
HETATM   10  H   UNL     1     -41.317  58.521 -53.935  1.00  0.00     0.167 HD
HETATM   11  C   UNL     1     -42.282  60.380 -54.455  1.00  0.00     0.022 A 
HETATM   12  C   UNL     1     -42.214  60.329 -55.923  1.00  0.00     0.069 C 
HETATM   13  C   UNL     1     -42.803  61.309 -53.591  1.00  0.00     0.114 A 
HETATM   14  N   UNL     1     -42.592  60.841 -52.311  1.00  0.00    -0.352 N 
HETATM   15  H   UNL     1     -42.889  61.321 -51.466  1.00  0.00     0.166 HD
ENDBRANCH   5   8
ENDBRANCH   1   5
BRANCH   2  16
HETATM   16  C   UNL     1     -41.235  55.002 -51.700  1.00  0.00     0.033 A 
HETATM   17  C   UNL     1     -41.299  54.391 -52.968  1.00  0.00     0.031 A 
HETATM   18  C   UNL     1     -40.708  53.127 -53.143  1.00  0.00     0.001 A 
HETATM   19  C   UNL     1     -40.077  52.532 -52.059  1.00  0.00     0.086 A 
HETATM   20  C   UNL     1     -40.568  52.211 -54.220  1.00  0.00     0.046 A 
HETATM   21  O   UNL     1     -39.571  51.320 -52.410  1.00  0.00    -0.315 OA
HETATM   22  C   UNL     1     -39.979  53.112 -50.797  1.00  0.00     0.039 A 
HETATM   23  C   UNL     1     -39.872  51.127 -53.726  1.00  0.00     0.050 A 
HETATM   24  C   UNL     1     -39.415  49.858 -54.330  1.00  0.00     0.077 C 
HETATM   25  C   UNL     1     -40.568  54.373 -50.635  1.00  0.00     0.020 A 
ENDBRANCH   2  16
TORSDOF 4
ENDMDL
MODEL 2
REMARK VINA RESULT:      -7.6      1.885      2.553
REMARK  4 active torsions:
REMARK  status: ('A' for Active; 'I' for Inactive)
REMARK    1  A    between atoms: C_2  and  C_3 
REMARK    2  A    between atoms: C_3  and  N_4 
REMARK    3  A    between atoms: C_3  and  C_17 
REMARK       I    between atoms: N_4  and  C_5 
REMARK    4  A    between atoms: C_5  and  C_6 
ROOT
HETATM    1  N   UNL     1     -41.781  56.988 -52.242  1.00  0.00    -0.345 N 
HETATM    2  C   UNL     1     -41.401  56.213 -51.163  1.00  0.00     0.252 C 
HETATM    3  O   UNL     1     -41.451  56.638 -50.012  1.00  0.00    -0.268 OA
HETATM    4  H   UNL     1     -41.445  56.672 -53.145  1.00  0.00     0.163 HD
ENDROOT
BRANCH   1   5
HETATM    5  C   UNL     1     -42.021  58.432 -52.113  1.00  0.00     0.152 C 
BRANCH   5   6
HETATM    6  C   UNL     1     -41.530  59.177 -53.363  1.00  0.00     0.028 C 
HETATM    7  C   UNL     1     -41.911  58.502 -54.675  1.00  0.00     0.007 C 
ENDBRANCH   5   6
BRANCH   5   8
HETATM    8  C   UNL     1     -43.463  58.767 -51.698  1.00  0.00     0.104 A 
HETATM    9  N   UNL     1     -44.249  59.727 -52.211  1.00  0.00    -0.347 N 
HETATM   10  H   UNL     1     -43.896  60.352 -52.950  1.00  0.00     0.167 HD
HETATM   11  C   UNL     1     -45.504  59.754 -51.641  1.00  0.00     0.022 A 
HETATM   12  C   UNL     1     -46.546  60.719 -52.021  1.00  0.00     0.069 C 
HETATM   13  C   UNL     1     -45.489  58.729 -50.730  1.00  0.00     0.114 A 
HETATM   14  N   UNL     1     -44.241  58.145 -50.793  1.00  0.00    -0.352 N 
HETATM   15  H   UNL     1     -43.950  57.347 -50.234  1.00  0.00     0.166 HD
ENDBRANCH   5   8
ENDBRANCH   1   5
BRANCH   2  16
HETATM   16  C   UNL     1     -40.904  54.836 -51.448  1.00  0.00     0.033 A 
HETATM   17  C   UNL     1     -40.999  54.374 -52.775  1.00  0.00     0.031 A 
HETATM   18  C   UNL     1     -40.549  53.076 -53.076  1.00  0.00     0.001 A 
HETATM   19  C   UNL     1     -40.020  52.302 -52.051  1.00  0.00     0.086 A 
HETATM   20  C   UNL     1     -40.481  52.268 -54.242  1.00  0.00     0.046 A 
HETATM   21  O   UNL     1     -39.642  51.084 -52.523  1.00  0.00    -0.315 OA
HETATM   22  C   UNL     1     -39.895  52.731 -50.733  1.00  0.00     0.039 A 
HETATM   23  C   UNL     1     -39.924  51.066 -53.857  1.00  0.00     0.050 A 
HETATM   24  C   UNL     1     -39.595  49.824 -54.586  1.00  0.00     0.077 C 
HETATM   25  C   UNL     1     -40.344  54.027 -50.446  1.00  0.00     0.020 A 
ENDBRANCH   2  16
TORSDOF 4
ENDMDL
MODEL 3
REMARK VINA RESULT:      -7.3      3.423      4.728
REMARK  4 active torsions:
REMARK  status: ('A' for Active; 'I' for Inactive)
REMARK    1  A    between atoms: C_2  and  C_3 
REMARK    2  A    between atoms: C_3  and  N_4 
REMARK    3  A    between atoms: C_3  and  C_17 
REMARK       I    between atoms: N_4  and  C_5 
REMARK    4  A    between atoms: C_5  and  C_6 
ROOT
HETATM    1  N   UNL     1     -42.562  55.599 -56.295  1.00  0.00    -0.345 N 
HETATM    2  C   UNL     1     -41.808  55.964 -55.195  1.00  0.00     0.252 C 
HETATM    3  O   UNL     1     -41.541  57.138 -54.956  1.00  0.00    -0.268 OA
HETATM    4  H   UNL     1     -42.492  54.624 -56.566  1.00  0.00     0.163 HD
ENDROOT
BRANCH   1   5
HETATM    5  C   UNL     1     -42.870  56.549 -57.373  1.00  0.00     0.152 C 
BRANCH   5   6
HETATM    6  C   UNL     1     -42.942  55.827 -58.727  1.00  0.00     0.028 C 
HETATM    7  C   UNL     1     -42.303  56.600 -59.875  1.00  0.00     0.007 C 
ENDBRANCH   5   6
BRANCH   5   8
HETATM    8  C   UNL     1     -44.084  57.439 -57.062  1.00  0.00     0.104 A 
HETATM    9  N   UNL     1     -45.214  57.544 -57.779  1.00  0.00    -0.347 N 
HETATM   10  H   UNL     1     -45.328  57.013 -58.654  1.00  0.00     0.167 HD
HETATM   11  C   UNL     1     -46.127  58.410 -57.217  1.00  0.00     0.022 A 
HETATM   12  C   UNL     1     -47.437  58.708 -57.816  1.00  0.00     0.069 C 
HETATM   13  C   UNL     1     -45.521  58.850 -56.068  1.00  0.00     0.114 A 
HETATM   14  N   UNL     1     -44.287  58.237 -55.997  1.00  0.00    -0.352 N 
HETATM   15  H   UNL     1     -43.623  58.368 -55.239  1.00  0.00     0.166 HD
ENDBRANCH   5   8
ENDBRANCH   1   5
BRANCH   2  16
HETATM   16  C   UNL     1     -41.310  54.871 -54.312  1.00  0.00     0.033 A 
HETATM   17  C   UNL     1     -41.031  53.627 -54.911  1.00  0.00     0.031 A 
HETATM   18  C   UNL     1     -40.569  52.573 -54.104  1.00  0.00     0.001 A 
HETATM   19  C   UNL     1     -40.398  52.802 -52.746  1.00  0.00     0.086 A 
HETATM   20  C   UNL     1     -40.197  51.218 -54.316  1.00  0.00     0.046 A 
HETATM   21  O   UNL     1     -39.951  51.676 -52.127  1.00  0.00    -0.315 OA
HETATM   22  C   UNL     1     -40.646  54.021 -52.121  1.00  0.00     0.039 A 
HETATM   23  C   UNL     1     -39.830  50.714 -53.085  1.00  0.00     0.050 A 
HETATM   24  C   UNL     1     -39.356  49.389 -52.636  1.00  0.00     0.077 C 
HETATM   25  C   UNL     1     -41.103  55.065 -52.936  1.00  0.00     0.020 A 
ENDBRANCH   2  16
TORSDOF 4
ENDMDL
MODEL 4
REMARK VINA RESULT:      -7.3      4.148      5.409
REMARK  4 active torsions:
REMARK  status: ('A' for Active; 'I' for Inactive)
REMARK    1  A    between atoms: C_2  and  C_3 
REMARK    2  A    between atoms: C_3  and  N_4 
REMARK    3  A    between atoms: C_3  and  C_17 
REMARK       I    between atoms: N_4  and  C_5 
REMARK    4  A    between atoms: C_5  and  C_6 
ROOT
HETATM    1  N   UNL     1     -42.851  55.663 -56.376  1.00  0.00    -0.345 N 
HETATM    2  C   UNL     1     -42.681  55.896 -55.024  1.00  0.00     0.252 C 
HETATM    3  O   UNL     1     -43.123  56.905 -54.482  1.00  0.00    -0.268 OA
HETATM    4  H   UNL     1     -42.226  54.974 -56.780  1.00  0.00     0.163 HD
ENDROOT
BRANCH   1   5
HETATM    5  C   UNL     1     -43.337  56.707 -57.287  1.00  0.00     0.152 C 
BRANCH   5   6
HETATM    6  C   UNL     1     -42.176  57.592 -57.767  1.00  0.00     0.028 C 
HETATM    7  C   UNL     1     -42.384  59.079 -57.509  1.00  0.00     0.007 C 
ENDBRANCH   5   6
BRANCH   5   8
HETATM    8  C   UNL     1     -44.224  56.156 -58.416  1.00  0.00     0.104 A 
HETATM    9  N   UNL     1     -45.306  56.742 -58.953  1.00  0.00    -0.347 N 
HETATM   10  H   UNL     1     -45.639  57.649 -58.597  1.00  0.00     0.167 HD
HETATM   11  C   UNL     1     -45.866  56.001 -59.971  1.00  0.00     0.022 A 
HETATM   12  C   UNL     1     -47.066  56.420 -60.712  1.00  0.00     0.069 C 
HETATM   13  C   UNL     1     -45.061  54.896 -60.075  1.00  0.00     0.114 A 
HETATM   14  N   UNL     1     -44.070  55.022 -59.125  1.00  0.00    -0.352 N 
HETATM   15  H   UNL     1     -43.320  54.351 -58.983  1.00  0.00     0.166 HD
ENDBRANCH   5   8
ENDBRANCH   1   5
BRANCH   2  16
HETATM   16  C   UNL     1     -41.918  54.881 -54.243  1.00  0.00     0.033 A 
HETATM   17  C   UNL     1     -41.691  53.630 -54.851  1.00  0.00     0.031 A 
HETATM   18  C   UNL     1     -40.984  52.647 -54.137  1.00  0.00     0.001 A 
HETATM   19  C   UNL     1     -40.529  52.950 -52.861  1.00  0.00     0.086 A 
HETATM   20  C   UNL     1     -40.570  51.311 -54.385  1.00  0.00     0.046 A 
HETATM   21  O   UNL     1     -39.874  51.886 -52.325  1.00  0.00    -0.315 OA
HETATM   22  C   UNL     1     -40.719  54.179 -52.234  1.00  0.00     0.039 A 
HETATM   23  C   UNL     1     -39.901  50.889 -53.255  1.00  0.00     0.050 A 
HETATM   24  C   UNL     1     -39.241  49.620 -52.884  1.00  0.00     0.077 C 
HETATM   25  C   UNL     1     -41.423  55.152 -52.957  1.00  0.00     0.020 A 
ENDBRANCH   2  16
TORSDOF 4
ENDMDL
MODEL 5
REMARK VINA RESULT:      -7.3      4.557      6.166
REMARK  4 active torsions:
REMARK  status: ('A' for Active; 'I' for Inactive)
REMARK    1  A    between atoms: C_2  and  C_3 
REMARK    2  A    between atoms: C_3  and  N_4 
REMARK    3  A    between atoms: C_3  and  C_17 
REMARK       I    between atoms: N_4  and  C_5 
REMARK    4  A    between atoms: C_5  and  C_6 
ROOT
HETATM    1  N   UNL     1     -42.742  55.944 -57.306  1.00  0.00    -0.345 N 
HETATM    2  C   UNL     1     -42.781  56.162 -55.942  1.00  0.00     0.252 C 
HETATM    3  O   UNL     1     -43.411  57.096 -55.454  1.00  0.00    -0.268 OA
HETATM    4  H   UNL     1     -41.990  55.346 -57.631  1.00  0.00     0.163 HD
ENDROOT
BRANCH   1   5
HETATM    5  C   UNL     1     -43.230  56.945 -58.264  1.00  0.00     0.152 C 
BRANCH   5   6
HETATM    6  C   UNL     1     -42.058  57.730 -58.872  1.00  0.00     0.028 C 
HETATM    7  C   UNL     1     -41.873  59.122 -58.279  1.00  0.00     0.007 C 
ENDBRANCH   5   6
BRANCH   5   8
HETATM    8  C   UNL     1     -44.208  56.362 -59.298  1.00  0.00     0.104 A 
HETATM    9  N   UNL     1     -45.433  56.822 -59.601  1.00  0.00    -0.347 N 
HETATM   10  H   UNL     1     -45.822  57.636 -59.105  1.00  0.00     0.167 HD
HETATM   11  C   UNL     1     -46.048  56.092 -60.595  1.00  0.00     0.022 A 
HETATM   12  C   UNL     1     -47.398  56.386 -61.099  1.00  0.00     0.069 C 
HETATM   13  C   UNL     1     -45.130  55.132 -60.935  1.00  0.00     0.114 A 
HETATM   14  N   UNL     1     -44.021  55.326 -60.137  1.00  0.00    -0.352 N 
HETATM   15  H   UNL     1     -43.175  54.765 -60.182  1.00  0.00     0.166 HD
ENDBRANCH   5   8
ENDBRANCH   1   5
BRANCH   2  16
HETATM   16  C   UNL     1     -42.007  55.226 -55.076  1.00  0.00     0.033 A 
HETATM   17  C   UNL     1     -42.425  55.085 -53.738  1.00  0.00     0.031 A 
HETATM   18  C   UNL     1     -41.711  54.218 -52.892  1.00  0.00     0.001 A 
HETATM   19  C   UNL     1     -40.625  53.527 -53.412  1.00  0.00     0.086 A 
HETATM   20  C   UNL     1     -41.805  53.820 -51.531  1.00  0.00     0.046 A 
HETATM   21  O   UNL     1     -40.058  52.744 -52.456  1.00  0.00    -0.315 OA
HETATM   22  C   UNL     1     -40.193  53.628 -54.731  1.00  0.00     0.039 A 
HETATM   23  C   UNL     1     -40.778  52.924 -51.312  1.00  0.00     0.050 A 
HETATM   24  C   UNL     1     -40.336  52.164 -50.125  1.00  0.00     0.077 C 
HETATM   25  C   UNL     1     -40.914  54.492 -55.566  1.00  0.00     0.020 A 
ENDBRANCH   2  16
TORSDOF 4
ENDMDL
MODEL 6
REMARK VINA RESULT:      -7.2      4.816      6.327
REMARK  4 active torsions:
REMARK  status: ('A' for Active; 'I' for Inactive)
REMARK    1  A    between atoms: C_2  and  C_3 
REMARK    2  A    between atoms: C_3  and  N_4 
REMARK    3  A    between atoms: C_3  and  C_17 
REMARK       I    between atoms: N_4  and  C_5 
REMARK    4  A    between atoms: C_5  and  C_6 
ROOT
HETATM    1  N   UNL     1     -43.922  56.627 -57.383  1.00  0.00    -0.345 N 
HETATM    2  C   UNL     1     -43.519  56.993 -56.113  1.00  0.00     0.252 C 
HETATM    3  O   UNL     1     -43.554  58.160 -55.735  1.00  0.00    -0.268 OA
HETATM    4  H   UNL     1     -43.599  55.719 -57.698  1.00  0.00     0.163 HD
ENDROOT
BRANCH   1   5
HETATM    5  C   UNL     1     -44.171  57.623 -58.434  1.00  0.00     0.152 C 
BRANCH   5   6
HETATM    6  C   UNL     1     -42.895  57.881 -59.249  1.00  0.00     0.028 C 
HETATM    7  C   UNL     1     -42.373  56.653 -59.986  1.00  0.00     0.007 C 
ENDBRANCH   5   6
BRANCH   5   8
HETATM    8  C   UNL     1     -45.414  57.307 -59.281  1.00  0.00     0.104 A 
HETATM    9  N   UNL     1     -46.094  58.156 -60.068  1.00  0.00    -0.347 N 
HETATM   10  H   UNL     1     -45.812  59.145 -60.134  1.00  0.00     0.167 HD
HETATM   11  C   UNL     1     -47.149  57.555 -60.720  1.00  0.00     0.022 A 
HETATM   12  C   UNL     1     -48.054  58.273 -61.630  1.00  0.00     0.069 C 
HETATM   13  C   UNL     1     -47.099  56.245 -60.318  1.00  0.00     0.114 A 
HETATM   14  N   UNL     1     -46.032  56.124 -59.452  1.00  0.00    -0.352 N 
HETATM   15  H   UNL     1     -45.748  55.255 -59.008  1.00  0.00     0.166 HD
ENDBRANCH   5   8
ENDBRANCH   1   5
BRANCH   2  16
HETATM   16  C   UNL     1     -43.018  55.913 -55.215  1.00  0.00     0.033 A 
HETATM   17  C   UNL     1     -41.834  55.251 -55.594  1.00  0.00     0.031 A 
HETATM   18  C   UNL     1     -41.339  54.221 -54.774  1.00  0.00     0.001 A 
HETATM   19  C   UNL     1     -42.035  53.902 -53.616  1.00  0.00     0.086 A 
HETATM   20  C   UNL     1     -40.225  53.340 -54.809  1.00  0.00     0.046 A 
HETATM   21  O   UNL     1     -41.416  52.888 -52.955  1.00  0.00    -0.315 OA
HETATM   22  C   UNL     1     -43.197  54.545 -53.199  1.00  0.00     0.039 A 
HETATM   23  C   UNL     1     -40.315  52.547 -53.683  1.00  0.00     0.050 A 
HETATM   24  C   UNL     1     -39.481  51.451 -53.149  1.00  0.00     0.077 C 
HETATM   25  C   UNL     1     -43.678  55.572 -54.023  1.00  0.00     0.020 A 
ENDBRANCH   2  16
TORSDOF 4
ENDMDL
MODEL 7
REMARK VINA RESULT:      -7.1      1.727      1.848
REMARK  4 active torsions:
REMARK  status: ('A' for Active; 'I' for Inactive)
REMARK    1  A    between atoms: C_2  and  C_3 
REMARK    2  A    between atoms: C_3  and  N_4 
REMARK    3  A    between atoms: C_3  and  C_17 
REMARK       I    between atoms: N_4  and  C_5 
REMARK    4  A    between atoms: C_5  and  C_6 
ROOT
HETATM    1  N   UNL     1     -42.221  57.013 -52.638  1.00  0.00    -0.345 N 
HETATM    2  C   UNL     1     -42.108  56.157 -51.559  1.00  0.00     0.252 C 
HETATM    3  O   UNL     1     -42.561  56.446 -50.455  1.00  0.00    -0.268 OA
HETATM    4  H   UNL     1     -41.588  56.828 -53.409  1.00  0.00     0.163 HD
ENDROOT
BRANCH   1   5
HETATM    5  C   UNL     1     -42.653  58.408 -52.478  1.00  0.00     0.152 C 
BRANCH   5   6
HETATM    6  C   UNL     1     -41.438  59.341 -52.355  1.00  0.00     0.028 C 
HETATM    7  C   UNL     1     -40.192  58.832 -53.069  1.00  0.00     0.007 C 
ENDBRANCH   5   6
BRANCH   5   8
HETATM    8  C   UNL     1     -43.684  58.844 -53.532  1.00  0.00     0.104 A 
HETATM    9  N   UNL     1     -44.059  58.163 -54.626  1.00  0.00    -0.347 N 
HETATM   10  H   UNL     1     -43.628  57.254 -54.848  1.00  0.00     0.167 HD
HETATM   11  C   UNL     1     -45.029  58.814 -55.357  1.00  0.00     0.022 A 
HETATM   12  C   UNL     1     -45.598  58.282 -56.604  1.00  0.00     0.069 C 
HETATM   13  C   UNL     1     -45.276  59.964 -54.651  1.00  0.00     0.114 A 
HETATM   14  N   UNL     1     -44.451  59.950 -53.546  1.00  0.00    -0.352 N 
HETATM   15  H   UNL     1     -44.431  60.675 -52.834  1.00  0.00     0.166 HD
ENDBRANCH   5   8
ENDBRANCH   1   5
BRANCH   2  16
HETATM   16  C   UNL     1     -41.394  54.866 -51.779  1.00  0.00     0.033 A 
HETATM   17  C   UNL     1     -41.552  54.242 -53.032  1.00  0.00     0.031 A 
HETATM   18  C   UNL     1     -40.900  53.019 -53.269  1.00  0.00     0.001 A 
HETATM   19  C   UNL     1     -40.118  52.477 -52.258  1.00  0.00     0.086 A 
HETATM   20  C   UNL     1     -40.815  52.106 -54.354  1.00  0.00     0.046 A 
HETATM   21  O   UNL     1     -39.572  51.299 -52.661  1.00  0.00    -0.315 OA
HETATM   22  C   UNL     1     -39.925  53.072 -51.015  1.00  0.00     0.039 A 
HETATM   23  C   UNL     1     -39.998  51.075 -53.937  1.00  0.00     0.050 A 
HETATM   24  C   UNL     1     -39.524  49.835 -54.585  1.00  0.00     0.077 C 
HETATM   25  C   UNL     1     -40.577  54.292 -50.792  1.00  0.00     0.020 A 
ENDBRANCH   2  16
TORSDOF 4
ENDMDL
MODEL 8
REMARK VINA RESULT:      -7.0      2.380      3.301
REMARK  4 active torsions:
REMARK  status: ('A' for Active; 'I' for Inactive)
REMARK    1  A    between atoms: C_2  and  C_3 
REMARK    2  A    between atoms: C_3  and  N_4 
REMARK    3  A    between atoms: C_3  and  C_17 
REMARK       I    between atoms: N_4  and  C_5 
REMARK    4  A    between atoms: C_5  and  C_6 
ROOT
HETATM    1  N   UNL     1     -41.759  56.941 -54.838  1.00  0.00    -0.345 N 
HETATM    2  C   UNL     1     -42.469  55.993 -54.125  1.00  0.00     0.252 C 
HETATM    3  O   UNL     1     -43.678  56.097 -53.939  1.00  0.00    -0.268 OA
HETATM    4  H   UNL     1     -40.754  56.926 -54.701  1.00  0.00     0.163 HD
ENDROOT
BRANCH   1   5
HETATM    5  C   UNL     1     -42.343  58.242 -55.191  1.00  0.00     0.152 C 
BRANCH   5   6
HETATM    6  C   UNL     1     -41.642  59.376 -54.429  1.00  0.00     0.028 C 
HETATM    7  C   UNL     1     -41.717  59.242 -52.913  1.00  0.00     0.007 C 
ENDBRANCH   5   6
BRANCH   5   8
HETATM    8  C   UNL     1     -42.443  58.464 -56.710  1.00  0.00     0.104 A 
HETATM    9  N   UNL     1     -42.079  57.608 -57.677  1.00  0.00    -0.347 N 
HETATM   10  H   UNL     1     -41.661  56.697 -57.439  1.00  0.00     0.167 HD
HETATM   11  C   UNL     1     -42.323  58.094 -58.944  1.00  0.00     0.022 A 
HETATM   12  C   UNL     1     -42.004  57.353 -60.173  1.00  0.00     0.069 C 
HETATM   13  C   UNL     1     -42.892  59.325 -58.734  1.00  0.00     0.114 A 
HETATM   14  N   UNL     1     -42.958  59.517 -57.370  1.00  0.00    -0.352 N 
HETATM   15  H   UNL     1     -43.349  60.343 -56.924  1.00  0.00     0.166 HD
ENDBRANCH   5   8
ENDBRANCH   1   5
BRANCH   2  16
HETATM   16  C   UNL     1     -41.706  54.839 -53.570  1.00  0.00     0.033 A 
HETATM   17  C   UNL     1     -41.539  53.712 -54.398  1.00  0.00     0.031 A 
HETATM   18  C   UNL     1     -40.833  52.602 -53.901  1.00  0.00     0.001 A 
HETATM   19  C   UNL     1     -40.319  52.664 -52.613  1.00  0.00     0.086 A 
HETATM   20  C   UNL     1     -40.469  51.323 -54.399  1.00  0.00     0.046 A 
HETATM   21  O   UNL     1     -39.674  51.509 -52.302  1.00  0.00    -0.315 OA
HETATM   22  C   UNL     1     -40.449  53.766 -51.771  1.00  0.00     0.039 A 
HETATM   23  C   UNL     1     -39.767  50.693 -53.391  1.00  0.00     0.050 A 
HETATM   24  C   UNL     1     -39.131  49.364 -53.279  1.00  0.00     0.077 C 
HETATM   25  C   UNL     1     -41.152  54.867 -52.279  1.00  0.00     0.020 A 
ENDBRANCH   2  16
TORSDOF 4
ENDMDL
MODEL 9
REMARK VINA RESULT:      -6.9      2.378      3.700
REMARK  4 active torsions:
REMARK  status: ('A' for Active; 'I' for Inactive)
REMARK    1  A    between atoms: C_2  and  C_3 
REMARK    2  A    between atoms: C_3  and  N_4 
REMARK    3  A    between atoms: C_3  and  C_17 
REMARK       I    between atoms: N_4  and  C_5 
REMARK    4  A    between atoms: C_5  and  C_6 
ROOT
HETATM    1  N   UNL     1     -42.562  56.577 -54.540  1.00  0.00    -0.345 N 
HETATM    2  C   UNL     1     -41.359  56.374 -53.891  1.00  0.00     0.252 C 
HETATM    3  O   UNL     1     -40.671  57.312 -53.497  1.00  0.00    -0.268 OA
HETATM    4  H   UNL     1     -42.910  55.784 -55.068  1.00  0.00     0.163 HD
ENDROOT
BRANCH   1   5
HETATM    5  C   UNL     1     -42.969  57.903 -55.022  1.00  0.00     0.152 C 
BRANCH   5   6
HETATM    6  C   UNL     1     -43.633  57.798 -56.403  1.00  0.00     0.028 C 
HETATM    7  C   UNL     1     -42.748  57.160 -57.468  1.00  0.00     0.007 C 
ENDBRANCH   5   6
BRANCH   5   8
HETATM    8  C   UNL     1     -43.780  58.698 -53.986  1.00  0.00     0.104 A 
HETATM    9  N   UNL     1     -43.391  59.047 -52.749  1.00  0.00    -0.347 N 
HETATM   10  H   UNL     1     -42.468  58.761 -52.392  1.00  0.00     0.167 HD
HETATM   11  C   UNL     1     -44.341  59.784 -52.076  1.00  0.00     0.022 A 
HETATM   12  C   UNL     1     -44.161  60.277 -50.702  1.00  0.00     0.069 C 
HETATM   13  C   UNL     1     -45.374  59.909 -52.969  1.00  0.00     0.114 A 
HETATM   14  N   UNL     1     -45.002  59.247 -54.120  1.00  0.00    -0.352 N 
HETATM   15  H   UNL     1     -45.571  59.187 -54.960  1.00  0.00     0.166 HD
ENDBRANCH   5   8
ENDBRANCH   1   5
BRANCH   2  16
HETATM   16  C   UNL     1     -40.910  54.965 -53.702  1.00  0.00     0.033 A 
HETATM   17  C   UNL     1     -40.833  54.480 -52.381  1.00  0.00     0.031 A 
HETATM   18  C   UNL     1     -40.404  53.158 -52.167  1.00  0.00     0.001 A 
HETATM   19  C   UNL     1     -40.080  52.378 -53.269  1.00  0.00     0.086 A 
HETATM   20  C   UNL     1     -40.193  52.329 -51.033  1.00  0.00     0.046 A 
HETATM   21  O   UNL     1     -39.686  51.139 -52.873  1.00  0.00    -0.315 OA
HETATM   22  C   UNL     1     -40.160  52.816 -54.588  1.00  0.00     0.039 A 
HETATM   23  C   UNL     1     -39.755  51.111 -51.512  1.00  0.00     0.050 A 
HETATM   24  C   UNL     1     -39.365  49.847 -50.854  1.00  0.00     0.077 C 
HETATM   25  C   UNL     1     -40.592  54.134 -54.788  1.00  0.00     0.020 A 
ENDBRANCH   2  16
TORSDOF 4
ENDMDL
MODEL 10
REMARK VINA RESULT:      -6.8     15.487     17.313
REMARK  4 active torsions:
REMARK  status: ('A' for Active; 'I' for Inactive)
REMARK    1  A    between atoms: C_2  and  C_3 
REMARK    2  A    between atoms: C_3  and  N_4 
REMARK    3  A    between atoms: C_3  and  C_17 
REMARK       I    between atoms: N_4  and  C_5 
REMARK    4  A    between atoms: C_5  and  C_6 
ROOT
HETATM    1  N   UNL     1     -37.554  41.002 -54.471  1.00  0.00    -0.345 N 
HETATM    2  C   UNL     1     -36.979  41.732 -55.494  1.00  0.00     0.252 C 
HETATM    3  O   UNL     1     -36.305  42.734 -55.272  1.00  0.00    -0.268 OA
HETATM    4  H   UNL     1     -38.306  40.381 -54.750  1.00  0.00     0.163 HD
ENDROOT
BRANCH   1   5
HETATM    5  C   UNL     1     -37.612  41.509 -53.094  1.00  0.00     0.152 C 
BRANCH   5   6
HETATM    6  C   UNL     1     -38.846  40.957 -52.364  1.00  0.00     0.028 C 
HETATM    7  C   UNL     1     -40.172  41.360 -52.998  1.00  0.00     0.007 C 
ENDBRANCH   5   6
BRANCH   5   8
HETATM    8  C   UNL     1     -36.290  41.331 -52.330  1.00  0.00     0.104 A 
HETATM    9  N   UNL     1     -35.975  40.342 -51.479  1.00  0.00    -0.347 N 
HETATM   10  H   UNL     1     -36.661  39.606 -51.256  1.00  0.00     0.167 HD
HETATM   11  C   UNL     1     -34.695  40.453 -50.978  1.00  0.00     0.022 A 
HETATM   12  C   UNL     1     -34.115  39.502 -50.018  1.00  0.00     0.069 C 
HETATM   13  C   UNL     1     -34.188  41.576 -51.579  1.00  0.00     0.114 A 
HETATM   14  N   UNL     1     -35.175  42.082 -52.399  1.00  0.00    -0.352 N 
HETATM   15  H   UNL     1     -35.071  42.909 -52.981  1.00  0.00     0.166 HD
ENDBRANCH   5   8
ENDBRANCH   1   5
BRANCH   2  16
HETATM   16  C   UNL     1     -37.224  41.269 -56.890  1.00  0.00     0.033 A 
HETATM   17  C   UNL     1     -37.789  39.991 -57.060  1.00  0.00     0.031 A 
HETATM   18  C   UNL     1     -38.024  39.520 -58.364  1.00  0.00     0.001 A 
HETATM   19  C   UNL     1     -37.695  40.339 -59.435  1.00  0.00     0.086 A 
HETATM   20  C   UNL     1     -38.552  38.332 -58.936  1.00  0.00     0.046 A 
HETATM   21  O   UNL     1     -37.987  39.723 -60.612  1.00  0.00    -0.315 OA
HETATM   22  C   UNL     1     -37.151  41.614 -59.306  1.00  0.00     0.039 A 
HETATM   23  C   UNL     1     -38.507  38.500 -60.305  1.00  0.00     0.050 A 
HETATM   24  C   UNL     1     -38.899  37.644 -61.443  1.00  0.00     0.077 C 
HETATM   25  C   UNL     1     -36.925  42.073 -58.002  1.00  0.00     0.020 A 
ENDBRANCH   2  16
TORSDOF 4
ENDMDL
