MODEL 1
REMARK VINA RESULT:      -7.6      0.000      0.000
REMARK  8 active torsions:
REMARK  status: ('A' for Active; 'I' for Inactive)
REMARK    1  A    between atoms: C_2  and  C_3 
REMARK    2  A    between atoms: C_6  and  C_7 
REMARK    3  A    between atoms: C_11  and  C_12 
REMARK    4  A    between atoms: C_12  and  C_13 
REMARK    5  A    between atoms: C_13  and  C_14 
REMARK    6  A    between atoms: C_14  and  O_15 
REMARK    7  A    between atoms: C_20  and  C_21 
REMARK       I    between atoms: C_21  and  N_22 
REMARK    8  A    between atoms: N_22  and  C_23 
ROOT
HETATM    1  C   UNL     1     -42.219  58.157 -56.186  1.00  0.00     0.202 C 
HETATM    2  N   UNL     1     -42.045  59.188 -57.217  1.00  0.00    -0.083 N 
HETATM    3  C   UNL     1     -42.394  59.019 -58.529  1.00  0.00     0.726 A 
HETATM    4  N   UNL     1     -42.044  60.077 -59.214  1.00  0.00    -0.046 NA
HETATM    5  C   UNL     1     -41.435  60.869 -58.268  1.00  0.00     0.166 A 
HETATM    6  N   UNL     1     -41.398  60.357 -57.028  1.00  0.00    -0.140 NA
HETATM    7  N   UNL     1     -42.941  57.853 -58.927  1.00  0.00    -0.192 N 
HETATM    8  C   UNL     1     -42.971  56.721 -58.117  1.00  0.00     0.037 C 
HETATM    9  C   UNL     1     -43.272  55.427 -58.832  1.00  0.00     0.070 C 
HETATM   10  C   UNL     1     -42.654  56.828 -56.802  1.00  0.00     0.062 C 
HETATM   11  H   UNL     1     -43.070  57.717 -59.927  1.00  0.00     0.184 HD
ENDROOT
BRANCH  10  12
HETATM   12  C   UNL     1     -42.550  55.678 -55.861  1.00  0.00     0.256 C 
HETATM   13  N   UNL     1     -41.262  55.392 -55.465  1.00  0.00    -0.323 N 
HETATM   14  H   UNL     1     -40.523  55.963 -55.853  1.00  0.00     0.169 HD
HETATM   15  O   UNL     1     -43.574  55.085 -55.544  1.00  0.00    -0.267 OA
BRANCH  13  16
HETATM   16  C   UNL     1     -40.861  54.423 -54.521  1.00  0.00     0.035 A 
HETATM   17  C   UNL     1     -40.358  53.165 -54.860  1.00  0.00     0.031 A 
HETATM   18  C   UNL     1     -40.005  52.247 -53.863  1.00  0.00     0.026 A 
HETATM   19  C   UNL     1     -40.162  52.583 -52.522  1.00  0.00     0.034 A 
HETATM   20 CL   UNL     1     -39.746  51.448 -51.299  1.00  0.00    -0.084 Cl
HETATM   21  C   UNL     1     -40.657  53.834 -52.168  1.00  0.00     0.026 A 
HETATM   22  C   UNL     1     -40.996  54.755 -53.165  1.00  0.00     0.031 A 
ENDBRANCH  13  16
ENDBRANCH  10  12
BRANCH   1  23
HETATM   23  C   UNL     1     -43.183  58.641 -55.106  1.00  0.00    -0.028 A 
HETATM   24  C   UNL     1     -44.470  59.113 -55.412  1.00  0.00     0.010 A 
HETATM   25  C   UNL     1     -45.327  59.556 -54.399  1.00  0.00     0.007 A 
HETATM   26  C   UNL     1     -44.918  59.534 -53.060  1.00  0.00    -0.059 A 
HETATM   27  C   UNL     1     -43.645  59.044 -52.750  1.00  0.00     0.007 A 
HETATM   28  C   UNL     1     -42.789  58.601 -53.760  1.00  0.00     0.010 A 
BRANCH  26  29
HETATM   29  C   UNL     1     -45.834  60.023 -51.967  1.00  0.00     0.034 C 
HETATM   30  C   UNL     1     -45.668  59.227 -50.682  1.00  0.00     0.010 C 
ENDBRANCH  26  29
ENDBRANCH   1  23
BRANCH   5  31
HETATM   31  C   UNL     1     -40.809  62.173 -58.608  1.00  0.00     0.085 C 
BRANCH  31  32
HETATM   32  C   UNL     1     -41.405  62.840 -59.844  1.00  0.00     0.034 C 
BRANCH  32  33
HETATM   33  C   UNL     1     -40.555  62.640 -61.092  1.00  0.00     0.164 C 
BRANCH  33  34
HETATM   34  O   UNL     1     -41.030  61.511 -61.818  1.00  0.00    -0.401 OA
HETATM   35  H   UNL     1     -41.726  61.821 -62.421  1.00  0.00     0.209 HD
ENDBRANCH  33  34
ENDBRANCH  32  33
ENDBRANCH  31  32
ENDBRANCH   5  31
TORSDOF 8
ENDMDL
MODEL 2
REMARK VINA RESULT:      -7.6      3.788      6.386
REMARK  8 active torsions:
REMARK  status: ('A' for Active; 'I' for Inactive)
REMARK    1  A    between atoms: C_2  and  C_3 
REMARK    2  A    between atoms: C_6  and  C_7 
REMARK    3  A    between atoms: C_11  and  C_12 
REMARK    4  A    between atoms: C_12  and  C_13 
REMARK    5  A    between atoms: C_13  and  C_14 
REMARK    6  A    between atoms: C_14  and  O_15 
REMARK    7  A    between atoms: C_20  and  C_21 
REMARK       I    between atoms: C_21  and  N_22 
REMARK    8  A    between atoms: N_22  and  C_23 
ROOT
HETATM    1  C   UNL     1     -43.774  57.357 -52.918  1.00  0.00     0.202 C 
HETATM    2  N   UNL     1     -44.148  58.671 -52.381  1.00  0.00    -0.083 N 
HETATM    3  C   UNL     1     -43.502  59.281 -51.340  1.00  0.00     0.726 A 
HETATM    4  N   UNL     1     -44.114  60.397 -51.040  1.00  0.00    -0.046 NA
HETATM    5  C   UNL     1     -45.176  60.412 -51.914  1.00  0.00     0.166 A 
HETATM    6  N   UNL     1     -45.247  59.363 -52.748  1.00  0.00    -0.140 NA
HETATM    7  N   UNL     1     -42.449  58.670 -50.761  1.00  0.00    -0.192 N 
HETATM    8  C   UNL     1     -42.116  57.343 -51.019  1.00  0.00     0.037 C 
HETATM    9  C   UNL     1     -41.163  56.715 -50.031  1.00  0.00     0.070 C 
HETATM   10  C   UNL     1     -42.709  56.689 -52.050  1.00  0.00     0.062 C 
HETATM   11  H   UNL     1     -42.075  59.090 -49.915  1.00  0.00     0.184 HD
ENDROOT
BRANCH  10  12
HETATM   12  C   UNL     1     -42.513  55.245 -52.361  1.00  0.00     0.256 C 
HETATM   13  N   UNL     1     -41.242  54.932 -52.791  1.00  0.00    -0.323 N 
HETATM   14  H   UNL     1     -40.582  55.693 -52.871  1.00  0.00     0.169 HD
HETATM   15  O   UNL     1     -43.464  54.485 -52.237  1.00  0.00    -0.267 OA
BRANCH  13  16
HETATM   16  C   UNL     1     -40.737  53.645 -53.075  1.00  0.00     0.035 A 
HETATM   17  C   UNL     1     -40.797  53.043 -54.334  1.00  0.00     0.031 A 
HETATM   18  C   UNL     1     -40.296  51.752 -54.530  1.00  0.00     0.026 A 
HETATM   19  C   UNL     1     -39.739  51.052 -53.463  1.00  0.00     0.034 A 
HETATM   20 CL   UNL     1     -39.141  49.458 -53.701  1.00  0.00    -0.084 Cl
HETATM   21  C   UNL     1     -39.668  51.640 -52.204  1.00  0.00     0.026 A 
HETATM   22  C   UNL     1     -40.157  52.936 -52.013  1.00  0.00     0.031 A 
ENDBRANCH  13  16
ENDBRANCH  10  12
BRANCH   1  23
HETATM   23  C   UNL     1     -43.342  57.481 -54.376  1.00  0.00    -0.028 A 
HETATM   24  C   UNL     1     -42.584  58.568 -54.840  1.00  0.00     0.010 A 
HETATM   25  C   UNL     1     -42.210  58.655 -56.185  1.00  0.00     0.007 A 
HETATM   26  C   UNL     1     -42.583  57.658 -57.094  1.00  0.00    -0.059 A 
HETATM   27  C   UNL     1     -43.320  56.562 -56.631  1.00  0.00     0.007 A 
HETATM   28  C   UNL     1     -43.692  56.473 -55.288  1.00  0.00     0.010 A 
BRANCH  26  29
HETATM   29  C   UNL     1     -42.193  57.755 -58.547  1.00  0.00     0.034 C 
HETATM   30  C   UNL     1     -42.718  56.582 -59.361  1.00  0.00     0.010 C 
ENDBRANCH  26  29
ENDBRANCH   1  23
BRANCH   5  31
HETATM   31  C   UNL     1     -46.205  61.483 -51.895  1.00  0.00     0.085 C 
BRANCH  31  32
HETATM   32  C   UNL     1     -45.892  62.622 -50.930  1.00  0.00     0.034 C 
BRANCH  32  33
HETATM   33  C   UNL     1     -46.714  62.556 -49.649  1.00  0.00     0.164 C 
BRANCH  33  34
HETATM   34  O   UNL     1     -46.319  61.421 -48.886  1.00  0.00    -0.401 OA
HETATM   35  H   UNL     1     -45.376  61.263 -49.061  1.00  0.00     0.209 HD
ENDBRANCH  33  34
ENDBRANCH  32  33
ENDBRANCH  31  32
ENDBRANCH   5  31
TORSDOF 8
ENDMDL
MODEL 3
REMARK VINA RESULT:      -7.6      4.233      8.126
REMARK  8 active torsions:
REMARK  status: ('A' for Active; 'I' for Inactive)
REMARK    1  A    between atoms: C_2  and  C_3 
REMARK    2  A    between atoms: C_6  and  C_7 
REMARK    3  A    between atoms: C_11  and  C_12 
REMARK    4  A    between atoms: C_12  and  C_13 
REMARK    5  A    between atoms: C_13  and  C_14 
REMARK    6  A    between atoms: C_14  and  O_15 
REMARK    7  A    between atoms: C_20  and  C_21 
REMARK       I    between atoms: C_21  and  N_22 
REMARK    8  A    between atoms: N_22  and  C_23 
ROOT
HETATM    1  C   UNL     1     -42.358  55.674 -53.538  1.00  0.00     0.202 C 
HETATM    2  N   UNL     1     -41.440  54.565 -53.823  1.00  0.00    -0.083 N 
HETATM    3  C   UNL     1     -41.027  54.223 -55.082  1.00  0.00     0.726 A 
HETATM    4  N   UNL     1     -40.283  53.149 -55.021  1.00  0.00    -0.046 NA
HETATM    5  C   UNL     1     -40.300  52.838 -53.681  1.00  0.00     0.166 A 
HETATM    6  N   UNL     1     -41.012  53.671 -52.907  1.00  0.00    -0.140 NA
HETATM    7  N   UNL     1     -41.463  54.935 -56.141  1.00  0.00    -0.192 N 
HETATM    8  C   UNL     1     -42.490  55.869 -56.047  1.00  0.00     0.037 C 
HETATM    9  C   UNL     1     -43.095  56.293 -57.363  1.00  0.00     0.070 C 
HETATM   10  C   UNL     1     -42.931  56.263 -54.825  1.00  0.00     0.062 C 
HETATM   11  H   UNL     1     -41.238  54.577 -57.066  1.00  0.00     0.184 HD
ENDROOT
BRANCH  10  12
HETATM   12  C   UNL     1     -44.087  57.174 -54.597  1.00  0.00     0.256 C 
HETATM   13  N   UNL     1     -43.766  58.512 -54.646  1.00  0.00    -0.323 N 
HETATM   14  H   UNL     1     -42.796  58.747 -54.811  1.00  0.00     0.169 HD
HETATM   15  O   UNL     1     -45.185  56.681 -54.368  1.00  0.00    -0.267 OA
BRANCH  13  16
HETATM   16  C   UNL     1     -44.657  59.602 -54.554  1.00  0.00     0.035 A 
HETATM   17  C   UNL     1     -45.150  60.302 -55.658  1.00  0.00     0.031 A 
HETATM   18  C   UNL     1     -46.012  61.391 -55.484  1.00  0.00     0.026 A 
HETATM   19  C   UNL     1     -46.380  61.788 -54.202  1.00  0.00     0.034 A 
HETATM   20 CL   UNL     1     -47.424  63.137 -53.988  1.00  0.00    -0.084 Cl
HETATM   21  C   UNL     1     -45.901  61.098 -53.092  1.00  0.00     0.026 A 
HETATM   22  C   UNL     1     -45.050  60.002 -53.269  1.00  0.00     0.031 A 
ENDBRANCH  13  16
ENDBRANCH  10  12
BRANCH   1  23
HETATM   23  C   UNL     1     -41.670  56.727 -52.673  1.00  0.00    -0.028 A 
HETATM   24  C   UNL     1     -41.883  56.810 -51.287  1.00  0.00     0.010 A 
HETATM   25  C   UNL     1     -41.241  57.791 -50.524  1.00  0.00     0.007 A 
HETATM   26  C   UNL     1     -40.373  58.708 -51.129  1.00  0.00    -0.059 A 
HETATM   27  C   UNL     1     -40.142  58.615 -52.505  1.00  0.00     0.007 A 
HETATM   28  C   UNL     1     -40.780  57.635 -53.268  1.00  0.00     0.010 A 
BRANCH  26  29
HETATM   29  C   UNL     1     -39.689  59.776 -50.311  1.00  0.00     0.034 C 
HETATM   30  C   UNL     1     -38.178  59.605 -50.295  1.00  0.00     0.010 C 
ENDBRANCH  26  29
ENDBRANCH   1  23
BRANCH   5  31
HETATM   31  C   UNL     1     -39.628  51.629 -53.138  1.00  0.00     0.085 C 
BRANCH  31  32
HETATM   32  C   UNL     1     -39.636  51.550 -51.615  1.00  0.00     0.034 C 
BRANCH  32  33
HETATM   33  C   UNL     1     -39.618  50.118 -51.097  1.00  0.00     0.164 C 
BRANCH  33  34
HETATM   34  O   UNL     1     -39.463  49.217 -52.188  1.00  0.00    -0.401 OA
HETATM   35  H   UNL     1     -38.827  49.613 -52.808  1.00  0.00     0.209 HD
ENDBRANCH  33  34
ENDBRANCH  32  33
ENDBRANCH  31  32
ENDBRANCH   5  31
TORSDOF 8
ENDMDL
MODEL 4
REMARK VINA RESULT:      -7.4     17.841     21.759
REMARK  8 active torsions:
REMARK  status: ('A' for Active; 'I' for Inactive)
REMARK    1  A    between atoms: C_2  and  C_3 
REMARK    2  A    between atoms: C_6  and  C_7 
REMARK    3  A    between atoms: C_11  and  C_12 
REMARK    4  A    between atoms: C_12  and  C_13 
REMARK    5  A    between atoms: C_13  and  C_14 
REMARK    6  A    between atoms: C_14  and  O_15 
REMARK    7  A    between atoms: C_20  and  C_21 
REMARK       I    between atoms: C_21  and  N_22 
REMARK    8  A    between atoms: N_22  and  C_23 
ROOT
HETATM    1  C   UNL     1     -33.020  40.323 -51.374  1.00  0.00     0.202 C 
HETATM    2  N   UNL     1     -32.592  39.768 -50.083  1.00  0.00    -0.083 N 
HETATM    3  C   UNL     1     -33.445  39.199 -49.179  1.00  0.00     0.726 A 
HETATM    4  N   UNL     1     -32.783  38.874 -48.098  1.00  0.00    -0.046 NA
HETATM    5  C   UNL     1     -31.508  39.310 -48.375  1.00  0.00     0.166 A 
HETATM    6  N   UNL     1     -31.345  39.881 -49.579  1.00  0.00    -0.140 NA
HETATM    7  N   UNL     1     -34.760  39.117 -49.465  1.00  0.00    -0.192 N 
HETATM    8  C   UNL     1     -35.337  39.783 -50.543  1.00  0.00     0.037 C 
HETATM    9  C   UNL     1     -36.843  39.887 -50.502  1.00  0.00     0.070 C 
HETATM   10  C   UNL     1     -34.543  40.352 -51.484  1.00  0.00     0.062 C 
HETATM   11  H   UNL     1     -35.379  38.804 -48.721  1.00  0.00     0.184 HD
ENDROOT
BRANCH  10  12
HETATM   12  C   UNL     1     -35.038  41.176 -52.622  1.00  0.00     0.256 C 
HETATM   13  N   UNL     1     -35.210  40.470 -53.793  1.00  0.00    -0.323 N 
HETATM   14  H   UNL     1     -34.973  39.487 -53.776  1.00  0.00     0.169 HD
HETATM   15  O   UNL     1     -35.224  42.373 -52.442  1.00  0.00    -0.267 OA
BRANCH  13  16
HETATM   16  C   UNL     1     -35.743  40.956 -55.005  1.00  0.00     0.035 A 
HETATM   17  C   UNL     1     -37.107  40.968 -55.307  1.00  0.00     0.031 A 
HETATM   18  C   UNL     1     -37.558  41.443 -56.544  1.00  0.00     0.026 A 
HETATM   19  C   UNL     1     -36.644  41.902 -57.488  1.00  0.00     0.034 A 
HETATM   20 CL   UNL     1     -37.197  42.468 -59.014  1.00  0.00    -0.084 Cl
HETATM   21  C   UNL     1     -35.282  41.901 -57.200  1.00  0.00     0.026 A 
HETATM   22  C   UNL     1     -34.835  41.438 -55.958  1.00  0.00     0.031 A 
ENDBRANCH  13  16
ENDBRANCH  10  12
BRANCH   1  23
HETATM   23  C   UNL     1     -32.368  39.561 -52.524  1.00  0.00    -0.028 A 
HETATM   24  C   UNL     1     -32.146  38.175 -52.470  1.00  0.00     0.010 A 
HETATM   25  C   UNL     1     -31.541  37.508 -53.539  1.00  0.00     0.007 A 
HETATM   26  C   UNL     1     -31.145  38.209 -54.685  1.00  0.00    -0.059 A 
HETATM   27  C   UNL     1     -31.383  39.586 -54.751  1.00  0.00     0.007 A 
HETATM   28  C   UNL     1     -31.990  40.254 -53.685  1.00  0.00     0.010 A 
BRANCH  26  29
HETATM   29  C   UNL     1     -30.479  37.495 -55.834  1.00  0.00     0.034 C 
HETATM   30  C   UNL     1     -29.144  38.123 -56.203  1.00  0.00     0.010 C 
ENDBRANCH  26  29
ENDBRANCH   1  23
BRANCH   5  31
HETATM   31  C   UNL     1     -30.403  39.210 -47.387  1.00  0.00     0.085 C 
BRANCH  31  32
HETATM   32  C   UNL     1     -30.813  39.572 -45.963  1.00  0.00     0.034 C 
BRANCH  32  33
HETATM   33  C   UNL     1     -30.034  40.757 -45.406  1.00  0.00     0.164 C 
BRANCH  33  34
HETATM   34  O   UNL     1     -29.274  41.361 -46.448  1.00  0.00    -0.401 OA
HETATM   35  H   UNL     1     -28.394  41.563 -46.091  1.00  0.00     0.209 HD
ENDBRANCH  33  34
ENDBRANCH  32  33
ENDBRANCH  31  32
ENDBRANCH   5  31
TORSDOF 8
ENDMDL
MODEL 5
REMARK VINA RESULT:      -7.4      3.203      6.682
REMARK  8 active torsions:
REMARK  status: ('A' for Active; 'I' for Inactive)
REMARK    1  A    between atoms: C_2  and  C_3 
REMARK    2  A    between atoms: C_6  and  C_7 
REMARK    3  A    between atoms: C_11  and  C_12 
REMARK    4  A    between atoms: C_12  and  C_13 
REMARK    5  A    between atoms: C_13  and  C_14 
REMARK    6  A    between atoms: C_14  and  O_15 
REMARK    7  A    between atoms: C_20  and  C_21 
REMARK       I    between atoms: C_21  and  N_22 
REMARK    8  A    between atoms: N_22  and  C_23 
ROOT
HETATM    1  C   UNL     1     -43.111  56.423 -55.812  1.00  0.00     0.202 C 
HETATM    2  N   UNL     1     -43.238  56.129 -57.245  1.00  0.00    -0.083 N 
HETATM    3  C   UNL     1     -42.761  56.945 -58.234  1.00  0.00     0.726 A 
HETATM    4  N   UNL     1     -43.096  56.458 -59.401  1.00  0.00    -0.046 NA
HETATM    5  C   UNL     1     -43.827  55.340 -59.071  1.00  0.00     0.166 A 
HETATM    6  N   UNL     1     -43.955  55.106 -57.756  1.00  0.00    -0.140 NA
HETATM    7  N   UNL     1     -42.123  58.086 -57.906  1.00  0.00    -0.192 N 
HETATM    8  C   UNL     1     -42.115  58.596 -56.611  1.00  0.00     0.037 C 
HETATM    9  C   UNL     1     -41.686  60.039 -56.491  1.00  0.00     0.070 C 
HETATM   10  C   UNL     1     -42.557  57.828 -55.583  1.00  0.00     0.062 C 
HETATM   11  H   UNL     1     -41.896  58.726 -58.663  1.00  0.00     0.184 HD
ENDROOT
BRANCH  10  12
HETATM   12  C   UNL     1     -42.693  58.296 -54.176  1.00  0.00     0.256 C 
HETATM   13  N   UNL     1     -43.864  58.976 -53.921  1.00  0.00    -0.323 N 
HETATM   14  H   UNL     1     -44.499  59.106 -54.697  1.00  0.00     0.169 HD
HETATM   15  O   UNL     1     -41.780  58.070 -53.392  1.00  0.00    -0.267 OA
BRANCH  13  16
HETATM   16  C   UNL     1     -44.309  59.459 -52.672  1.00  0.00     0.035 A 
HETATM   17  C   UNL     1     -44.082  60.759 -52.213  1.00  0.00     0.031 A 
HETATM   18  C   UNL     1     -44.534  61.156 -50.949  1.00  0.00     0.026 A 
HETATM   19  C   UNL     1     -45.209  60.250 -50.135  1.00  0.00     0.034 A 
HETATM   20 CL   UNL     1     -45.747  60.733 -48.576  1.00  0.00    -0.084 Cl
HETATM   21  C   UNL     1     -45.446  58.953 -50.581  1.00  0.00     0.026 A 
HETATM   22  C   UNL     1     -45.006  58.562 -51.850  1.00  0.00     0.031 A 
ENDBRANCH  13  16
ENDBRANCH  10  12
BRANCH   1  23
HETATM   23  C   UNL     1     -42.276  55.349 -55.119  1.00  0.00    -0.028 A 
HETATM   24  C   UNL     1     -42.756  54.630 -54.013  1.00  0.00     0.010 A 
HETATM   25  C   UNL     1     -41.964  53.656 -53.396  1.00  0.00     0.007 A 
HETATM   26  C   UNL     1     -40.676  53.381 -53.872  1.00  0.00    -0.059 A 
HETATM   27  C   UNL     1     -40.203  54.081 -54.987  1.00  0.00     0.007 A 
HETATM   28  C   UNL     1     -40.994  55.051 -55.605  1.00  0.00     0.010 A 
BRANCH  26  29
HETATM   29  C   UNL     1     -39.813  52.341 -53.201  1.00  0.00     0.034 C 
HETATM   30  C   UNL     1     -39.802  51.027 -53.966  1.00  0.00     0.010 C 
ENDBRANCH  26  29
ENDBRANCH   1  23
BRANCH   5  31
HETATM   31  C   UNL     1     -44.481  54.487 -60.097  1.00  0.00     0.085 C 
BRANCH  31  32
HETATM   32  C   UNL     1     -45.123  55.274 -61.235  1.00  0.00     0.034 C 
BRANCH  32  33
HETATM   33  C   UNL     1     -46.426  55.948 -60.827  1.00  0.00     0.164 C 
BRANCH  33  34
HETATM   34  O   UNL     1     -47.223  56.187 -61.982  1.00  0.00    -0.401 OA
HETATM   35  H   UNL     1     -46.991  57.068 -62.322  1.00  0.00     0.209 HD
ENDBRANCH  33  34
ENDBRANCH  32  33
ENDBRANCH  31  32
ENDBRANCH   5  31
TORSDOF 8
ENDMDL
MODEL 6
REMARK VINA RESULT:      -7.3      4.139      7.071
REMARK  8 active torsions:
REMARK  status: ('A' for Active; 'I' for Inactive)
REMARK    1  A    between atoms: C_2  and  C_3 
REMARK    2  A    between atoms: C_6  and  C_7 
REMARK    3  A    between atoms: C_11  and  C_12 
REMARK    4  A    between atoms: C_12  and  C_13 
REMARK    5  A    between atoms: C_13  and  C_14 
REMARK    6  A    between atoms: C_14  and  O_15 
REMARK    7  A    between atoms: C_20  and  C_21 
REMARK       I    between atoms: C_21  and  N_22 
REMARK    8  A    between atoms: N_22  and  C_23 
ROOT
HETATM    1  C   UNL     1     -43.299  58.413 -52.061  1.00  0.00     0.202 C 
HETATM    2  N   UNL     1     -43.704  59.452 -51.105  1.00  0.00    -0.083 N 
HETATM    3  C   UNL     1     -42.835  60.340 -50.533  1.00  0.00     0.726 A 
HETATM    4  N   UNL     1     -43.476  61.083 -49.668  1.00  0.00    -0.046 NA
HETATM    5  C   UNL     1     -44.754  60.576 -49.714  1.00  0.00     0.166 A 
HETATM    6  N   UNL     1     -44.939  59.562 -50.573  1.00  0.00    -0.140 NA
HETATM    7  N   UNL     1     -41.527  60.292 -50.855  1.00  0.00    -0.192 N 
HETATM    8  C   UNL     1     -40.968  59.239 -51.575  1.00  0.00     0.037 C 
HETATM    9  C   UNL     1     -39.462  59.155 -51.526  1.00  0.00     0.070 C 
HETATM   10  C   UNL     1     -41.779  58.336 -52.182  1.00  0.00     0.062 C 
HETATM   11  H   UNL     1     -40.894  60.880 -50.319  1.00  0.00     0.184 HD
ENDROOT
BRANCH  10  12
HETATM   12  C   UNL     1     -41.303  57.115 -52.890  1.00  0.00     0.256 C 
HETATM   13  N   UNL     1     -41.408  55.959 -52.149  1.00  0.00    -0.323 N 
HETATM   14  H   UNL     1     -41.774  56.046 -51.210  1.00  0.00     0.169 HD
HETATM   15  O   UNL     1     -40.850  57.233 -54.022  1.00  0.00    -0.267 OA
BRANCH  13  16
HETATM   16  C   UNL     1     -41.121  54.646 -52.580  1.00  0.00     0.035 A 
HETATM   17  C   UNL     1     -40.340  53.741 -51.857  1.00  0.00     0.031 A 
HETATM   18  C   UNL     1     -40.078  52.464 -52.365  1.00  0.00     0.026 A 
HETATM   19  C   UNL     1     -40.591  52.088 -53.602  1.00  0.00     0.034 A 
HETATM   20 CL   UNL     1     -40.254  50.525 -54.233  1.00  0.00    -0.084 Cl
HETATM   21  C   UNL     1     -41.375  52.977 -54.332  1.00  0.00     0.026 A 
HETATM   22  C   UNL     1     -41.647  54.249 -53.818  1.00  0.00     0.031 A 
ENDBRANCH  13  16
ENDBRANCH  10  12
BRANCH   1  23
HETATM   23  C   UNL     1     -43.979  58.637 -53.410  1.00  0.00    -0.028 A 
HETATM   24  C   UNL     1     -44.753  57.641 -54.029  1.00  0.00     0.010 A 
HETATM   25  C   UNL     1     -45.357  57.875 -55.268  1.00  0.00     0.007 A 
HETATM   26  C   UNL     1     -45.202  59.107 -55.915  1.00  0.00    -0.059 A 
HETATM   27  C   UNL     1     -44.449  60.108 -55.291  1.00  0.00     0.007 A 
HETATM   28  C   UNL     1     -43.847  59.877 -54.053  1.00  0.00     0.010 A 
BRANCH  26  29
HETATM   29  C   UNL     1     -45.841  59.359 -57.257  1.00  0.00     0.034 C 
HETATM   30  C   UNL     1     -46.842  58.275 -57.627  1.00  0.00     0.010 C 
ENDBRANCH  26  29
ENDBRANCH   1  23
BRANCH   5  31
HETATM   31  C   UNL     1     -45.840  61.079 -48.832  1.00  0.00     0.085 C 
BRANCH  31  32
HETATM   32  C   UNL     1     -45.404  61.309 -47.389  1.00  0.00     0.034 C 
BRANCH  32  33
HETATM   33  C   UNL     1     -46.272  60.564 -46.383  1.00  0.00     0.164 C 
BRANCH  33  34
HETATM   34  O   UNL     1     -47.611  61.041 -46.462  1.00  0.00    -0.401 OA
HETATM   35  H   UNL     1     -47.722  61.463 -47.331  1.00  0.00     0.209 HD
ENDBRANCH  33  34
ENDBRANCH  32  33
ENDBRANCH  31  32
ENDBRANCH   5  31
TORSDOF 8
ENDMDL
MODEL 7
REMARK VINA RESULT:      -6.9      3.644      6.722
REMARK  8 active torsions:
REMARK  status: ('A' for Active; 'I' for Inactive)
REMARK    1  A    between atoms: C_2  and  C_3 
REMARK    2  A    between atoms: C_6  and  C_7 
REMARK    3  A    between atoms: C_11  and  C_12 
REMARK    4  A    between atoms: C_12  and  C_13 
REMARK    5  A    between atoms: C_13  and  C_14 
REMARK    6  A    between atoms: C_14  and  O_15 
REMARK    7  A    between atoms: C_20  and  C_21 
REMARK       I    between atoms: C_21  and  N_22 
REMARK    8  A    between atoms: N_22  and  C_23 
ROOT
HETATM    1  C   UNL     1     -43.754  58.640 -56.620  1.00  0.00     0.202 C 
HETATM    2  N   UNL     1     -44.245  58.376 -57.979  1.00  0.00    -0.083 N 
HETATM    3  C   UNL     1     -43.638  58.845 -59.112  1.00  0.00     0.726 A 
HETATM    4  N   UNL     1     -44.352  58.515 -60.158  1.00  0.00    -0.046 NA
HETATM    5  C   UNL     1     -45.430  57.865 -59.603  1.00  0.00     0.166 A 
HETATM    6  N   UNL     1     -45.415  57.768 -58.264  1.00  0.00    -0.140 NA
HETATM    7  N   UNL     1     -42.517  59.587 -59.008  1.00  0.00    -0.192 N 
HETATM    8  C   UNL     1     -42.060  60.091 -57.794  1.00  0.00     0.037 C 
HETATM    9  C   UNL     1     -41.027  61.187 -57.902  1.00  0.00     0.070 C 
HETATM   10  C   UNL     1     -42.608  59.650 -56.634  1.00  0.00     0.062 C 
HETATM   11  H   UNL     1     -42.168  60.022 -59.858  1.00  0.00     0.184 HD
ENDROOT
BRANCH  10  12
HETATM   12  C   UNL     1     -42.277  60.187 -55.284  1.00  0.00     0.256 C 
HETATM   13  N   UNL     1     -43.135  61.171 -54.845  1.00  0.00    -0.323 N 
HETATM   14  H   UNL     1     -43.881  61.443 -55.470  1.00  0.00     0.169 HD
HETATM   15  O   UNL     1     -41.292  59.746 -54.704  1.00  0.00    -0.267 OA
BRANCH  13  16
HETATM   16  C   UNL     1     -43.127  61.801 -53.583  1.00  0.00     0.035 A 
HETATM   17  C   UNL     1     -43.136  61.113 -52.367  1.00  0.00     0.031 A 
HETATM   18  C   UNL     1     -43.153  61.811 -51.154  1.00  0.00     0.026 A 
HETATM   19  C   UNL     1     -43.169  63.202 -51.153  1.00  0.00     0.034 A 
HETATM   20 CL   UNL     1     -43.209  64.059 -49.663  1.00  0.00    -0.084 Cl
HETATM   21  C   UNL     1     -43.156  63.902 -52.356  1.00  0.00     0.026 A 
HETATM   22  C   UNL     1     -43.125  63.203 -53.567  1.00  0.00     0.031 A 
ENDBRANCH  13  16
ENDBRANCH  10  12
BRANCH   1  23
HETATM   23  C   UNL     1     -43.370  57.334 -55.929  1.00  0.00    -0.028 A 
HETATM   24  C   UNL     1     -44.056  56.858 -54.800  1.00  0.00     0.010 A 
HETATM   25  C   UNL     1     -43.675  55.661 -54.186  1.00  0.00     0.007 A 
HETATM   26  C   UNL     1     -42.602  54.914 -54.686  1.00  0.00    -0.059 A 
HETATM   27  C   UNL     1     -41.929  55.375 -55.823  1.00  0.00     0.007 A 
HETATM   28  C   UNL     1     -42.310  56.568 -56.439  1.00  0.00     0.010 A 
BRANCH  26  29
HETATM   29  C   UNL     1     -42.179  53.629 -54.019  1.00  0.00     0.034 C 
HETATM   30  C   UNL     1     -40.794  53.183 -54.460  1.00  0.00     0.010 C 
ENDBRANCH  26  29
ENDBRANCH   1  23
BRANCH   5  31
HETATM   31  C   UNL     1     -46.560  57.358 -60.424  1.00  0.00     0.085 C 
BRANCH  31  32
HETATM   32  C   UNL     1     -46.661  55.836 -60.461  1.00  0.00     0.034 C 
BRANCH  32  33
HETATM   33  C   UNL     1     -45.313  55.159 -60.675  1.00  0.00     0.164 C 
BRANCH  33  34
HETATM   34  O   UNL     1     -45.071  55.009 -62.070  1.00  0.00    -0.401 OA
HETATM   35  H   UNL     1     -45.546  54.215 -62.368  1.00  0.00     0.209 HD
ENDBRANCH  33  34
ENDBRANCH  32  33
ENDBRANCH  31  32
ENDBRANCH   5  31
TORSDOF 8
ENDMDL
MODEL 8
REMARK VINA RESULT:      -6.8     17.482     20.447
REMARK  8 active torsions:
REMARK  status: ('A' for Active; 'I' for Inactive)
REMARK    1  A    between atoms: C_2  and  C_3 
REMARK    2  A    between atoms: C_6  and  C_7 
REMARK    3  A    between atoms: C_11  and  C_12 
REMARK    4  A    between atoms: C_12  and  C_13 
REMARK    5  A    between atoms: C_13  and  C_14 
REMARK    6  A    between atoms: C_14  and  O_15 
REMARK    7  A    between atoms: C_20  and  C_21 
REMARK       I    between atoms: C_21  and  N_22 
REMARK    8  A    between atoms: N_22  and  C_23 
ROOT
HETATM    1  C   UNL     1     -35.076  39.561 -56.085  1.00  0.00     0.202 C 
HETATM    2  N   UNL     1     -35.728  40.229 -57.219  1.00  0.00    -0.083 N 
HETATM    3  C   UNL     1     -36.241  41.495 -57.163  1.00  0.00     0.726 A 
HETATM    4  N   UNL     1     -36.827  41.779 -58.298  1.00  0.00    -0.046 NA
HETATM    5  C   UNL     1     -36.680  40.617 -59.020  1.00  0.00     0.166 A 
HETATM    6  N   UNL     1     -36.024  39.630 -58.392  1.00  0.00    -0.140 NA
HETATM    7  N   UNL     1     -36.148  42.202 -56.019  1.00  0.00    -0.192 N 
HETATM    8  C   UNL     1     -35.751  41.630 -54.813  1.00  0.00     0.037 C 
HETATM    9  C   UNL     1     -36.055  42.449 -53.583  1.00  0.00     0.070 C 
HETATM   10  C   UNL     1     -35.217  40.383 -54.805  1.00  0.00     0.062 C 
HETATM   11  H   UNL     1     -36.649  43.085 -55.976  1.00  0.00     0.184 HD
ENDROOT
BRANCH  10  12
HETATM   12  C   UNL     1     -34.852  39.627 -53.574  1.00  0.00     0.256 C 
HETATM   13  N   UNL     1     -34.002  40.307 -52.729  1.00  0.00    -0.323 N 
HETATM   14  H   UNL     1     -33.699  41.226 -53.024  1.00  0.00     0.169 HD
HETATM   15  O   UNL     1     -35.299  38.496 -53.426  1.00  0.00    -0.267 OA
BRANCH  13  16
HETATM   16  C   UNL     1     -33.556  39.888 -51.459  1.00  0.00     0.035 A 
HETATM   17  C   UNL     1     -34.395  39.373 -50.467  1.00  0.00     0.031 A 
HETATM   18  C   UNL     1     -33.879  39.002 -49.221  1.00  0.00     0.026 A 
HETATM   19  C   UNL     1     -32.521  39.151 -48.957  1.00  0.00     0.034 A 
HETATM   20 CL   UNL     1     -31.891  38.713 -47.419  1.00  0.00    -0.084 Cl
HETATM   21  C   UNL     1     -31.671  39.658 -49.936  1.00  0.00     0.026 A 
HETATM   22  C   UNL     1     -32.186  40.016 -51.186  1.00  0.00     0.031 A 
ENDBRANCH  13  16
ENDBRANCH  10  12
BRANCH   1  23
HETATM   23  C   UNL     1     -33.619  39.248 -56.417  1.00  0.00    -0.028 A 
HETATM   24  C   UNL     1     -33.211  37.977 -56.854  1.00  0.00     0.010 A 
HETATM   25  C   UNL     1     -31.867  37.720 -57.144  1.00  0.00     0.007 A 
HETATM   26  C   UNL     1     -30.904  38.726 -57.005  1.00  0.00    -0.059 A 
HETATM   27  C   UNL     1     -31.310  39.999 -56.590  1.00  0.00     0.007 A 
HETATM   28  C   UNL     1     -32.651  40.257 -56.302  1.00  0.00     0.010 A 
BRANCH  26  29
HETATM   29  C   UNL     1     -29.452  38.449 -57.304  1.00  0.00     0.034 C 
HETATM   30  C   UNL     1     -28.659  38.129 -56.046  1.00  0.00     0.010 C 
ENDBRANCH  26  29
ENDBRANCH   1  23
BRANCH   5  31
HETATM   31  C   UNL     1     -37.259  40.448 -60.378  1.00  0.00     0.085 C 
BRANCH  31  32
HETATM   32  C   UNL     1     -36.769  39.200 -61.106  1.00  0.00     0.034 C 
BRANCH  32  33
HETATM   33  C   UNL     1     -37.734  38.728 -62.187  1.00  0.00     0.164 C 
BRANCH  33  34
HETATM   34  O   UNL     1     -37.272  39.161 -63.462  1.00  0.00    -0.401 OA
HETATM   35  H   UNL     1     -37.628  38.549 -64.127  1.00  0.00     0.209 HD
ENDBRANCH  33  34
ENDBRANCH  32  33
ENDBRANCH  31  32
ENDBRANCH   5  31
TORSDOF 8
ENDMDL
MODEL 9
REMARK VINA RESULT:      -6.7      4.385      8.612
REMARK  8 active torsions:
REMARK  status: ('A' for Active; 'I' for Inactive)
REMARK    1  A    between atoms: C_2  and  C_3 
REMARK    2  A    between atoms: C_6  and  C_7 
REMARK    3  A    between atoms: C_11  and  C_12 
REMARK    4  A    between atoms: C_12  and  C_13 
REMARK    5  A    between atoms: C_13  and  C_14 
REMARK    6  A    between atoms: C_14  and  O_15 
REMARK    7  A    between atoms: C_20  and  C_21 
REMARK       I    between atoms: C_21  and  N_22 
REMARK    8  A    between atoms: N_22  and  C_23 
ROOT
HETATM    1  C   UNL     1     -41.871  56.053 -53.864  1.00  0.00     0.202 C 
HETATM    2  N   UNL     1     -41.409  54.733 -53.417  1.00  0.00    -0.083 N 
HETATM    3  C   UNL     1     -41.985  54.032 -52.393  1.00  0.00     0.726 A 
HETATM    4  N   UNL     1     -41.304  52.936 -52.177  1.00  0.00    -0.046 NA
HETATM    5  C   UNL     1     -40.274  53.029 -53.085  1.00  0.00     0.166 A 
HETATM    6  N   UNL     1     -40.289  54.125 -53.859  1.00  0.00    -0.140 NA
HETATM    7  N   UNL     1     -43.046  54.552 -51.745  1.00  0.00    -0.192 N 
HETATM    8  C   UNL     1     -43.459  55.871 -51.915  1.00  0.00     0.037 C 
HETATM    9  C   UNL     1     -44.407  56.388 -50.861  1.00  0.00     0.070 C 
HETATM   10  C   UNL     1     -42.938  56.612 -52.925  1.00  0.00     0.062 C 
HETATM   11  H   UNL     1     -43.367  54.064 -50.912  1.00  0.00     0.184 HD
ENDROOT
BRANCH  10  12
HETATM   12  C   UNL     1     -43.222  58.058 -53.145  1.00  0.00     0.256 C 
HETATM   13  N   UNL     1     -44.469  58.312 -53.672  1.00  0.00    -0.323 N 
HETATM   14  H   UNL     1     -45.056  57.512 -53.871  1.00  0.00     0.169 HD
HETATM   15  O   UNL     1     -42.349  58.874 -52.875  1.00  0.00    -0.267 OA
BRANCH  13  16
HETATM   16  C   UNL     1     -45.049  59.576 -53.906  1.00  0.00     0.035 A 
HETATM   17  C   UNL     1     -45.688  60.336 -52.923  1.00  0.00     0.031 A 
HETATM   18  C   UNL     1     -46.262  61.572 -53.240  1.00  0.00     0.026 A 
HETATM   19  C   UNL     1     -46.206  62.051 -54.546  1.00  0.00     0.034 A 
HETATM   20 CL   UNL     1     -46.928  63.561 -54.938  1.00  0.00    -0.084 Cl
HETATM   21  C   UNL     1     -45.570  61.308 -55.535  1.00  0.00     0.026 A 
HETATM   22  C   UNL     1     -44.985  60.079 -55.214  1.00  0.00     0.031 A 
ENDBRANCH  13  16
ENDBRANCH  10  12
BRANCH   1  23
HETATM   23  C   UNL     1     -42.348  55.988 -55.313  1.00  0.00    -0.028 A 
HETATM   24  C   UNL     1     -42.192  57.066 -56.199  1.00  0.00     0.010 A 
HETATM   25  C   UNL     1     -42.645  56.977 -57.519  1.00  0.00     0.007 A 
HETATM   26  C   UNL     1     -43.264  55.809 -57.982  1.00  0.00    -0.059 A 
HETATM   27  C   UNL     1     -43.402  54.726 -57.108  1.00  0.00     0.007 A 
HETATM   28  C   UNL     1     -42.948  54.812 -55.791  1.00  0.00     0.010 A 
BRANCH  26  29
HETATM   29  C   UNL     1     -43.767  55.714 -59.400  1.00  0.00     0.034 C 
HETATM   30  C   UNL     1     -44.468  54.392 -59.672  1.00  0.00     0.010 C 
ENDBRANCH  26  29
ENDBRANCH   1  23
BRANCH   5  31
HETATM   31  C   UNL     1     -39.190  52.016 -53.162  1.00  0.00     0.085 C 
BRANCH  31  32
HETATM   32  C   UNL     1     -39.685  50.575 -53.082  1.00  0.00     0.034 C 
BRANCH  32  33
HETATM   33  C   UNL     1     -39.887  49.942 -54.453  1.00  0.00     0.164 C 
BRANCH  33  34
HETATM   34  O   UNL     1     -41.278  49.882 -54.751  1.00  0.00    -0.401 OA
HETATM   35  H   UNL     1     -41.533  48.944 -54.774  1.00  0.00     0.209 HD
ENDBRANCH  33  34
ENDBRANCH  32  33
ENDBRANCH  31  32
ENDBRANCH   5  31
TORSDOF 8
ENDMDL
MODEL 10
REMARK VINA RESULT:      -6.7      4.327      7.951
REMARK  8 active torsions:
REMARK  status: ('A' for Active; 'I' for Inactive)
REMARK    1  A    between atoms: C_2  and  C_3 
REMARK    2  A    between atoms: C_6  and  C_7 
REMARK    3  A    between atoms: C_11  and  C_12 
REMARK    4  A    between atoms: C_12  and  C_13 
REMARK    5  A    between atoms: C_13  and  C_14 
REMARK    6  A    between atoms: C_14  and  O_15 
REMARK    7  A    between atoms: C_20  and  C_21 
REMARK       I    between atoms: C_21  and  N_22 
REMARK    8  A    between atoms: N_22  and  C_23 
ROOT
HETATM    1  C   UNL     1     -43.011  55.880 -53.931  1.00  0.00     0.202 C 
HETATM    2  N   UNL     1     -41.959  54.856 -53.922  1.00  0.00    -0.083 N 
HETATM    3  C   UNL     1     -41.241  54.492 -55.028  1.00  0.00     0.726 A 
HETATM    4  N   UNL     1     -40.439  53.505 -54.723  1.00  0.00    -0.046 NA
HETATM    5  C   UNL     1     -40.735  53.264 -53.401  1.00  0.00     0.166 A 
HETATM    6  N   UNL     1     -41.675  54.060 -52.870  1.00  0.00    -0.140 NA
HETATM    7  N   UNL     1     -41.482  55.099 -56.207  1.00  0.00    -0.192 N 
HETATM    8  C   UNL     1     -42.582  55.928 -56.415  1.00  0.00     0.037 C 
HETATM    9  C   UNL     1     -42.904  56.218 -57.860  1.00  0.00     0.070 C 
HETATM   10  C   UNL     1     -43.323  56.338 -55.355  1.00  0.00     0.062 C 
HETATM   11  H   UNL     1     -41.021  54.718 -57.029  1.00  0.00     0.184 HD
ENDROOT
BRANCH  10  12
HETATM   12  C   UNL     1     -44.576  57.137 -55.458  1.00  0.00     0.256 C 
HETATM   13  N   UNL     1     -44.543  58.109 -56.433  1.00  0.00    -0.323 N 
HETATM   14  H   UNL     1     -43.687  58.200 -56.964  1.00  0.00     0.169 HD
HETATM   15  O   UNL     1     -45.492  56.893 -54.683  1.00  0.00    -0.267 OA
BRANCH  13  16
HETATM   16  C   UNL     1     -45.602  58.957 -56.821  1.00  0.00     0.035 A 
HETATM   17  C   UNL     1     -46.671  58.553 -57.625  1.00  0.00     0.031 A 
HETATM   18  C   UNL     1     -47.671  59.461 -57.988  1.00  0.00     0.026 A 
HETATM   19  C   UNL     1     -47.603  60.782 -57.554  1.00  0.00     0.034 A 
HETATM   20 CL   UNL     1     -48.823  61.902 -58.016  1.00  0.00    -0.084 Cl
HETATM   21  C   UNL     1     -46.547  61.199 -56.749  1.00  0.00     0.026 A 
HETATM   22  C   UNL     1     -45.555  60.286 -56.376  1.00  0.00     0.031 A 
ENDBRANCH  13  16
ENDBRANCH  10  12
BRANCH   1  23
HETATM   23  C   UNL     1     -42.633  57.041 -53.016  1.00  0.00    -0.028 A 
HETATM   24  C   UNL     1     -43.394  57.377 -51.884  1.00  0.00     0.010 A 
HETATM   25  C   UNL     1     -43.025  58.452 -51.069  1.00  0.00     0.007 A 
HETATM   26  C   UNL     1     -41.887  59.212 -51.367  1.00  0.00    -0.059 A 
HETATM   27  C   UNL     1     -41.115  58.868 -52.481  1.00  0.00     0.007 A 
HETATM   28  C   UNL     1     -41.482  57.794 -53.294  1.00  0.00     0.010 A 
BRANCH  26  29
HETATM   29  C   UNL     1     -41.493  60.380 -50.498  1.00  0.00     0.034 C 
HETATM   30  C   UNL     1     -42.581  61.440 -50.434  1.00  0.00     0.010 C 
ENDBRANCH  26  29
ENDBRANCH   1  23
BRANCH   5  31
HETATM   31  C   UNL     1     -40.102  52.160 -52.634  1.00  0.00     0.085 C 
BRANCH  31  32
HETATM   32  C   UNL     1     -39.258  51.219 -53.489  1.00  0.00     0.034 C 
BRANCH  32  33
HETATM   33  C   UNL     1     -39.913  49.859 -53.693  1.00  0.00     0.164 C 
BRANCH  33  34
HETATM   34  O   UNL     1     -39.337  48.913 -52.798  1.00  0.00    -0.401 OA
HETATM   35  H   UNL     1     -39.307  49.322 -51.917  1.00  0.00     0.209 HD
ENDBRANCH  33  34
ENDBRANCH  32  33
ENDBRANCH  31  32
ENDBRANCH   5  31
TORSDOF 8
ENDMDL
