MODEL 1
REMARK VINA RESULT:      -7.9      0.000      0.000
REMARK  6 active torsions:
REMARK  status: ('A' for Active; 'I' for Inactive)
REMARK    1  A    between atoms: C_2  and  N_3 
REMARK    2  A    between atoms: C_2  and  C_25 
REMARK       I    between atoms: N_3  and  C_4 
REMARK    3  A    between atoms: C_4  and  C_5 
REMARK    4  A    between atoms: C_5  and  N_6 
REMARK    5  A    between atoms: C_10  and  N_11 
REMARK       I    between atoms: N_11  and  C_12 
REMARK       I    between atoms: C_12  and  N_13 
REMARK    6  A    between atoms: N_13  and  C_14 
ROOT
HETATM    1  N   UNL     1     -44.026  59.628 -53.485  1.00  0.00    -0.063 N 
HETATM    2  H   UNL     1     -44.900  60.055 -53.148  1.00  0.00     0.280 HD
HETATM    3  C   UNL     1     -44.418  58.325 -54.145  1.00  0.00     0.237 C 
HETATM    4  C   UNL     1     -44.679  57.229 -53.134  1.00  0.00     0.053 C 
HETATM    5  C   UNL     1     -43.545  57.036 -52.134  1.00  0.00     0.089 C 
HETATM    6  C   UNL     1     -43.225  58.354 -51.437  1.00  0.00     0.053 C 
HETATM    7  C   UNL     1     -43.038  59.554 -52.349  1.00  0.00     0.237 C 
ENDROOT
BRANCH   1   8
HETATM    8  C   UNL     1     -43.478  60.610 -54.542  1.00  0.00     0.337 C 
BRANCH   8   9
HETATM    9  C   UNL     1     -42.420  59.981 -55.449  1.00  0.00     0.244 C 
HETATM   10  N   UNL     1     -42.778  59.877 -56.768  1.00  0.00    -0.351 N 
HETATM   11  H   UNL     1     -43.677  60.213 -57.095  1.00  0.00     0.163 HD
HETATM   12  O   UNL     1     -41.317  59.678 -55.002  1.00  0.00    -0.272 OA
BRANCH  10  13
HETATM   13  C   UNL     1     -41.880  59.374 -57.799  1.00  0.00     0.120 C 
HETATM   14  C   UNL     1     -41.818  60.307 -59.008  1.00  0.00     0.038 C 
BRANCH  13  15
HETATM   15  C   UNL     1     -42.345  57.989 -58.181  1.00  0.00     0.005 A 
HETATM   16  S   UNL     1     -42.302  57.449 -59.815  1.00  0.00    -0.104 SA
HETATM   17  C   UNL     1     -42.945  55.923 -59.401  1.00  0.00     0.050 A 
HETATM   18  C   UNL     1     -43.193  55.816 -58.051  1.00  0.00     0.008 A 
HETATM   19  C   UNL     1     -42.848  57.007 -57.348  1.00  0.00     0.017 A 
ENDBRANCH  13  15
ENDBRANCH  10  13
ENDBRANCH   8   9
ENDBRANCH   1   8
BRANCH   5  20
HETATM   20  N   UNL     1     -42.408  56.291 -52.681  1.00  0.00    -0.338 N 
HETATM   21  C   UNL     1     -42.283  54.926 -52.776  1.00  0.00     0.321 C 
HETATM   22  N   UNL     1     -40.988  54.545 -53.031  1.00  0.00    -0.309 N 
HETATM   23  O   UNL     1     -43.219  54.171 -52.558  1.00  0.00    -0.247 OA
HETATM   24  H   UNL     1     -40.279  55.252 -52.899  1.00  0.00     0.170 HD
HETATM   25  H   UNL     1     -41.702  56.832 -53.167  1.00  0.00     0.164 HD
BRANCH  22  26
HETATM   26  C   UNL     1     -40.523  53.213 -53.118  1.00  0.00     0.036 A 
HETATM   27  C   UNL     1     -40.563  52.458 -54.296  1.00  0.00     0.032 A 
HETATM   28  C   UNL     1     -40.125  51.131 -54.303  1.00  0.00     0.044 A 
HETATM   29  C   UNL     1     -39.645  50.561 -53.131  1.00  0.00     0.116 A 
HETATM   30  F   UNL     1     -39.242  49.285 -53.136  1.00  0.00    -0.206 F 
HETATM   31  C   UNL     1     -39.576  51.300 -51.958  1.00  0.00     0.044 A 
HETATM   32  C   UNL     1     -40.005  52.630 -51.953  1.00  0.00     0.032 A 
ENDBRANCH  22  26
ENDBRANCH   5  20
TORSDOF 6
ENDMDL
MODEL 2
REMARK VINA RESULT:      -7.9      3.451      7.027
REMARK  6 active torsions:
REMARK  status: ('A' for Active; 'I' for Inactive)
REMARK    1  A    between atoms: C_2  and  N_3 
REMARK    2  A    between atoms: C_2  and  C_25 
REMARK       I    between atoms: N_3  and  C_4 
REMARK    3  A    between atoms: C_4  and  C_5 
REMARK    4  A    between atoms: C_5  and  N_6 
REMARK    5  A    between atoms: C_10  and  N_11 
REMARK       I    between atoms: N_11  and  C_12 
REMARK       I    between atoms: C_12  and  N_13 
REMARK    6  A    between atoms: N_13  and  C_14 
ROOT
HETATM    1  N   UNL     1     -42.491  56.013 -50.205  1.00  0.00    -0.063 N 
HETATM    2  H   UNL     1     -42.812  56.345 -49.285  1.00  0.00     0.280 HD
HETATM    3  C   UNL     1     -41.331  56.900 -50.593  1.00  0.00     0.237 C 
HETATM    4  C   UNL     1     -41.789  58.240 -51.128  1.00  0.00     0.053 C 
HETATM    5  C   UNL     1     -42.817  58.132 -52.248  1.00  0.00     0.089 C 
HETATM    6  C   UNL     1     -44.005  57.290 -51.796  1.00  0.00     0.053 C 
HETATM    7  C   UNL     1     -43.664  55.959 -51.151  1.00  0.00     0.237 C 
ENDROOT
BRANCH   1   8
HETATM    8  C   UNL     1     -41.995  54.571 -49.964  1.00  0.00     0.337 C 
BRANCH   8   9
HETATM    9  C   UNL     1     -40.802  54.196 -50.843  1.00  0.00     0.244 C 
HETATM   10  N   UNL     1     -41.116  53.878 -52.139  1.00  0.00    -0.351 N 
HETATM   11  H   UNL     1     -42.075  53.911 -52.469  1.00  0.00     0.163 HD
HETATM   12  O   UNL     1     -39.658  54.264 -50.402  1.00  0.00    -0.272 OA
BRANCH  10  13
HETATM   13  C   UNL     1     -40.113  53.566 -53.148  1.00  0.00     0.120 C 
HETATM   14  C   UNL     1     -40.421  54.237 -54.487  1.00  0.00     0.038 C 
BRANCH  13  15
HETATM   15  C   UNL     1     -40.038  52.064 -53.276  1.00  0.00     0.005 A 
HETATM   16  S   UNL     1     -39.497  51.080 -51.970  1.00  0.00    -0.104 SA
HETATM   17  C   UNL     1     -39.699  49.647 -52.876  1.00  0.00     0.050 A 
HETATM   18  C   UNL     1     -40.164  49.900 -54.146  1.00  0.00     0.008 A 
HETATM   19  C   UNL     1     -40.359  51.292 -54.377  1.00  0.00     0.017 A 
ENDBRANCH  13  15
ENDBRANCH  10  13
ENDBRANCH   8   9
ENDBRANCH   1   8
BRANCH   5  20
HETATM   20  N   UNL     1     -42.229  57.792 -53.546  1.00  0.00    -0.338 N 
HETATM   21  C   UNL     1     -42.830  57.890 -54.778  1.00  0.00     0.321 C 
HETATM   22  N   UNL     1     -42.138  57.201 -55.744  1.00  0.00    -0.309 N 
HETATM   23  O   UNL     1     -43.904  58.453 -54.934  1.00  0.00    -0.247 OA
HETATM   24  H   UNL     1     -41.437  56.551 -55.416  1.00  0.00     0.170 HD
HETATM   25  H   UNL     1     -41.233  57.599 -53.557  1.00  0.00     0.164 HD
BRANCH  22  26
HETATM   26  C   UNL     1     -42.533  57.054 -57.093  1.00  0.00     0.036 A 
HETATM   27  C   UNL     1     -42.418  58.073 -58.046  1.00  0.00     0.032 A 
HETATM   28  C   UNL     1     -42.868  57.874 -59.354  1.00  0.00     0.044 A 
HETATM   29  C   UNL     1     -43.429  56.655 -59.709  1.00  0.00     0.116 A 
HETATM   30  F   UNL     1     -43.873  56.472 -60.957  1.00  0.00    -0.206 F 
HETATM   31  C   UNL     1     -43.531  55.623 -58.785  1.00  0.00     0.044 A 
HETATM   32  C   UNL     1     -43.073  55.818 -57.478  1.00  0.00     0.032 A 
ENDBRANCH  22  26
ENDBRANCH   5  20
TORSDOF 6
ENDMDL
MODEL 3
REMARK VINA RESULT:      -7.7      1.482      2.079
REMARK  6 active torsions:
REMARK  status: ('A' for Active; 'I' for Inactive)
REMARK    1  A    between atoms: C_2  and  N_3 
REMARK    2  A    between atoms: C_2  and  C_25 
REMARK       I    between atoms: N_3  and  C_4 
REMARK    3  A    between atoms: C_4  and  C_5 
REMARK    4  A    between atoms: C_5  and  N_6 
REMARK    5  A    between atoms: C_10  and  N_11 
REMARK       I    between atoms: N_11  and  C_12 
REMARK       I    between atoms: C_12  and  N_13 
REMARK    6  A    between atoms: N_13  and  C_14 
ROOT
HETATM    1  N   UNL     1     -44.164  58.931 -52.857  1.00  0.00    -0.063 N 
HETATM    2  H   UNL     1     -44.754  59.470 -52.208  1.00  0.00     0.280 HD
HETATM    3  C   UNL     1     -44.559  57.482 -52.683  1.00  0.00     0.237 C 
HETATM    4  C   UNL     1     -43.937  56.865 -51.448  1.00  0.00     0.053 C 
HETATM    5  C   UNL     1     -42.426  57.052 -51.367  1.00  0.00     0.089 C 
HETATM    6  C   UNL     1     -42.070  58.531 -51.474  1.00  0.00     0.053 C 
HETATM    7  C   UNL     1     -42.717  59.283 -52.624  1.00  0.00     0.237 C 
ENDROOT
BRANCH   1   8
HETATM    8  C   UNL     1     -44.562  59.419 -54.267  1.00  0.00     0.337 C 
BRANCH   8   9
HETATM    9  C   UNL     1     -44.636  58.288 -55.291  1.00  0.00     0.244 C 
HETATM   10  N   UNL     1     -43.433  57.701 -55.592  1.00  0.00    -0.351 N 
HETATM   11  H   UNL     1     -42.575  58.005 -55.143  1.00  0.00     0.163 HD
HETATM   12  O   UNL     1     -45.720  57.912 -55.728  1.00  0.00    -0.272 OA
BRANCH  10  13
HETATM   13  C   UNL     1     -43.306  56.560 -56.488  1.00  0.00     0.120 C 
HETATM   14  C   UNL     1     -42.376  55.488 -55.920  1.00  0.00     0.038 C 
BRANCH  13  15
HETATM   15  C   UNL     1     -42.822  57.073 -57.823  1.00  0.00     0.005 A 
HETATM   16  S   UNL     1     -42.990  56.134 -59.257  1.00  0.00    -0.104 SA
HETATM   17  C   UNL     1     -42.253  57.339 -60.216  1.00  0.00     0.050 A 
HETATM   18  C   UNL     1     -41.880  58.435 -59.471  1.00  0.00     0.008 A 
HETATM   19  C   UNL     1     -42.208  58.282 -58.093  1.00  0.00     0.017 A 
ENDBRANCH  13  15
ENDBRANCH  10  13
ENDBRANCH   8   9
ENDBRANCH   1   8
BRANCH   5  20
HETATM   20  N   UNL     1     -41.678  56.133 -52.229  1.00  0.00    -0.338 N 
HETATM   21  C   UNL     1     -41.649  54.762 -52.147  1.00  0.00     0.321 C 
HETATM   22  N   UNL     1     -40.619  54.226 -52.880  1.00  0.00    -0.309 N 
HETATM   23  O   UNL     1     -42.409  54.138 -51.421  1.00  0.00    -0.247 OA
HETATM   24  H   UNL     1     -39.905  54.871 -53.190  1.00  0.00     0.170 HD
HETATM   25  H   UNL     1     -41.251  56.534 -53.056  1.00  0.00     0.164 HD
BRANCH  22  26
HETATM   26  C   UNL     1     -40.281  52.855 -52.946  1.00  0.00     0.036 A 
HETATM   27  C   UNL     1     -40.449  52.073 -54.096  1.00  0.00     0.032 A 
HETATM   28  C   UNL     1     -40.134  50.712 -54.080  1.00  0.00     0.044 A 
HETATM   29  C   UNL     1     -39.649  50.134 -52.915  1.00  0.00     0.116 A 
HETATM   30  F   UNL     1     -39.363  48.827 -52.897  1.00  0.00    -0.206 F 
HETATM   31  C   UNL     1     -39.453  50.896 -51.771  1.00  0.00     0.044 A 
HETATM   32  C   UNL     1     -39.759  52.259 -51.788  1.00  0.00     0.032 A 
ENDBRANCH  22  26
ENDBRANCH   5  20
TORSDOF 6
ENDMDL
MODEL 4
REMARK VINA RESULT:      -7.7      2.383      4.430
REMARK  6 active torsions:
REMARK  status: ('A' for Active; 'I' for Inactive)
REMARK    1  A    between atoms: C_2  and  N_3 
REMARK    2  A    between atoms: C_2  and  C_25 
REMARK       I    between atoms: N_3  and  C_4 
REMARK    3  A    between atoms: C_4  and  C_5 
REMARK    4  A    between atoms: C_5  and  N_6 
REMARK    5  A    between atoms: C_10  and  N_11 
REMARK       I    between atoms: N_11  and  C_12 
REMARK       I    between atoms: C_12  and  N_13 
REMARK    6  A    between atoms: N_13  and  C_14 
ROOT
HETATM    1  N   UNL     1     -42.934  59.186 -56.301  1.00  0.00    -0.063 N 
HETATM    2  H   UNL     1     -43.718  59.662 -56.770  1.00  0.00     0.280 HD
HETATM    3  C   UNL     1     -42.112  58.546 -57.397  1.00  0.00     0.237 C 
HETATM    4  C   UNL     1     -42.728  57.256 -57.895  1.00  0.00     0.053 C 
HETATM    5  C   UNL     1     -43.055  56.266 -56.782  1.00  0.00     0.089 C 
HETATM    6  C   UNL     1     -43.943  56.924 -55.733  1.00  0.00     0.053 C 
HETATM    7  C   UNL     1     -43.476  58.278 -55.227  1.00  0.00     0.237 C 
ENDROOT
BRANCH   1   8
HETATM    8  C   UNL     1     -42.124  60.311 -55.623  1.00  0.00     0.337 C 
BRANCH   8   9
HETATM    9  C   UNL     1     -42.249  60.301 -54.100  1.00  0.00     0.244 C 
HETATM   10  N   UNL     1     -41.452  59.386 -53.461  1.00  0.00    -0.351 N 
HETATM   11  H   UNL     1     -40.824  58.784 -53.983  1.00  0.00     0.163 HD
HETATM   12  O   UNL     1     -42.963  61.120 -53.528  1.00  0.00    -0.272 OA
BRANCH  10  13
HETATM   13  C   UNL     1     -41.374  59.273 -52.011  1.00  0.00     0.120 C 
HETATM   14  C   UNL     1     -39.931  59.137 -51.525  1.00  0.00     0.038 C 
BRANCH  13  15
HETATM   15  C   UNL     1     -42.221  58.096 -51.593  1.00  0.00     0.005 A 
HETATM   16  S   UNL     1     -43.934  58.224 -51.471  1.00  0.00    -0.104 SA
HETATM   17  C   UNL     1     -44.091  56.596 -50.983  1.00  0.00     0.050 A 
HETATM   18  C   UNL     1     -42.873  55.960 -50.909  1.00  0.00     0.008 A 
HETATM   19  C   UNL     1     -41.795  56.824 -51.259  1.00  0.00     0.017 A 
ENDBRANCH  13  15
ENDBRANCH  10  13
ENDBRANCH   8   9
ENDBRANCH   1   8
BRANCH   5  20
HETATM   20  N   UNL     1     -41.882  55.540 -56.287  1.00  0.00    -0.338 N 
HETATM   21  C   UNL     1     -41.875  54.472 -55.423  1.00  0.00     0.321 C 
HETATM   22  N   UNL     1     -40.623  54.232 -54.912  1.00  0.00    -0.309 N 
HETATM   23  O   UNL     1     -42.901  53.890 -55.101  1.00  0.00    -0.247 OA
HETATM   24  H   UNL     1     -39.938  54.964 -55.042  1.00  0.00     0.170 HD
HETATM   25  H   UNL     1     -40.996  55.753 -56.731  1.00  0.00     0.164 HD
BRANCH  22  26
HETATM   26  C   UNL     1     -40.300  53.249 -53.950  1.00  0.00     0.036 A 
HETATM   27  C   UNL     1     -39.944  51.935 -54.279  1.00  0.00     0.032 A 
HETATM   28  C   UNL     1     -39.678  51.000 -53.275  1.00  0.00     0.044 A 
HETATM   29  C   UNL     1     -39.765  51.381 -51.943  1.00  0.00     0.116 A 
HETATM   30  F   UNL     1     -39.525  50.480 -50.983  1.00  0.00    -0.206 F 
HETATM   31  C   UNL     1     -40.094  52.684 -51.595  1.00  0.00     0.044 A 
HETATM   32  C   UNL     1     -40.351  53.622 -52.599  1.00  0.00     0.032 A 
ENDBRANCH  22  26
ENDBRANCH   5  20
TORSDOF 6
ENDMDL
MODEL 5
REMARK VINA RESULT:      -7.6      4.916      8.919
REMARK  6 active torsions:
REMARK  status: ('A' for Active; 'I' for Inactive)
REMARK    1  A    between atoms: C_2  and  N_3 
REMARK    2  A    between atoms: C_2  and  C_25 
REMARK       I    between atoms: N_3  and  C_4 
REMARK    3  A    between atoms: C_4  and  C_5 
REMARK    4  A    between atoms: C_5  and  N_6 
REMARK    5  A    between atoms: C_10  and  N_11 
REMARK       I    between atoms: N_11  and  C_12 
REMARK       I    between atoms: C_12  and  N_13 
REMARK    6  A    between atoms: N_13  and  C_14 
ROOT
HETATM    1  N   UNL     1     -42.552  56.267 -54.095  1.00  0.00    -0.063 N 
HETATM    2  H   UNL     1     -41.556  56.103 -53.890  1.00  0.00     0.280 HD
HETATM    3  C   UNL     1     -42.964  55.190 -55.073  1.00  0.00     0.237 C 
HETATM    4  C   UNL     1     -42.520  55.501 -56.487  1.00  0.00     0.053 C 
HETATM    5  C   UNL     1     -42.933  56.887 -56.966  1.00  0.00     0.089 C 
HETATM    6  C   UNL     1     -42.439  57.952 -55.993  1.00  0.00     0.053 C 
HETATM    7  C   UNL     1     -42.742  57.698 -54.527  1.00  0.00     0.237 C 
ENDROOT
BRANCH   1   8
HETATM    8  C   UNL     1     -43.281  56.064 -52.750  1.00  0.00     0.337 C 
BRANCH   8   9
HETATM    9  C   UNL     1     -42.851  54.789 -52.024  1.00  0.00     0.244 C 
HETATM   10  N   UNL     1     -41.497  54.581 -51.976  1.00  0.00    -0.351 N 
HETATM   11  H   UNL     1     -40.850  55.246 -52.386  1.00  0.00     0.163 HD
HETATM   12  O   UNL     1     -43.684  54.075 -51.474  1.00  0.00    -0.272 OA
BRANCH  10  13
HETATM   13  C   UNL     1     -40.888  53.464 -51.268  1.00  0.00     0.120 C 
HETATM   14  C   UNL     1     -39.753  53.918 -50.351  1.00  0.00     0.038 C 
BRANCH  13  15
HETATM   15  C   UNL     1     -40.414  52.467 -52.298  1.00  0.00     0.005 A 
HETATM   16  S   UNL     1     -39.476  51.094 -51.850  1.00  0.00    -0.104 SA
HETATM   17  C   UNL     1     -39.373  50.550 -53.465  1.00  0.00     0.050 A 
HETATM   18  C   UNL     1     -40.031  51.389 -54.335  1.00  0.00     0.008 A 
HETATM   19  C   UNL     1     -40.630  52.494 -53.663  1.00  0.00     0.017 A 
ENDBRANCH  13  15
ENDBRANCH  10  13
ENDBRANCH   8   9
ENDBRANCH   1   8
BRANCH   5  20
HETATM   20  N   UNL     1     -44.341  56.968 -57.368  1.00  0.00    -0.338 N 
HETATM   21  C   UNL     1     -44.837  56.942 -58.648  1.00  0.00     0.321 C 
HETATM   22  N   UNL     1     -46.146  57.356 -58.700  1.00  0.00    -0.309 N 
HETATM   23  O   UNL     1     -44.136  56.669 -59.612  1.00  0.00    -0.247 OA
HETATM   24  H   UNL     1     -46.501  57.823 -57.877  1.00  0.00     0.170 HD
HETATM   25  H   UNL     1     -45.029  56.894 -56.627  1.00  0.00     0.164 HD
BRANCH  22  26
HETATM   26  C   UNL     1     -46.917  57.505 -59.875  1.00  0.00     0.036 A 
HETATM   27  C   UNL     1     -47.306  56.430 -60.683  1.00  0.00     0.032 A 
HETATM   28  C   UNL     1     -48.033  56.651 -61.856  1.00  0.00     0.044 A 
HETATM   29  C   UNL     1     -48.373  57.947 -62.218  1.00  0.00     0.116 A 
HETATM   30  F   UNL     1     -49.055  58.159 -63.349  1.00  0.00    -0.206 F 
HETATM   31  C   UNL     1     -48.017  59.025 -61.418  1.00  0.00     0.044 A 
HETATM   32  C   UNL     1     -47.298  58.804 -60.241  1.00  0.00     0.032 A 
ENDBRANCH  22  26
ENDBRANCH   5  20
TORSDOF 6
ENDMDL
MODEL 6
REMARK VINA RESULT:      -7.3      1.615      2.063
REMARK  6 active torsions:
REMARK  status: ('A' for Active; 'I' for Inactive)
REMARK    1  A    between atoms: C_2  and  N_3 
REMARK    2  A    between atoms: C_2  and  C_25 
REMARK       I    between atoms: N_3  and  C_4 
REMARK    3  A    between atoms: C_4  and  C_5 
REMARK    4  A    between atoms: C_5  and  N_6 
REMARK    5  A    between atoms: C_10  and  N_11 
REMARK       I    between atoms: N_11  and  C_12 
REMARK       I    between atoms: C_12  and  N_13 
REMARK    6  A    between atoms: N_13  and  C_14 
ROOT
HETATM    1  N   UNL     1     -42.878  60.153 -52.367  1.00  0.00    -0.063 N 
HETATM    2  H   UNL     1     -43.281  60.784 -51.659  1.00  0.00     0.280 HD
HETATM    3  C   UNL     1     -43.772  58.934 -52.403  1.00  0.00     0.237 C 
HETATM    4  C   UNL     1     -43.492  57.986 -51.256  1.00  0.00     0.053 C 
HETATM    5  C   UNL     1     -42.022  57.606 -51.123  1.00  0.00     0.089 C 
HETATM    6  C   UNL     1     -41.159  58.858 -51.017  1.00  0.00     0.053 C 
HETATM    7  C   UNL     1     -41.419  59.929 -52.062  1.00  0.00     0.237 C 
ENDROOT
BRANCH   1   8
HETATM    8  C   UNL     1     -42.983  60.922 -53.701  1.00  0.00     0.337 C 
BRANCH   8   9
HETATM    9  C   UNL     1     -42.667  60.052 -54.918  1.00  0.00     0.244 C 
HETATM   10  N   UNL     1     -43.754  59.439 -55.486  1.00  0.00    -0.351 N 
HETATM   11  H   UNL     1     -44.688  59.581 -55.117  1.00  0.00     0.163 HD
HETATM   12  O   UNL     1     -41.525  59.997 -55.365  1.00  0.00    -0.272 OA
BRANCH  10  13
HETATM   13  C   UNL     1     -43.669  58.630 -56.694  1.00  0.00     0.120 C 
HETATM   14  C   UNL     1     -44.897  58.807 -57.588  1.00  0.00     0.038 C 
BRANCH  13  15
HETATM   15  C   UNL     1     -43.482  57.192 -56.275  1.00  0.00     0.005 A 
HETATM   16  S   UNL     1     -42.963  55.992 -57.397  1.00  0.00    -0.104 SA
HETATM   17  C   UNL     1     -43.011  54.764 -56.212  1.00  0.00     0.050 A 
HETATM   18  C   UNL     1     -43.414  55.244 -54.987  1.00  0.00     0.008 A 
HETATM   19  C   UNL     1     -43.686  56.643 -55.023  1.00  0.00     0.017 A 
ENDBRANCH  13  15
ENDBRANCH  10  13
ENDBRANCH   8   9
ENDBRANCH   1   8
BRANCH   5  20
HETATM   20  N   UNL     1     -41.593  56.593 -52.092  1.00  0.00    -0.338 N 
HETATM   21  C   UNL     1     -41.475  55.241 -51.878  1.00  0.00     0.321 C 
HETATM   22  N   UNL     1     -40.753  54.625 -52.871  1.00  0.00    -0.309 N 
HETATM   23  O   UNL     1     -41.895  54.705 -50.863  1.00  0.00    -0.247 OA
HETATM   24  H   UNL     1     -40.227  55.231 -53.485  1.00  0.00     0.170 HD
HETATM   25  H   UNL     1     -41.509  56.895 -53.056  1.00  0.00     0.164 HD
BRANCH  22  26
HETATM   26  C   UNL     1     -40.401  53.257 -52.904  1.00  0.00     0.036 A 
HETATM   27  C   UNL     1     -39.941  52.551 -51.786  1.00  0.00     0.032 A 
HETATM   28  C   UNL     1     -39.570  51.208 -51.899  1.00  0.00     0.044 A 
HETATM   29  C   UNL     1     -39.661  50.572 -53.129  1.00  0.00     0.116 A 
HETATM   30  F   UNL     1     -39.290  49.291 -53.238  1.00  0.00    -0.206 F 
HETATM   31  C   UNL     1     -40.137  51.247 -54.245  1.00  0.00     0.044 A 
HETATM   32  C   UNL     1     -40.517  52.588 -54.132  1.00  0.00     0.032 A 
ENDBRANCH  22  26
ENDBRANCH   5  20
TORSDOF 6
ENDMDL
MODEL 7
REMARK VINA RESULT:      -7.2      3.331      5.440
REMARK  6 active torsions:
REMARK  status: ('A' for Active; 'I' for Inactive)
REMARK    1  A    between atoms: C_2  and  N_3 
REMARK    2  A    between atoms: C_2  and  C_25 
REMARK       I    between atoms: N_3  and  C_4 
REMARK    3  A    between atoms: C_4  and  C_5 
REMARK    4  A    between atoms: C_5  and  N_6 
REMARK    5  A    between atoms: C_10  and  N_11 
REMARK       I    between atoms: N_11  and  C_12 
REMARK       I    between atoms: C_12  and  N_13 
REMARK    6  A    between atoms: N_13  and  C_14 
ROOT
HETATM    1  N   UNL     1     -43.001  57.994 -59.848  1.00  0.00    -0.063 N 
HETATM    2  H   UNL     1     -43.871  58.232 -60.345  1.00  0.00     0.280 HD
HETATM    3  C   UNL     1     -42.814  56.503 -60.017  1.00  0.00     0.237 C 
HETATM    4  C   UNL     1     -43.689  55.707 -59.071  1.00  0.00     0.053 C 
HETATM    5  C   UNL     1     -43.557  56.132 -57.613  1.00  0.00     0.089 C 
HETATM    6  C   UNL     1     -43.822  57.627 -57.472  1.00  0.00     0.053 C 
HETATM    7  C   UNL     1     -43.071  58.525 -58.439  1.00  0.00     0.237 C 
ENDROOT
BRANCH   1   8
HETATM    8  C   UNL     1     -41.886  58.753 -60.599  1.00  0.00     0.337 C 
BRANCH   8   9
HETATM    9  C   UNL     1     -42.267  60.194 -60.934  1.00  0.00     0.244 C 
HETATM   10  N   UNL     1     -41.237  61.097 -60.860  1.00  0.00    -0.351 N 
HETATM   11  H   UNL     1     -40.299  60.801 -60.612  1.00  0.00     0.163 HD
HETATM   12  O   UNL     1     -43.403  60.466 -61.312  1.00  0.00    -0.272 OA
BRANCH  10  13
HETATM   13  C   UNL     1     -41.383  62.502 -61.212  1.00  0.00     0.120 C 
HETATM   14  C   UNL     1     -41.112  62.751 -62.696  1.00  0.00     0.038 C 
BRANCH  13  15
HETATM   15  C   UNL     1     -40.453  63.299 -60.330  1.00  0.00     0.005 A 
HETATM   16  S   UNL     1     -41.015  64.057 -58.889  1.00  0.00    -0.104 SA
HETATM   17  C   UNL     1     -39.469  64.688 -58.535  1.00  0.00     0.050 A 
HETATM   18  C   UNL     1     -38.539  64.339 -59.487  1.00  0.00     0.008 A 
HETATM   19  C   UNL     1     -39.105  63.539 -60.521  1.00  0.00     0.017 A 
ENDBRANCH  13  15
ENDBRANCH  10  13
ENDBRANCH   8   9
ENDBRANCH   1   8
BRANCH   5  20
HETATM   20  N   UNL     1     -42.348  55.616 -56.964  1.00  0.00    -0.338 N 
HETATM   21  C   UNL     1     -42.285  54.691 -55.950  1.00  0.00     0.321 C 
HETATM   22  N   UNL     1     -41.047  54.664 -55.355  1.00  0.00    -0.309 N 
HETATM   23  O   UNL     1     -43.265  54.055 -55.589  1.00  0.00    -0.247 OA
HETATM   24  H   UNL     1     -40.433  55.439 -55.563  1.00  0.00     0.170 HD
HETATM   25  H   UNL     1     -41.463  55.857 -57.396  1.00  0.00     0.164 HD
BRANCH  22  26
HETATM   26  C   UNL     1     -40.685  53.871 -54.243  1.00  0.00     0.036 A 
HETATM   27  C   UNL     1     -40.734  54.328 -52.921  1.00  0.00     0.032 A 
HETATM   28  C   UNL     1     -40.321  53.504 -51.870  1.00  0.00     0.044 A 
HETATM   29  C   UNL     1     -39.863  52.222 -52.143  1.00  0.00     0.116 A 
HETATM   30  F   UNL     1     -39.454  51.441 -51.137  1.00  0.00    -0.206 F 
HETATM   31  C   UNL     1     -39.829  51.741 -53.445  1.00  0.00     0.044 A 
HETATM   32  C   UNL     1     -40.250  52.561 -54.495  1.00  0.00     0.032 A 
ENDBRANCH  22  26
ENDBRANCH   5  20
TORSDOF 6
ENDMDL
MODEL 8
REMARK VINA RESULT:      -7.2      1.547      2.038
REMARK  6 active torsions:
REMARK  status: ('A' for Active; 'I' for Inactive)
REMARK    1  A    between atoms: C_2  and  N_3 
REMARK    2  A    between atoms: C_2  and  C_25 
REMARK       I    between atoms: N_3  and  C_4 
REMARK    3  A    between atoms: C_4  and  C_5 
REMARK    4  A    between atoms: C_5  and  N_6 
REMARK    5  A    between atoms: C_10  and  N_11 
REMARK       I    between atoms: N_11  and  C_12 
REMARK       I    between atoms: C_12  and  N_13 
REMARK    6  A    between atoms: N_13  and  C_14 
ROOT
HETATM    1  N   UNL     1     -43.076  59.027 -55.337  1.00  0.00    -0.063 N 
HETATM    2  H   UNL     1     -43.982  59.518 -55.359  1.00  0.00     0.280 HD
HETATM    3  C   UNL     1     -43.353  57.609 -55.782  1.00  0.00     0.237 C 
HETATM    4  C   UNL     1     -43.947  56.768 -54.673  1.00  0.00     0.053 C 
HETATM    5  C   UNL     1     -43.143  56.807 -53.379  1.00  0.00     0.089 C 
HETATM    6  C   UNL     1     -42.945  58.248 -52.922  1.00  0.00     0.053 C 
HETATM    7  C   UNL     1     -42.443  59.213 -53.982  1.00  0.00     0.237 C 
ENDROOT
BRANCH   1   8
HETATM    8  C   UNL     1     -42.201  59.748 -56.385  1.00  0.00     0.337 C 
BRANCH   8   9
HETATM    9  C   UNL     1     -42.658  59.492 -57.821  1.00  0.00     0.244 C 
HETATM   10  N   UNL     1     -41.821  58.695 -58.560  1.00  0.00    -0.351 N 
HETATM   11  H   UNL     1     -40.976  58.305 -58.155  1.00  0.00     0.163 HD
HETATM   12  O   UNL     1     -43.737  59.922 -58.217  1.00  0.00    -0.272 OA
BRANCH  10  13
HETATM   13  C   UNL     1     -42.119  58.277 -59.923  1.00  0.00     0.120 C 
HETATM   14  C   UNL     1     -42.641  59.433 -60.775  1.00  0.00     0.038 C 
BRANCH  13  15
HETATM   15  C   UNL     1     -43.109  57.140 -59.851  1.00  0.00     0.005 A 
HETATM   16  S   UNL     1     -44.754  57.355 -60.314  1.00  0.00    -0.104 SA
HETATM   17  C   UNL     1     -45.140  55.731 -59.956  1.00  0.00     0.050 A 
HETATM   18  C   UNL     1     -44.050  55.032 -59.491  1.00  0.00     0.008 A 
HETATM   19  C   UNL     1     -42.880  55.843 -59.430  1.00  0.00     0.017 A 
ENDBRANCH  13  15
ENDBRANCH  10  13
ENDBRANCH   8   9
ENDBRANCH   1   8
BRANCH   5  20
HETATM   20  N   UNL     1     -41.948  55.959 -53.411  1.00  0.00    -0.338 N 
HETATM   21  C   UNL     1     -41.908  54.586 -53.386  1.00  0.00     0.321 C 
HETATM   22  N   UNL     1     -40.649  54.114 -53.106  1.00  0.00    -0.309 N 
HETATM   23  O   UNL     1     -42.915  53.904 -53.510  1.00  0.00    -0.247 OA
HETATM   24  H   UNL     1     -39.988  54.787 -52.744  1.00  0.00     0.170 HD
HETATM   25  H   UNL     1     -41.069  56.422 -53.613  1.00  0.00     0.164 HD
BRANCH  22  26
HETATM   26  C   UNL     1     -40.296  52.755 -52.945  1.00  0.00     0.036 A 
HETATM   27  C   UNL     1     -39.909  52.198 -51.720  1.00  0.00     0.032 A 
HETATM   28  C   UNL     1     -39.532  50.855 -51.639  1.00  0.00     0.044 A 
HETATM   29  C   UNL     1     -39.545  50.069 -52.783  1.00  0.00     0.116 A 
HETATM   30  F   UNL     1     -39.168  48.787 -52.706  1.00  0.00    -0.206 F 
HETATM   31  C   UNL     1     -39.947  50.595 -54.003  1.00  0.00     0.044 A 
HETATM   32  C   UNL     1     -40.333  51.936 -54.083  1.00  0.00     0.032 A 
ENDBRANCH  22  26
ENDBRANCH   5  20
TORSDOF 6
ENDMDL
MODEL 9
REMARK VINA RESULT:      -7.1      1.569      2.774
REMARK  6 active torsions:
REMARK  status: ('A' for Active; 'I' for Inactive)
REMARK    1  A    between atoms: C_2  and  N_3 
REMARK    2  A    between atoms: C_2  and  C_25 
REMARK       I    between atoms: N_3  and  C_4 
REMARK    3  A    between atoms: C_4  and  C_5 
REMARK    4  A    between atoms: C_5  and  N_6 
REMARK    5  A    between atoms: C_10  and  N_11 
REMARK       I    between atoms: N_11  and  C_12 
REMARK       I    between atoms: C_12  and  N_13 
REMARK    6  A    between atoms: N_13  and  C_14 
ROOT
HETATM    1  N   UNL     1     -43.267  59.716 -53.270  1.00  0.00    -0.063 N 
HETATM    2  H   UNL     1     -44.107  60.225 -52.959  1.00  0.00     0.280 HD
HETATM    3  C   UNL     1     -43.760  58.586 -54.146  1.00  0.00     0.237 C 
HETATM    4  C   UNL     1     -44.285  57.421 -53.334  1.00  0.00     0.053 C 
HETATM    5  C   UNL     1     -43.310  56.928 -52.271  1.00  0.00     0.089 C 
HETATM    6  C   UNL     1     -42.891  58.080 -51.363  1.00  0.00     0.053 C 
HETATM    7  C   UNL     1     -42.436  59.345 -52.069  1.00  0.00     0.237 C 
ENDROOT
BRANCH   1   8
HETATM    8  C   UNL     1     -42.471  60.731 -54.118  1.00  0.00     0.337 C 
BRANCH   8   9
HETATM    9  C   UNL     1     -43.079  60.959 -55.502  1.00  0.00     0.244 C 
HETATM   10  N   UNL     1     -42.337  60.470 -56.546  1.00  0.00    -0.351 N 
HETATM   11  H   UNL     1     -41.461  59.984 -56.384  1.00  0.00     0.163 HD
HETATM   12  O   UNL     1     -44.186  61.476 -55.618  1.00  0.00    -0.272 OA
BRANCH  10  13
HETATM   13  C   UNL     1     -42.781  60.525 -57.932  1.00  0.00     0.120 C 
HETATM   14  C   UNL     1     -42.970  59.129 -58.527  1.00  0.00     0.038 C 
BRANCH  13  15
HETATM   15  C   UNL     1     -41.772  61.335 -58.709  1.00  0.00     0.005 A 
HETATM   16  S   UNL     1     -41.966  61.627 -60.396  1.00  0.00    -0.104 SA
HETATM   17  C   UNL     1     -40.520  62.532 -60.476  1.00  0.00     0.050 A 
HETATM   18  C   UNL     1     -39.894  62.614 -59.253  1.00  0.00     0.008 A 
HETATM   19  C   UNL     1     -40.614  61.924 -58.235  1.00  0.00     0.017 A 
ENDBRANCH  13  15
ENDBRANCH  10  13
ENDBRANCH   8   9
ENDBRANCH   1   8
BRANCH   5  20
HETATM   20  N   UNL     1     -42.232  56.094 -52.811  1.00  0.00    -0.338 N 
HETATM   21  C   UNL     1     -42.150  54.723 -52.772  1.00  0.00     0.321 C 
HETATM   22  N   UNL     1     -40.886  54.276 -53.071  1.00  0.00    -0.309 N 
HETATM   23  O   UNL     1     -43.089  54.025 -52.417  1.00  0.00    -0.247 OA
HETATM   24  H   UNL     1     -40.151  54.969 -53.059  1.00  0.00     0.170 HD
HETATM   25  H   UNL     1     -41.548  56.560 -53.395  1.00  0.00     0.164 HD
BRANCH  22  26
HETATM   26  C   UNL     1     -40.464  52.927 -53.050  1.00  0.00     0.036 A 
HETATM   27  C   UNL     1     -39.921  52.306 -51.918  1.00  0.00     0.032 A 
HETATM   28  C   UNL     1     -39.485  50.980 -51.978  1.00  0.00     0.044 A 
HETATM   29  C   UNL     1     -39.593  50.275 -53.169  1.00  0.00     0.116 A 
HETATM   30  F   UNL     1     -39.160  49.011 -53.229  1.00  0.00    -0.206 F 
HETATM   31  C   UNL     1     -40.150  50.865 -54.296  1.00  0.00     0.044 A 
HETATM   32  C   UNL     1     -40.595  52.188 -54.235  1.00  0.00     0.032 A 
ENDBRANCH  22  26
ENDBRANCH   5  20
TORSDOF 6
ENDMDL
MODEL 10
REMARK VINA RESULT:      -7.1      4.235      6.752
REMARK  6 active torsions:
REMARK  status: ('A' for Active; 'I' for Inactive)
REMARK    1  A    between atoms: C_2  and  N_3 
REMARK    2  A    between atoms: C_2  and  C_25 
REMARK       I    between atoms: N_3  and  C_4 
REMARK    3  A    between atoms: C_4  and  C_5 
REMARK    4  A    between atoms: C_5  and  N_6 
REMARK    5  A    between atoms: C_10  and  N_11 
REMARK       I    between atoms: N_11  and  C_12 
REMARK       I    between atoms: C_12  and  N_13 
REMARK    6  A    between atoms: N_13  and  C_14 
ROOT
HETATM    1  N   UNL     1     -43.951  58.713 -52.507  1.00  0.00    -0.063 N 
HETATM    2  H   UNL     1     -44.686  59.346 -52.854  1.00  0.00     0.280 HD
HETATM    3  C   UNL     1     -42.696  59.065 -53.273  1.00  0.00     0.237 C 
HETATM    4  C   UNL     1     -42.689  58.467 -54.664  1.00  0.00     0.053 C 
HETATM    5  C   UNL     1     -42.964  56.968 -54.686  1.00  0.00     0.089 C 
HETATM    6  C   UNL     1     -44.273  56.660 -53.968  1.00  0.00     0.053 C 
HETATM    7  C   UNL     1     -44.436  57.289 -52.595  1.00  0.00     0.237 C 
ENDROOT
BRANCH   1   8
HETATM    8  C   UNL     1     -43.777  59.076 -51.016  1.00  0.00     0.337 C 
BRANCH   8   9
HETATM    9  C   UNL     1     -45.036  59.686 -50.400  1.00  0.00     0.244 C 
HETATM   10  N   UNL     1     -44.959  61.031 -50.145  1.00  0.00    -0.351 N 
HETATM   11  H   UNL     1     -44.124  61.561 -50.370  1.00  0.00     0.163 HD
HETATM   12  O   UNL     1     -46.043  59.004 -50.236  1.00  0.00    -0.272 OA
BRANCH  10  13
HETATM   13  C   UNL     1     -46.078  61.808 -49.628  1.00  0.00     0.120 C 
HETATM   14  C   UNL     1     -46.341  63.059 -50.466  1.00  0.00     0.038 C 
BRANCH  13  15
HETATM   15  C   UNL     1     -45.778  62.149 -48.188  1.00  0.00     0.005 A 
HETATM   16  S   UNL     1     -45.803  60.943 -46.958  1.00  0.00    -0.104 SA
HETATM   17  C   UNL     1     -45.396  62.074 -45.745  1.00  0.00     0.050 A 
HETATM   18  C   UNL     1     -45.245  63.344 -46.253  1.00  0.00     0.008 A 
HETATM   19  C   UNL     1     -45.465  63.388 -47.660  1.00  0.00     0.017 A 
ENDBRANCH  13  15
ENDBRANCH  10  13
ENDBRANCH   8   9
ENDBRANCH   1   8
BRANCH   5  20
HETATM   20  N   UNL     1     -41.802  56.158 -54.310  1.00  0.00    -0.338 N 
HETATM   21  C   UNL     1     -41.708  54.787 -54.334  1.00  0.00     0.321 C 
HETATM   22  N   UNL     1     -40.620  54.335 -53.628  1.00  0.00    -0.309 N 
HETATM   23  O   UNL     1     -42.564  54.086 -54.853  1.00  0.00    -0.247 OA
HETATM   24  H   UNL     1     -40.173  55.005 -53.017  1.00  0.00     0.170 HD
HETATM   25  H   UNL     1     -40.934  56.656 -54.151  1.00  0.00     0.164 HD
BRANCH  22  26
HETATM   26  C   UNL     1     -40.286  52.980 -53.408  1.00  0.00     0.036 A 
HETATM   27  C   UNL     1     -40.219  52.026 -54.431  1.00  0.00     0.032 A 
HETATM   28  C   UNL     1     -39.924  50.692 -54.139  1.00  0.00     0.044 A 
HETATM   29  C   UNL     1     -39.692  50.313 -52.824  1.00  0.00     0.116 A 
HETATM   30  F   UNL     1     -39.426  49.032 -52.544  1.00  0.00    -0.206 F 
HETATM   31  C   UNL     1     -39.731  51.247 -51.797  1.00  0.00     0.044 A 
HETATM   32  C   UNL     1     -40.018  52.584 -52.090  1.00  0.00     0.032 A 
ENDBRANCH  22  26
ENDBRANCH   5  20
TORSDOF 6
ENDMDL
