MODEL 1
REMARK VINA RESULT:      -8.1      0.000      0.000
REMARK  3 active torsions:
REMARK  status: ('A' for Active; 'I' for Inactive)
REMARK    1  A    between atoms: C_3  and  N_4 
REMARK       I    between atoms: N_4  and  C_5 
REMARK    2  A    between atoms: C_5  and  C_6 
REMARK    3  A    between atoms: C_6  and  C_7 
ROOT
HETATM    1  C   UNL     1     -42.349  54.373 -51.567  1.00  0.00     0.286 C 
HETATM    2  N   UNL     1     -41.353  55.407 -52.079  1.00  0.00    -0.056 N 
HETATM    3  H   UNL     1     -40.992  55.897 -51.233  1.00  0.00     0.278 HD
HETATM    4  H   UNL     1     -40.542  54.945 -52.506  1.00  0.00     0.278 HD
HETATM    5  C   UNL     1     -41.988  56.390 -53.030  1.00  0.00     0.209 C 
HETATM    6  C   UNL     1     -43.151  57.116 -52.304  1.00  0.00     0.115 C 
HETATM    7  N   UNL     1     -44.062  56.178 -51.647  1.00  0.00    -0.353 N 
HETATM    8  C   UNL     1     -43.666  55.002 -51.057  1.00  0.00     0.249 C 
HETATM    9  O   UNL     1     -44.394  54.448 -50.241  1.00  0.00    -0.271 OA
HETATM   10  C   UNL     1     -40.922  57.350 -53.555  1.00  0.00     0.035 C 
HETATM   11  C   UNL     1     -40.454  58.359 -52.510  1.00  0.00     0.002 C 
HETATM   12  C   UNL     1     -41.629  59.108 -51.893  1.00  0.00     0.002 C 
HETATM   13  C   UNL     1     -42.650  58.152 -51.286  1.00  0.00     0.027 C 
HETATM   14  H   UNL     1     -44.940  56.539 -51.279  1.00  0.00     0.163 HD
ENDROOT
BRANCH   1  15
HETATM   15  C   UNL     1     -41.713  53.468 -50.505  1.00  0.00     0.146 C 
BRANCH  15  16
HETATM   16  C   UNL     1     -40.212  53.637 -50.515  1.00  0.00     0.224 C 
HETATM   17  N   UNL     1     -39.406  52.854 -51.279  1.00  0.00    -0.327 N 
HETATM   18  H   UNL     1     -38.428  52.928 -51.018  1.00  0.00     0.169 HD
HETATM   19  O   UNL     1     -39.716  54.504 -49.781  1.00  0.00    -0.273 OA
BRANCH  17  20
HETATM   20  C   UNL     1     -39.697  51.927 -52.301  1.00  0.00     0.040 A 
HETATM   21  C   UNL     1     -39.628  50.550 -52.003  1.00  0.00    -0.035 A 
HETATM   22  C   UNL     1     -39.302  50.034 -50.627  1.00  0.00     0.050 C 
HETATM   23  C   UNL     1     -39.882  49.611 -53.020  1.00  0.00     0.009 A 
HETATM   24  C   UNL     1     -40.192  50.024 -54.312  1.00  0.00     0.001 A 
HETATM   25  C   UNL     1     -40.236  51.379 -54.611  1.00  0.00     0.002 A 
HETATM   26  C   UNL     1     -39.982  52.325 -53.614  1.00  0.00     0.030 A 
ENDBRANCH  17  20
ENDBRANCH  15  16
ENDBRANCH   1  15
TORSDOF 3
ENDMDL
MODEL 2
REMARK VINA RESULT:      -7.8      2.378      2.946
REMARK  3 active torsions:
REMARK  status: ('A' for Active; 'I' for Inactive)
REMARK    1  A    between atoms: C_3  and  N_4 
REMARK       I    between atoms: N_4  and  C_5 
REMARK    2  A    between atoms: C_5  and  C_6 
REMARK    3  A    between atoms: C_6  and  C_7 
ROOT
HETATM    1  C   UNL     1     -43.625  54.623 -54.217  1.00  0.00     0.286 C 
HETATM    2  N   UNL     1     -43.776  55.918 -55.007  1.00  0.00    -0.056 N 
HETATM    3  H   UNL     1     -42.823  56.338 -55.048  1.00  0.00     0.278 HD
HETATM    4  H   UNL     1     -44.039  55.719 -55.979  1.00  0.00     0.278 HD
HETATM    5  C   UNL     1     -44.748  56.872 -54.360  1.00  0.00     0.209 C 
HETATM    6  C   UNL     1     -44.254  57.201 -52.926  1.00  0.00     0.115 C 
HETATM    7  N   UNL     1     -43.934  55.995 -52.163  1.00  0.00    -0.353 N 
HETATM    8  C   UNL     1     -43.387  54.859 -52.708  1.00  0.00     0.249 C 
HETATM    9  O   UNL     1     -42.830  54.038 -51.988  1.00  0.00    -0.271 OA
HETATM   10  C   UNL     1     -44.901  58.114 -55.236  1.00  0.00     0.035 C 
HETATM   11  C   UNL     1     -43.678  59.026 -55.207  1.00  0.00     0.002 C 
HETATM   12  C   UNL     1     -43.291  59.392 -53.779  1.00  0.00     0.002 C 
HETATM   13  C   UNL     1     -43.047  58.152 -52.927  1.00  0.00     0.027 C 
HETATM   14  H   UNL     1     -43.754  56.092 -51.166  1.00  0.00     0.163 HD
ENDROOT
BRANCH   1  15
HETATM   15  C   UNL     1     -42.538  53.727 -54.823  1.00  0.00     0.146 C 
BRANCH  15  16
HETATM   16  C   UNL     1     -41.179  54.348 -54.610  1.00  0.00     0.224 C 
HETATM   17  N   UNL     1     -40.180  53.687 -53.969  1.00  0.00    -0.327 N 
HETATM   18  H   UNL     1     -39.413  54.298 -53.705  1.00  0.00     0.169 HD
HETATM   19  O   UNL     1     -40.992  55.504 -55.017  1.00  0.00    -0.273 OA
BRANCH  17  20
HETATM   20  C   UNL     1     -40.059  52.343 -53.557  1.00  0.00     0.040 A 
HETATM   21  C   UNL     1     -39.805  52.075 -52.195  1.00  0.00    -0.035 A 
HETATM   22  C   UNL     1     -39.703  53.164 -51.160  1.00  0.00     0.050 C 
HETATM   23  C   UNL     1     -39.649  50.742 -51.773  1.00  0.00     0.009 A 
HETATM   24  C   UNL     1     -39.735  49.690 -52.680  1.00  0.00     0.001 A 
HETATM   25  C   UNL     1     -39.961  49.956 -54.024  1.00  0.00     0.002 A 
HETATM   26  C   UNL     1     -40.115  51.275 -54.461  1.00  0.00     0.030 A 
ENDBRANCH  17  20
ENDBRANCH  15  16
ENDBRANCH   1  15
TORSDOF 3
ENDMDL
MODEL 3
REMARK VINA RESULT:      -7.7      1.840      2.398
REMARK  3 active torsions:
REMARK  status: ('A' for Active; 'I' for Inactive)
REMARK    1  A    between atoms: C_3  and  N_4 
REMARK       I    between atoms: N_4  and  C_5 
REMARK    2  A    between atoms: C_5  and  C_6 
REMARK    3  A    between atoms: C_6  and  C_7 
ROOT
HETATM    1  C   UNL     1     -42.991  55.101 -53.298  1.00  0.00     0.286 C 
HETATM    2  N   UNL     1     -42.171  56.359 -53.559  1.00  0.00    -0.056 N 
HETATM    3  H   UNL     1     -41.188  56.113 -53.312  1.00  0.00     0.278 HD
HETATM    4  H   UNL     1     -42.163  56.584 -54.560  1.00  0.00     0.278 HD
HETATM    5  C   UNL     1     -42.645  57.531 -52.738  1.00  0.00     0.209 C 
HETATM    6  C   UNL     1     -42.555  57.163 -51.233  1.00  0.00     0.115 C 
HETATM    7  N   UNL     1     -43.187  55.877 -50.941  1.00  0.00    -0.353 N 
HETATM    8  C   UNL     1     -43.175  54.799 -51.794  1.00  0.00     0.249 C 
HETATM    9  O   UNL     1     -43.405  53.674 -51.366  1.00  0.00    -0.271 OA
HETATM   10  C   UNL     1     -41.826  58.769 -53.098  1.00  0.00     0.035 C 
HETATM   11  C   UNL     1     -40.396  58.721 -52.567  1.00  0.00     0.002 C 
HETATM   12  C   UNL     1     -40.368  58.447 -51.068  1.00  0.00     0.002 C 
HETATM   13  C   UNL     1     -41.108  57.160 -50.717  1.00  0.00     0.027 C 
HETATM   14  H   UNL     1     -43.322  55.619 -49.965  1.00  0.00     0.163 HD
ENDROOT
BRANCH   1  15
HETATM   15  C   UNL     1     -42.409  53.895 -54.045  1.00  0.00     0.146 C 
BRANCH  15  16
HETATM   16  C   UNL     1     -40.992  54.189 -54.478  1.00  0.00     0.224 C 
HETATM   17  N   UNL     1     -39.948  53.410 -54.092  1.00  0.00    -0.327 N 
HETATM   18  H   UNL     1     -39.048  53.848 -54.268  1.00  0.00     0.169 HD
HETATM   19  O   UNL     1     -40.791  55.187 -55.185  1.00  0.00    -0.273 OA
BRANCH  17  20
HETATM   20  C   UNL     1     -39.901  52.159 -53.444  1.00  0.00     0.040 A 
HETATM   21  C   UNL     1     -39.815  52.130 -52.036  1.00  0.00    -0.035 A 
HETATM   22  C   UNL     1     -39.817  53.382 -51.199  1.00  0.00     0.050 C 
HETATM   23  C   UNL     1     -39.733  50.891 -51.375  1.00  0.00     0.009 A 
HETATM   24  C   UNL     1     -39.730  49.698 -52.091  1.00  0.00     0.001 A 
HETATM   25  C   UNL     1     -39.791  49.728 -53.478  1.00  0.00     0.002 A 
HETATM   26  C   UNL     1     -39.867  50.950 -54.151  1.00  0.00     0.030 A 
ENDBRANCH  17  20
ENDBRANCH  15  16
ENDBRANCH   1  15
TORSDOF 3
ENDMDL
MODEL 4
REMARK VINA RESULT:      -7.6      3.921      4.967
REMARK  3 active torsions:
REMARK  status: ('A' for Active; 'I' for Inactive)
REMARK    1  A    between atoms: C_3  and  N_4 
REMARK       I    between atoms: N_4  and  C_5 
REMARK    2  A    between atoms: C_5  and  C_6 
REMARK    3  A    between atoms: C_6  and  C_7 
ROOT
HETATM    1  C   UNL     1     -42.322  56.946 -55.256  1.00  0.00     0.286 C 
HETATM    2  N   UNL     1     -42.528  56.173 -56.553  1.00  0.00    -0.056 N 
HETATM    3  H   UNL     1     -41.584  56.095 -56.989  1.00  0.00     0.278 HD
HETATM    4  H   UNL     1     -42.829  55.212 -56.356  1.00  0.00     0.278 HD
HETATM    5  C   UNL     1     -43.486  56.868 -57.487  1.00  0.00     0.209 C 
HETATM    6  C   UNL     1     -42.937  58.282 -57.814  1.00  0.00     0.115 C 
HETATM    7  N   UNL     1     -42.565  59.022 -56.609  1.00  0.00    -0.353 N 
HETATM    8  C   UNL     1     -42.023  58.445 -55.485  1.00  0.00     0.249 C 
HETATM    9  O   UNL     1     -41.423  59.135 -54.668  1.00  0.00    -0.271 OA
HETATM   10  C   UNL     1     -43.696  56.008 -58.732  1.00  0.00     0.035 C 
HETATM   11  C   UNL     1     -42.488  55.992 -59.664  1.00  0.00     0.002 C 
HETATM   12  C   UNL     1     -42.046  57.405 -60.027  1.00  0.00     0.002 C 
HETATM   13  C   UNL     1     -41.746  58.237 -58.785  1.00  0.00     0.027 C 
HETATM   14  H   UNL     1     -42.344  60.011 -56.702  1.00  0.00     0.163 HD
ENDROOT
BRANCH   1  15
HETATM   15  C   UNL     1     -41.248  56.288 -54.382  1.00  0.00     0.146 C 
BRANCH  15  16
HETATM   16  C   UNL     1     -41.793  56.032 -52.997  1.00  0.00     0.224 C 
HETATM   17  N   UNL     1     -41.755  54.798 -52.428  1.00  0.00    -0.327 N 
HETATM   18  H   UNL     1     -42.349  54.729 -51.607  1.00  0.00     0.169 HD
HETATM   19  O   UNL     1     -42.308  56.978 -52.386  1.00  0.00    -0.273 OA
BRANCH  17  20
HETATM   20  C   UNL     1     -41.103  53.609 -52.812  1.00  0.00     0.040 A 
HETATM   21  C   UNL     1     -40.176  53.029 -51.920  1.00  0.00    -0.035 A 
HETATM   22  C   UNL     1     -39.892  53.605 -50.558  1.00  0.00     0.050 C 
HETATM   23  C   UNL     1     -39.491  51.860 -52.300  1.00  0.00     0.009 A 
HETATM   24  C   UNL     1     -39.712  51.276 -53.544  1.00  0.00     0.001 A 
HETATM   25  C   UNL     1     -40.606  51.860 -54.431  1.00  0.00     0.002 A 
HETATM   26  C   UNL     1     -41.291  53.024 -54.071  1.00  0.00     0.030 A 
ENDBRANCH  17  20
ENDBRANCH  15  16
ENDBRANCH   1  15
TORSDOF 3
ENDMDL
MODEL 5
REMARK VINA RESULT:      -7.3      2.289      3.797
REMARK  3 active torsions:
REMARK  status: ('A' for Active; 'I' for Inactive)
REMARK    1  A    between atoms: C_3  and  N_4 
REMARK       I    between atoms: N_4  and  C_5 
REMARK    2  A    between atoms: C_5  and  C_6 
REMARK    3  A    between atoms: C_6  and  C_7 
ROOT
HETATM    1  C   UNL     1     -40.944  57.631 -51.270  1.00  0.00     0.286 C 
HETATM    2  N   UNL     1     -41.916  58.544 -50.532  1.00  0.00    -0.056 N 
HETATM    3  H   UNL     1     -42.855  58.103 -50.636  1.00  0.00     0.278 HD
HETATM    4  H   UNL     1     -41.715  58.546 -49.525  1.00  0.00     0.278 HD
HETATM    5  C   UNL     1     -41.923  59.944 -51.092  1.00  0.00     0.209 C 
HETATM    6  C   UNL     1     -42.314  59.886 -52.592  1.00  0.00     0.115 C 
HETATM    7  N   UNL     1     -41.523  58.902 -53.331  1.00  0.00    -0.353 N 
HETATM    8  C   UNL     1     -41.090  57.708 -52.807  1.00  0.00     0.249 C 
HETATM    9  O   UNL     1     -40.746  56.797 -53.552  1.00  0.00    -0.271 OA
HETATM   10  C   UNL     1     -42.864  60.818 -50.265  1.00  0.00     0.035 C 
HETATM   11  C   UNL     1     -44.339  60.504 -50.498  1.00  0.00     0.002 C 
HETATM   12  C   UNL     1     -44.690  60.549 -51.981  1.00  0.00     0.002 C 
HETATM   13  C   UNL     1     -43.811  59.606 -52.796  1.00  0.00     0.027 C 
HETATM   14  H   UNL     1     -41.590  58.897 -54.347  1.00  0.00     0.163 HD
ENDROOT
BRANCH   1  15
HETATM   15  C   UNL     1     -41.051  56.186 -50.768  1.00  0.00     0.146 C 
BRANCH  15  16
HETATM   16  C   UNL     1     -42.392  55.604 -51.148  1.00  0.00     0.224 C 
HETATM   17  N   UNL     1     -42.499  54.513 -51.949  1.00  0.00    -0.327 N 
HETATM   18  H   UNL     1     -43.444  54.374 -52.296  1.00  0.00     0.169 HD
HETATM   19  O   UNL     1     -43.414  56.165 -50.727  1.00  0.00    -0.273 OA
BRANCH  17  20
HETATM   20  C   UNL     1     -41.535  53.601 -52.426  1.00  0.00     0.040 A 
HETATM   21  C   UNL     1     -41.507  53.307 -53.806  1.00  0.00    -0.035 A 
HETATM   22  C   UNL     1     -42.438  53.962 -54.793  1.00  0.00     0.050 C 
HETATM   23  C   UNL     1     -40.574  52.375 -54.294  1.00  0.00     0.009 A 
HETATM   24  C   UNL     1     -39.684  51.738 -53.434  1.00  0.00     0.001 A 
HETATM   25  C   UNL     1     -39.727  52.010 -52.073  1.00  0.00     0.002 A 
HETATM   26  C   UNL     1     -40.652  52.930 -51.571  1.00  0.00     0.030 A 
ENDBRANCH  17  20
ENDBRANCH  15  16
ENDBRANCH   1  15
TORSDOF 3
ENDMDL
MODEL 6
REMARK VINA RESULT:      -7.2      3.028      4.470
REMARK  3 active torsions:
REMARK  status: ('A' for Active; 'I' for Inactive)
REMARK    1  A    between atoms: C_3  and  N_4 
REMARK       I    between atoms: N_4  and  C_5 
REMARK    2  A    between atoms: C_5  and  C_6 
REMARK    3  A    between atoms: C_6  and  C_7 
ROOT
HETATM    1  C   UNL     1     -42.136  58.082 -52.991  1.00  0.00     0.286 C 
HETATM    2  N   UNL     1     -43.276  57.793 -53.961  1.00  0.00    -0.056 N 
HETATM    3  H   UNL     1     -42.865  57.197 -54.712  1.00  0.00     0.278 HD
HETATM    4  H   UNL     1     -43.998  57.220 -53.509  1.00  0.00     0.278 HD
HETATM    5  C   UNL     1     -43.862  59.053 -54.546  1.00  0.00     0.209 C 
HETATM    6  C   UNL     1     -42.744  59.834 -55.287  1.00  0.00     0.115 C 
HETATM    7  N   UNL     1     -41.550  60.005 -54.459  1.00  0.00    -0.353 N 
HETATM    8  C   UNL     1     -41.094  59.072 -53.558  1.00  0.00     0.249 C 
HETATM    9  O   UNL     1     -39.934  59.113 -53.164  1.00  0.00    -0.271 OA
HETATM   10  C   UNL     1     -45.038  58.693 -55.452  1.00  0.00     0.035 C 
HETATM   11  C   UNL     1     -44.610  58.046 -56.766  1.00  0.00     0.002 C 
HETATM   12  C   UNL     1     -43.578  58.898 -57.497  1.00  0.00     0.002 C 
HETATM   13  C   UNL     1     -42.360  59.180 -56.623  1.00  0.00     0.027 C 
HETATM   14  H   UNL     1     -40.823  60.636 -54.791  1.00  0.00     0.163 HD
ENDROOT
BRANCH   1  15
HETATM   15  C   UNL     1     -41.474  56.785 -52.511  1.00  0.00     0.146 C 
BRANCH  15  16
HETATM   16  C   UNL     1     -42.482  55.927 -51.785  1.00  0.00     0.224 C 
HETATM   17  N   UNL     1     -42.478  54.573 -51.887  1.00  0.00    -0.327 N 
HETATM   18  H   UNL     1     -43.333  54.151 -51.535  1.00  0.00     0.169 HD
HETATM   19  O   UNL     1     -43.346  56.493 -51.099  1.00  0.00    -0.273 OA
BRANCH  17  20
HETATM   20  C   UNL     1     -41.543  53.678 -52.447  1.00  0.00     0.040 A 
HETATM   21  C   UNL     1     -41.630  53.385 -53.825  1.00  0.00    -0.035 A 
HETATM   22  C   UNL     1     -42.653  54.025 -54.726  1.00  0.00     0.050 C 
HETATM   23  C   UNL     1     -40.727  52.469 -54.394  1.00  0.00     0.009 A 
HETATM   24  C   UNL     1     -39.756  51.846 -53.615  1.00  0.00     0.001 A 
HETATM   25  C   UNL     1     -39.686  52.116 -52.255  1.00  0.00     0.002 A 
HETATM   26  C   UNL     1     -40.579  53.020 -51.673  1.00  0.00     0.030 A 
ENDBRANCH  17  20
ENDBRANCH  15  16
ENDBRANCH   1  15
TORSDOF 3
ENDMDL
MODEL 7
REMARK VINA RESULT:      -7.2     13.789     16.172
REMARK  3 active torsions:
REMARK  status: ('A' for Active; 'I' for Inactive)
REMARK    1  A    between atoms: C_3  and  N_4 
REMARK       I    between atoms: N_4  and  C_5 
REMARK    2  A    between atoms: C_5  and  C_6 
REMARK    3  A    between atoms: C_6  and  C_7 
ROOT
HETATM    1  C   UNL     1     -34.228  40.551 -55.023  1.00  0.00     0.286 C 
HETATM    2  N   UNL     1     -34.657  40.547 -53.561  1.00  0.00    -0.056 N 
HETATM    3  H   UNL     1     -34.257  41.415 -53.145  1.00  0.00     0.278 HD
HETATM    4  H   UNL     1     -35.677  40.640 -53.483  1.00  0.00     0.278 HD
HETATM    5  C   UNL     1     -34.161  39.330 -52.822  1.00  0.00     0.209 C 
HETATM    6  C   UNL     1     -32.612  39.287 -52.902  1.00  0.00     0.115 C 
HETATM    7  N   UNL     1     -32.125  39.451 -54.272  1.00  0.00    -0.353 N 
HETATM    8  C   UNL     1     -32.724  40.253 -55.213  1.00  0.00     0.249 C 
HETATM    9  O   UNL     1     -32.095  40.616 -56.201  1.00  0.00    -0.271 OA
HETATM   10  C   UNL     1     -34.683  39.357 -51.387  1.00  0.00     0.035 C 
HETATM   11  C   UNL     1     -33.999  40.408 -50.517  1.00  0.00     0.002 C 
HETATM   12  C   UNL     1     -32.482  40.265 -50.560  1.00  0.00     0.002 C 
HETATM   13  C   UNL     1     -31.950  40.330 -51.988  1.00  0.00     0.027 C 
HETATM   14  H   UNL     1     -31.138  39.281 -54.454  1.00  0.00     0.163 HD
ENDROOT
BRANCH   1  15
HETATM   15  C   UNL     1     -34.633  41.858 -55.716  1.00  0.00     0.146 C 
BRANCH  15  16
HETATM   16  C   UNL     1     -36.033  42.248 -55.306  1.00  0.00     0.224 C 
HETATM   17  N   UNL     1     -37.079  42.178 -56.170  1.00  0.00    -0.327 N 
HETATM   18  H   UNL     1     -37.899  42.674 -55.833  1.00  0.00     0.169 HD
HETATM   19  O   UNL     1     -36.211  42.663 -54.153  1.00  0.00    -0.273 OA
BRANCH  17  20
HETATM   20  C   UNL     1     -37.198  41.606 -57.454  1.00  0.00     0.040 A 
HETATM   21  C   UNL     1     -37.353  40.207 -57.558  1.00  0.00    -0.035 A 
HETATM   22  C   UNL     1     -37.441  39.309 -56.352  1.00  0.00     0.050 C 
HETATM   23  C   UNL     1     -37.439  39.616 -58.832  1.00  0.00     0.009 A 
HETATM   24  C   UNL     1     -37.368  40.391 -59.986  1.00  0.00     0.001 A 
HETATM   25  C   UNL     1     -37.192  41.765 -59.882  1.00  0.00     0.002 A 
HETATM   26  C   UNL     1     -37.099  42.367 -58.625  1.00  0.00     0.030 A 
ENDBRANCH  17  20
ENDBRANCH  15  16
ENDBRANCH   1  15
TORSDOF 3
ENDMDL
MODEL 8
REMARK VINA RESULT:      -7.1      4.004      5.615
REMARK  3 active torsions:
REMARK  status: ('A' for Active; 'I' for Inactive)
REMARK    1  A    between atoms: C_3  and  N_4 
REMARK       I    between atoms: N_4  and  C_5 
REMARK    2  A    between atoms: C_5  and  C_6 
REMARK    3  A    between atoms: C_6  and  C_7 
ROOT
HETATM    1  C   UNL     1     -43.027  56.874 -55.243  1.00  0.00     0.286 C 
HETATM    2  N   UNL     1     -43.267  56.217 -56.597  1.00  0.00    -0.056 N 
HETATM    3  H   UNL     1     -42.327  55.920 -56.939  1.00  0.00     0.278 HD
HETATM    4  H   UNL     1     -43.814  55.356 -56.489  1.00  0.00     0.278 HD
HETATM    5  C   UNL     1     -43.914  57.158 -57.582  1.00  0.00     0.209 C 
HETATM    6  C   UNL     1     -43.004  58.400 -57.768  1.00  0.00     0.115 C 
HETATM    7  N   UNL     1     -42.601  58.986 -56.489  1.00  0.00    -0.353 N 
HETATM    8  C   UNL     1     -42.348  58.257 -55.352  1.00  0.00     0.249 C 
HETATM    9  O   UNL     1     -41.694  58.750 -54.439  1.00  0.00    -0.271 OA
HETATM   10  C   UNL     1     -44.186  56.418 -58.889  1.00  0.00     0.035 C 
HETATM   11  C   UNL     1     -42.921  56.131 -59.693  1.00  0.00     0.002 C 
HETATM   12  C   UNL     1     -42.110  57.400 -59.925  1.00  0.00     0.002 C 
HETATM   13  C   UNL     1     -41.758  58.091 -58.613  1.00  0.00     0.027 C 
HETATM   14  H   UNL     1     -42.136  59.892 -56.501  1.00  0.00     0.163 HD
ENDROOT
BRANCH   1  15
HETATM   15  C   UNL     1     -42.252  55.941 -54.304  1.00  0.00     0.146 C 
BRANCH  15  16
HETATM   16  C   UNL     1     -43.143  54.812 -53.846  1.00  0.00     0.224 C 
HETATM   17  N   UNL     1     -42.862  54.081 -52.736  1.00  0.00    -0.327 N 
HETATM   18  H   UNL     1     -43.413  53.229 -52.678  1.00  0.00     0.169 HD
HETATM   19  O   UNL     1     -44.143  54.541 -54.527  1.00  0.00    -0.273 OA
BRANCH  17  20
HETATM   20  C   UNL     1     -41.912  54.263 -51.709  1.00  0.00     0.040 A 
HETATM   21  C   UNL     1     -40.698  53.547 -51.778  1.00  0.00    -0.035 A 
HETATM   22  C   UNL     1     -40.361  52.633 -52.926  1.00  0.00     0.050 C 
HETATM   23  C   UNL     1     -39.753  53.691 -50.746  1.00  0.00     0.009 A 
HETATM   24  C   UNL     1     -40.003  54.524 -49.659  1.00  0.00     0.001 A 
HETATM   25  C   UNL     1     -41.208  55.209 -49.580  1.00  0.00     0.002 A 
HETATM   26  C   UNL     1     -42.160  55.074 -50.595  1.00  0.00     0.030 A 
ENDBRANCH  17  20
ENDBRANCH  15  16
ENDBRANCH   1  15
TORSDOF 3
ENDMDL
MODEL 9
REMARK VINA RESULT:      -7.0     13.938     15.851
REMARK  3 active torsions:
REMARK  status: ('A' for Active; 'I' for Inactive)
REMARK    1  A    between atoms: C_3  and  N_4 
REMARK       I    between atoms: N_4  and  C_5 
REMARK    2  A    between atoms: C_5  and  C_6 
REMARK    3  A    between atoms: C_6  and  C_7 
ROOT
HETATM    1  C   UNL     1     -36.651  39.993 -54.920  1.00  0.00     0.286 C 
HETATM    2  N   UNL     1     -36.880  39.582 -56.370  1.00  0.00    -0.056 N 
HETATM    3  H   UNL     1     -35.998  39.817 -56.874  1.00  0.00     0.278 HD
HETATM    4  H   UNL     1     -36.986  38.564 -56.444  1.00  0.00     0.278 HD
HETATM    5  C   UNL     1     -38.051  40.301 -56.990  1.00  0.00     0.209 C 
HETATM    6  C   UNL     1     -37.798  41.830 -56.924  1.00  0.00     0.115 C 
HETATM    7  N   UNL     1     -37.411  42.269 -55.583  1.00  0.00    -0.353 N 
HETATM    8  C   UNL     1     -36.644  41.525 -54.719  1.00  0.00     0.249 C 
HETATM    9  O   UNL     1     -36.075  42.068 -53.779  1.00  0.00    -0.271 OA
HETATM   10  C   UNL     1     -38.264  39.794 -58.414  1.00  0.00     0.035 C 
HETATM   11  C   UNL     1     -37.196  40.276 -59.392  1.00  0.00     0.002 C 
HETATM   12  C   UNL     1     -37.051  41.793 -59.353  1.00  0.00     0.002 C 
HETATM   13  C   UNL     1     -36.746  42.293 -57.945  1.00  0.00     0.027 C 
HETATM   14  H   UNL     1     -37.376  43.269 -55.396  1.00  0.00     0.163 HD
ENDROOT
BRANCH   1  15
HETATM   15  C   UNL     1     -35.380  39.347 -54.355  1.00  0.00     0.146 C 
BRANCH  15  16
HETATM   16  C   UNL     1     -34.159  40.071 -54.871  1.00  0.00     0.224 C 
HETATM   17  N   UNL     1     -33.188  40.524 -54.036  1.00  0.00    -0.327 N 
HETATM   18  H   UNL     1     -32.555  41.176 -54.490  1.00  0.00     0.169 HD
HETATM   19  O   UNL     1     -34.068  40.271 -56.090  1.00  0.00    -0.273 OA
BRANCH  17  20
HETATM   20  C   UNL     1     -32.954  40.304 -52.663  1.00  0.00     0.040 A 
HETATM   21  C   UNL     1     -32.174  39.192 -52.281  1.00  0.00    -0.035 A 
HETATM   22  C   UNL     1     -31.545  38.260 -53.283  1.00  0.00     0.050 C 
HETATM   23  C   UNL     1     -31.959  38.937 -50.914  1.00  0.00     0.009 A 
HETATM   24  C   UNL     1     -32.510  39.763 -49.938  1.00  0.00     0.001 A 
HETATM   25  C   UNL     1     -33.297  40.843 -50.314  1.00  0.00     0.002 A 
HETATM   26  C   UNL     1     -33.525  41.107 -51.668  1.00  0.00     0.030 A 
ENDBRANCH  17  20
ENDBRANCH  15  16
ENDBRANCH   1  15
TORSDOF 3
ENDMDL
MODEL 10
REMARK VINA RESULT:      -7.0     14.262     16.384
REMARK  3 active torsions:
REMARK  status: ('A' for Active; 'I' for Inactive)
REMARK    1  A    between atoms: C_3  and  N_4 
REMARK       I    between atoms: N_4  and  C_5 
REMARK    2  A    between atoms: C_5  and  C_6 
REMARK    3  A    between atoms: C_6  and  C_7 
ROOT
HETATM    1  C   UNL     1     -34.012  40.204 -55.114  1.00  0.00     0.286 C 
HETATM    2  N   UNL     1     -34.747  40.309 -53.783  1.00  0.00    -0.056 N 
HETATM    3  H   UNL     1     -34.549  41.268 -53.424  1.00  0.00     0.278 HD
HETATM    4  H   UNL     1     -35.762  40.265 -53.926  1.00  0.00     0.278 HD
HETATM    5  C   UNL     1     -34.288  39.268 -52.793  1.00  0.00     0.209 C 
HETATM    6  C   UNL     1     -32.764  39.437 -52.552  1.00  0.00     0.115 C 
HETATM    7  N   UNL     1     -32.012  39.508 -53.805  1.00  0.00    -0.353 N 
HETATM    8  C   UNL     1     -32.479  40.103 -54.953  1.00  0.00     0.249 C 
HETATM    9  O   UNL     1     -31.695  40.434 -55.836  1.00  0.00    -0.271 OA
HETATM   10  C   UNL     1     -35.110  39.388 -51.511  1.00  0.00     0.035 C 
HETATM   11  C   UNL     1     -34.756  40.619 -50.682  1.00  0.00     0.002 C 
HETATM   12  C   UNL     1     -33.260  40.688 -50.397  1.00  0.00     0.002 C 
HETATM   13  C   UNL     1     -32.441  40.662 -51.683  1.00  0.00     0.027 C 
HETATM   14  H   UNL     1     -30.997  39.459 -53.759  1.00  0.00     0.163 HD
ENDROOT
BRANCH   1  15
HETATM   15  C   UNL     1     -34.403  41.351 -56.054  1.00  0.00     0.146 C 
BRANCH  15  16
HETATM   16  C   UNL     1     -35.739  41.923 -55.645  1.00  0.00     0.224 C 
HETATM   17  N   UNL     1     -36.891  41.581 -56.280  1.00  0.00    -0.327 N 
HETATM   18  H   UNL     1     -37.662  42.202 -56.051  1.00  0.00     0.169 HD
HETATM   19  O   UNL     1     -35.765  42.744 -54.717  1.00  0.00    -0.273 OA
BRANCH  17  20
HETATM   20  C   UNL     1     -37.175  40.580 -57.231  1.00  0.00     0.040 A 
HETATM   21  C   UNL     1     -37.256  40.945 -58.592  1.00  0.00    -0.035 A 
HETATM   22  C   UNL     1     -37.006  42.351 -59.070  1.00  0.00     0.050 C 
HETATM   23  C   UNL     1     -37.571  39.965 -59.551  1.00  0.00     0.009 A 
HETATM   24  C   UNL     1     -37.810  38.647 -59.174  1.00  0.00     0.001 A 
HETATM   25  C   UNL     1     -37.753  38.294 -57.832  1.00  0.00     0.002 A 
HETATM   26  C   UNL     1     -37.446  39.256 -56.866  1.00  0.00     0.030 A 
ENDBRANCH  17  20
ENDBRANCH  15  16
ENDBRANCH   1  15
TORSDOF 3
ENDMDL
