MODEL 1
REMARK VINA RESULT:      -8.1      0.000      0.000
REMARK  6 active torsions:
REMARK  status: ('A' for Active; 'I' for Inactive)
REMARK    1  A    between atoms: C_2  and  C_3 
REMARK    2  A    between atoms: C_6  and  C_7 
REMARK    3  A    between atoms: C_11  and  C_12 
REMARK       I    between atoms: C_12  and  N_13 
REMARK    4  A    between atoms: N_13  and  N_14 
REMARK    5  A    between atoms: C_15  and  C_16 
REMARK    6  A    between atoms: C_19  and  O_20 
ROOT
HETATM    1  C   UNL     1     -43.629  56.577 -56.403  1.00  0.00     0.289 C 
HETATM    2  N   UNL     1     -43.713  56.298 -57.758  1.00  0.00    -0.241 N 
HETATM    3  O   UNL     1     -44.327  57.401 -55.816  1.00  0.00    -0.264 OA
HETATM    4  H   UNL     1     -43.093  55.616 -58.170  1.00  0.00     0.192 HD
ENDROOT
BRANCH   1   5
HETATM    5  C   UNL     1     -42.612  55.828 -55.704  1.00  0.00     0.121 A 
HETATM    6  N   UNL     1     -41.335  56.299 -55.583  1.00  0.00    -0.272 N 
HETATM    7  N   UNL     1     -40.500  55.469 -54.940  1.00  0.00    -0.174 NA
HETATM    8  H   UNL     1     -40.978  57.182 -55.941  1.00  0.00     0.189 HD
HETATM    9  C   UNL     1     -41.265  54.425 -54.587  1.00  0.00     0.089 A 
HETATM   10  C   UNL     1     -42.598  54.612 -55.050  1.00  0.00     0.071 A 
BRANCH   9  11
HETATM   11  C   UNL     1     -40.725  53.280 -53.848  1.00  0.00    -0.006 A 
HETATM   12  C   UNL     1     -40.621  53.307 -52.450  1.00  0.00     0.014 A 
HETATM   13  C   UNL     1     -40.130  52.202 -51.748  1.00  0.00     0.008 A 
HETATM   14  C   UNL     1     -39.730  51.047 -52.431  1.00  0.00    -0.059 A 
HETATM   15  C   UNL     1     -39.827  51.018 -53.826  1.00  0.00     0.008 A 
HETATM   16  C   UNL     1     -40.314  52.125 -54.527  1.00  0.00     0.014 A 
BRANCH  14  17
HETATM   17  C   UNL     1     -39.230  49.846 -51.670  1.00  0.00     0.034 C 
HETATM   18  C   UNL     1     -39.904  49.717 -50.313  1.00  0.00     0.010 C 
ENDBRANCH  14  17
ENDBRANCH   9  11
ENDBRANCH   1   5
BRANCH   2  19
HETATM   19  N   UNL     1     -44.637  56.926 -58.537  1.00  0.00    -0.176 NA
HETATM   20  C   UNL     1     -45.180  56.283 -59.531  1.00  0.00     0.061 C 
HETATM   21  C   UNL     1     -44.801  54.868 -59.922  1.00  0.00     0.073 C 
BRANCH  20  22
HETATM   22  C   UNL     1     -46.234  56.987 -60.333  1.00  0.00    -0.010 A 
HETATM   23  C   UNL     1     -47.138  56.218 -61.084  1.00  0.00     0.016 A 
HETATM   24  C   UNL     1     -48.134  56.834 -61.846  1.00  0.00     0.037 A 
HETATM   25  C   UNL     1     -48.221  58.222 -61.861  1.00  0.00     0.065 A 
HETATM   26  C   UNL     1     -47.327  58.999 -61.134  1.00  0.00     0.037 A 
HETATM   27  C   UNL     1     -46.328  58.384 -60.374  1.00  0.00     0.016 A 
BRANCH  25  28
HETATM   28  O   UNL     1     -49.176  58.867 -62.588  1.00  0.00    -0.361 OA
HETATM   29  H   UNL     1     -48.829  59.031 -63.480  1.00  0.00     0.217 HD
ENDBRANCH  25  28
ENDBRANCH  20  22
ENDBRANCH   2  19
TORSDOF 6
ENDMDL
MODEL 2
REMARK VINA RESULT:      -8.0      6.325      7.989
REMARK  6 active torsions:
REMARK  status: ('A' for Active; 'I' for Inactive)
REMARK    1  A    between atoms: C_2  and  C_3 
REMARK    2  A    between atoms: C_6  and  C_7 
REMARK    3  A    between atoms: C_11  and  C_12 
REMARK       I    between atoms: C_12  and  N_13 
REMARK    4  A    between atoms: N_13  and  N_14 
REMARK    5  A    between atoms: C_15  and  C_16 
REMARK    6  A    between atoms: C_19  and  O_20 
ROOT
HETATM    1  C   UNL     1     -44.452  57.971 -51.021  1.00  0.00     0.289 C 
HETATM    2  N   UNL     1     -44.098  59.268 -50.683  1.00  0.00    -0.241 N 
HETATM    3  O   UNL     1     -45.588  57.513 -50.930  1.00  0.00    -0.264 OA
HETATM    4  H   UNL     1     -43.137  59.566 -50.771  1.00  0.00     0.192 HD
ENDROOT
BRANCH   1   5
HETATM    5  C   UNL     1     -43.353  57.155 -51.479  1.00  0.00     0.121 A 
HETATM    6  N   UNL     1     -42.161  57.709 -51.854  1.00  0.00    -0.272 N 
HETATM    7  N   UNL     1     -41.255  56.822 -52.291  1.00  0.00    -0.174 NA
HETATM    8  H   UNL     1     -41.922  58.698 -51.845  1.00  0.00     0.189 HD
HETATM    9  C   UNL     1     -41.857  55.630 -52.162  1.00  0.00     0.089 A 
HETATM   10  C   UNL     1     -43.177  55.798 -51.657  1.00  0.00     0.071 A 
BRANCH   9  11
HETATM   11  C   UNL     1     -41.191  54.378 -52.533  1.00  0.00    -0.006 A 
HETATM   12  C   UNL     1     -40.496  53.621 -51.580  1.00  0.00     0.014 A 
HETATM   13  C   UNL     1     -39.886  52.413 -51.933  1.00  0.00     0.008 A 
HETATM   14  C   UNL     1     -39.953  51.941 -53.249  1.00  0.00    -0.059 A 
HETATM   15  C   UNL     1     -40.641  52.697 -54.205  1.00  0.00     0.008 A 
HETATM   16  C   UNL     1     -41.248  53.905 -53.852  1.00  0.00     0.014 A 
BRANCH  14  17
HETATM   17  C   UNL     1     -39.320  50.625 -53.621  1.00  0.00     0.034 C 
HETATM   18  C   UNL     1     -40.142  49.877 -54.661  1.00  0.00     0.010 C 
ENDBRANCH  14  17
ENDBRANCH   9  11
ENDBRANCH   1   5
BRANCH   2  19
HETATM   19  N   UNL     1     -45.039  60.149 -50.245  1.00  0.00    -0.176 NA
HETATM   20  C   UNL     1     -45.274  61.230 -50.934  1.00  0.00     0.061 C 
HETATM   21  C   UNL     1     -44.511  61.607 -52.189  1.00  0.00     0.073 C 
BRANCH  20  22
HETATM   22  C   UNL     1     -46.356  62.150 -50.453  1.00  0.00    -0.010 A 
HETATM   23  C   UNL     1     -46.505  62.355 -49.072  1.00  0.00     0.016 A 
HETATM   24  C   UNL     1     -47.502  63.203 -48.582  1.00  0.00     0.037 A 
HETATM   25  C   UNL     1     -48.353  63.842 -49.476  1.00  0.00     0.065 A 
HETATM   26  C   UNL     1     -48.229  63.642 -50.845  1.00  0.00     0.037 A 
HETATM   27  C   UNL     1     -47.235  62.790 -51.336  1.00  0.00     0.016 A 
BRANCH  25  28
HETATM   28  O   UNL     1     -49.339  64.679 -49.045  1.00  0.00    -0.361 OA
HETATM   29  H   UNL     1     -49.053  65.596 -49.189  1.00  0.00     0.217 HD
ENDBRANCH  25  28
ENDBRANCH  20  22
ENDBRANCH   2  19
TORSDOF 6
ENDMDL
MODEL 3
REMARK VINA RESULT:      -7.9      1.160      1.411
REMARK  6 active torsions:
REMARK  status: ('A' for Active; 'I' for Inactive)
REMARK    1  A    between atoms: C_2  and  C_3 
REMARK    2  A    between atoms: C_6  and  C_7 
REMARK    3  A    between atoms: C_11  and  C_12 
REMARK       I    between atoms: C_12  and  N_13 
REMARK    4  A    between atoms: N_13  and  N_14 
REMARK    5  A    between atoms: C_15  and  C_16 
REMARK    6  A    between atoms: C_19  and  O_20 
ROOT
HETATM    1  C   UNL     1     -43.739  57.712 -57.251  1.00  0.00     0.289 C 
HETATM    2  N   UNL     1     -44.812  56.964 -57.711  1.00  0.00    -0.241 N 
HETATM    3  O   UNL     1     -43.460  58.843 -57.640  1.00  0.00    -0.264 OA
HETATM    4  H   UNL     1     -44.966  56.033 -57.352  1.00  0.00     0.192 HD
ENDROOT
BRANCH   1   5
HETATM    5  C   UNL     1     -42.924  57.039 -56.268  1.00  0.00     0.121 A 
HETATM    6  N   UNL     1     -42.180  57.738 -55.358  1.00  0.00    -0.272 N 
HETATM    7  N   UNL     1     -41.448  56.969 -54.538  1.00  0.00    -0.174 NA
HETATM    8  H   UNL     1     -42.125  58.750 -55.269  1.00  0.00     0.189 HD
HETATM    9  C   UNL     1     -41.751  55.711 -54.892  1.00  0.00     0.089 A 
HETATM   10  C   UNL     1     -42.673  55.713 -55.976  1.00  0.00     0.071 A 
BRANCH   9  11
HETATM   11  C   UNL     1     -41.156  54.551 -54.224  1.00  0.00    -0.006 A 
HETATM   12  C   UNL     1     -41.109  54.470 -52.825  1.00  0.00     0.014 A 
HETATM   13  C   UNL     1     -40.565  53.348 -52.191  1.00  0.00     0.008 A 
HETATM   14  C   UNL     1     -40.052  52.285 -52.945  1.00  0.00    -0.059 A 
HETATM   15  C   UNL     1     -40.092  52.364 -54.342  1.00  0.00     0.008 A 
HETATM   16  C   UNL     1     -40.633  53.488 -54.973  1.00  0.00     0.014 A 
BRANCH  14  17
HETATM   17  C   UNL     1     -39.494  51.064 -52.261  1.00  0.00     0.034 C 
HETATM   18  C   UNL     1     -39.650  49.816 -53.117  1.00  0.00     0.010 C 
ENDBRANCH  14  17
ENDBRANCH   9  11
ENDBRANCH   1   5
BRANCH   2  19
HETATM   19  N   UNL     1     -45.669  57.480 -58.634  1.00  0.00    -0.176 NA
HETATM   20  C   UNL     1     -45.977  56.777 -59.686  1.00  0.00     0.061 C 
HETATM   21  C   UNL     1     -45.386  55.413 -59.985  1.00  0.00     0.073 C 
BRANCH  20  22
HETATM   22  C   UNL     1     -46.968  57.353 -60.654  1.00  0.00    -0.010 A 
HETATM   23  C   UNL     1     -47.691  56.480 -61.481  1.00  0.00     0.016 A 
HETATM   24  C   UNL     1     -48.622  56.976 -62.398  1.00  0.00     0.037 A 
HETATM   25  C   UNL     1     -48.824  58.348 -62.489  1.00  0.00     0.065 A 
HETATM   26  C   UNL     1     -48.109  59.228 -61.687  1.00  0.00     0.037 A 
HETATM   27  C   UNL     1     -47.174  58.733 -60.772  1.00  0.00     0.016 A 
BRANCH  25  28
HETATM   28  O   UNL     1     -49.722  58.878 -63.367  1.00  0.00    -0.361 OA
HETATM   29  H   UNL     1     -49.415  58.701 -64.271  1.00  0.00     0.217 HD
ENDBRANCH  25  28
ENDBRANCH  20  22
ENDBRANCH   2  19
TORSDOF 6
ENDMDL
MODEL 4
REMARK VINA RESULT:      -7.8      3.850     10.581
REMARK  6 active torsions:
REMARK  status: ('A' for Active; 'I' for Inactive)
REMARK    1  A    between atoms: C_2  and  C_3 
REMARK    2  A    between atoms: C_6  and  C_7 
REMARK    3  A    between atoms: C_11  and  C_12 
REMARK       I    between atoms: C_12  and  N_13 
REMARK    4  A    between atoms: N_13  and  N_14 
REMARK    5  A    between atoms: C_15  and  C_16 
REMARK    6  A    between atoms: C_19  and  O_20 
ROOT
HETATM    1  C   UNL     1     -42.536  55.093 -56.272  1.00  0.00     0.289 C 
HETATM    2  N   UNL     1     -41.214  54.978 -55.869  1.00  0.00    -0.241 N 
HETATM    3  O   UNL     1     -43.410  54.261 -56.043  1.00  0.00    -0.264 OA
HETATM    4  H   UNL     1     -40.551  55.699 -56.110  1.00  0.00     0.192 HD
ENDROOT
BRANCH   1   5
HETATM    5  C   UNL     1     -42.823  56.287 -57.030  1.00  0.00     0.121 A 
HETATM    6  N   UNL     1     -44.094  56.781 -57.130  1.00  0.00    -0.272 N 
HETATM    7  N   UNL     1     -44.201  57.873 -57.901  1.00  0.00    -0.174 NA
HETATM    8  H   UNL     1     -44.931  56.393 -56.702  1.00  0.00     0.189 HD
HETATM    9  C   UNL     1     -42.946  58.137 -58.293  1.00  0.00     0.089 A 
HETATM   10  C   UNL     1     -42.051  57.162 -57.768  1.00  0.00     0.071 A 
BRANCH   9  11
HETATM   11  C   UNL     1     -42.624  59.275 -59.159  1.00  0.00    -0.006 A 
HETATM   12  C   UNL     1     -42.112  60.466 -58.625  1.00  0.00     0.014 A 
HETATM   13  C   UNL     1     -41.782  61.539 -59.458  1.00  0.00     0.008 A 
HETATM   14  C   UNL     1     -41.960  61.444 -60.844  1.00  0.00    -0.059 A 
HETATM   15  C   UNL     1     -42.476  60.259 -61.380  1.00  0.00     0.008 A 
HETATM   16  C   UNL     1     -42.809  59.189 -60.546  1.00  0.00     0.014 A 
BRANCH  14  17
HETATM   17  C   UNL     1     -41.574  62.591 -61.743  1.00  0.00     0.034 C 
HETATM   18  C   UNL     1     -40.075  62.847 -61.719  1.00  0.00     0.010 C 
ENDBRANCH  14  17
ENDBRANCH   9  11
ENDBRANCH   1   5
BRANCH   2  19
HETATM   19  N   UNL     1     -40.807  53.904 -55.137  1.00  0.00    -0.176 NA
HETATM   20  C   UNL     1     -40.725  54.006 -53.841  1.00  0.00     0.061 C 
HETATM   21  C   UNL     1     -41.005  55.288 -53.081  1.00  0.00     0.073 C 
BRANCH  20  22
HETATM   22  C   UNL     1     -40.327  52.788 -53.062  1.00  0.00    -0.010 A 
HETATM   23  C   UNL     1     -40.011  51.612 -53.761  1.00  0.00     0.016 A 
HETATM   24  C   UNL     1     -39.637  50.454 -53.073  1.00  0.00     0.037 A 
HETATM   25  C   UNL     1     -39.585  50.473 -51.684  1.00  0.00     0.065 A 
HETATM   26  C   UNL     1     -39.906  51.624 -50.976  1.00  0.00     0.037 A 
HETATM   27  C   UNL     1     -40.284  52.782 -51.662  1.00  0.00     0.016 A 
BRANCH  25  28
HETATM   28  O   UNL     1     -39.225  49.369 -50.970  1.00  0.00    -0.361 OA
HETATM   29  H   UNL     1     -39.232  49.595 -50.026  1.00  0.00     0.217 HD
ENDBRANCH  25  28
ENDBRANCH  20  22
ENDBRANCH   2  19
TORSDOF 6
ENDMDL
MODEL 5
REMARK VINA RESULT:      -7.7      3.545      4.298
REMARK  6 active torsions:
REMARK  status: ('A' for Active; 'I' for Inactive)
REMARK    1  A    between atoms: C_2  and  C_3 
REMARK    2  A    between atoms: C_6  and  C_7 
REMARK    3  A    between atoms: C_11  and  C_12 
REMARK       I    between atoms: C_12  and  N_13 
REMARK    4  A    between atoms: N_13  and  N_14 
REMARK    5  A    between atoms: C_15  and  C_16 
REMARK    6  A    between atoms: C_19  and  O_20 
ROOT
HETATM    1  C   UNL     1     -43.166  56.870 -57.392  1.00  0.00     0.289 C 
HETATM    2  N   UNL     1     -41.999  57.363 -57.956  1.00  0.00    -0.241 N 
HETATM    3  O   UNL     1     -44.299  57.171 -57.759  1.00  0.00    -0.264 OA
HETATM    4  H   UNL     1     -41.103  57.080 -57.587  1.00  0.00     0.192 HD
ENDROOT
BRANCH   1   5
HETATM    5  C   UNL     1     -42.954  55.967 -56.286  1.00  0.00     0.121 A 
HETATM    6  N   UNL     1     -43.950  55.688 -55.392  1.00  0.00    -0.272 N 
HETATM    7  N   UNL     1     -43.585  54.862 -54.401  1.00  0.00    -0.174 NA
HETATM    8  H   UNL     1     -44.898  56.055 -55.406  1.00  0.00     0.189 HD
HETATM    9  C   UNL     1     -42.309  54.549 -54.672  1.00  0.00     0.089 A 
HETATM   10  C   UNL     1     -41.876  55.225 -55.848  1.00  0.00     0.071 A 
BRANCH   9  11
HETATM   11  C   UNL     1     -41.530  53.649 -53.817  1.00  0.00    -0.006 A 
HETATM   12  C   UNL     1     -40.795  52.588 -54.367  1.00  0.00     0.014 A 
HETATM   13  C   UNL     1     -40.032  51.749 -53.550  1.00  0.00     0.008 A 
HETATM   14  C   UNL     1     -39.990  51.950 -52.165  1.00  0.00    -0.059 A 
HETATM   15  C   UNL     1     -40.726  53.004 -51.612  1.00  0.00     0.008 A 
HETATM   16  C   UNL     1     -41.492  53.840 -52.429  1.00  0.00     0.014 A 
BRANCH  14  17
HETATM   17  C   UNL     1     -39.143  51.062 -51.290  1.00  0.00     0.034 C 
HETATM   18  C   UNL     1     -39.791  49.704 -51.068  1.00  0.00     0.010 C 
ENDBRANCH  14  17
ENDBRANCH   9  11
ENDBRANCH   1   5
BRANCH   2  19
HETATM   19  N   UNL     1     -42.052  58.218 -59.015  1.00  0.00    -0.176 NA
HETATM   20  C   UNL     1     -41.913  59.497 -58.812  1.00  0.00     0.061 C 
HETATM   21  C   UNL     1     -41.751  60.116 -57.437  1.00  0.00     0.073 C 
BRANCH  20  22
HETATM   22  C   UNL     1     -41.920  60.405 -60.006  1.00  0.00    -0.010 A 
HETATM   23  C   UNL     1     -41.244  61.633 -59.926  1.00  0.00     0.016 A 
HETATM   24  C   UNL     1     -41.228  62.508 -61.015  1.00  0.00     0.037 A 
HETATM   25  C   UNL     1     -41.893  62.156 -62.183  1.00  0.00     0.065 A 
HETATM   26  C   UNL     1     -42.578  60.950 -62.276  1.00  0.00     0.037 A 
HETATM   27  C   UNL     1     -42.598  60.075 -61.186  1.00  0.00     0.016 A 
BRANCH  25  28
HETATM   28  O   UNL     1     -41.904  62.976 -63.272  1.00  0.00    -0.361 OA
HETATM   29  H   UNL     1     -41.769  63.890 -62.973  1.00  0.00     0.217 HD
ENDBRANCH  25  28
ENDBRANCH  20  22
ENDBRANCH   2  19
TORSDOF 6
ENDMDL
MODEL 6
REMARK VINA RESULT:      -7.6      6.430     10.643
REMARK  6 active torsions:
REMARK  status: ('A' for Active; 'I' for Inactive)
REMARK    1  A    between atoms: C_2  and  C_3 
REMARK    2  A    between atoms: C_6  and  C_7 
REMARK    3  A    between atoms: C_11  and  C_12 
REMARK       I    between atoms: C_12  and  N_13 
REMARK    4  A    between atoms: N_13  and  N_14 
REMARK    5  A    between atoms: C_15  and  C_16 
REMARK    6  A    between atoms: C_19  and  O_20 
ROOT
HETATM    1  C   UNL     1     -42.411  57.367 -53.119  1.00  0.00     0.289 C 
HETATM    2  N   UNL     1     -41.269  56.789 -52.585  1.00  0.00    -0.241 N 
HETATM    3  O   UNL     1     -43.121  56.844 -53.975  1.00  0.00    -0.264 OA
HETATM    4  H   UNL     1     -40.728  57.289 -51.895  1.00  0.00     0.192 HD
ENDROOT
BRANCH   1   5
HETATM    5  C   UNL     1     -42.708  58.681 -52.603  1.00  0.00     0.121 A 
HETATM    6  N   UNL     1     -42.572  59.799 -53.377  1.00  0.00    -0.272 N 
HETATM    7  N   UNL     1     -42.850  60.947 -52.741  1.00  0.00    -0.174 NA
HETATM    8  H   UNL     1     -42.273  59.832 -54.349  1.00  0.00     0.189 HD
HETATM    9  C   UNL     1     -43.224  60.570 -51.509  1.00  0.00     0.089 A 
HETATM   10  C   UNL     1     -43.147  59.155 -51.382  1.00  0.00     0.071 A 
BRANCH   9  11
HETATM   11  C   UNL     1     -43.621  61.541 -50.485  1.00  0.00    -0.006 A 
HETATM   12  C   UNL     1     -44.414  61.157 -49.395  1.00  0.00     0.014 A 
HETATM   13  C   UNL     1     -44.767  62.081 -48.407  1.00  0.00     0.008 A 
HETATM   14  C   UNL     1     -44.337  63.411 -48.491  1.00  0.00    -0.059 A 
HETATM   15  C   UNL     1     -43.550  63.800 -49.580  1.00  0.00     0.008 A 
HETATM   16  C   UNL     1     -43.200  62.876 -50.569  1.00  0.00     0.014 A 
BRANCH  14  17
HETATM   17  C   UNL     1     -44.694  64.398 -47.410  1.00  0.00     0.034 C 
HETATM   18  C   UNL     1     -45.198  63.702 -46.154  1.00  0.00     0.010 C 
ENDBRANCH  14  17
ENDBRANCH   9  11
ENDBRANCH   1   5
BRANCH   2  19
HETATM   19  N   UNL     1     -40.876  55.545 -52.976  1.00  0.00    -0.176 NA
HETATM   20  C   UNL     1     -40.908  54.565 -52.119  1.00  0.00     0.061 C 
HETATM   21  C   UNL     1     -41.307  54.734 -50.666  1.00  0.00     0.073 C 
BRANCH  20  22
HETATM   22  C   UNL     1     -40.522  53.197 -52.598  1.00  0.00    -0.010 A 
HETATM   23  C   UNL     1     -39.903  52.315 -51.698  1.00  0.00     0.016 A 
HETATM   24  C   UNL     1     -39.526  51.032 -52.105  1.00  0.00     0.037 A 
HETATM   25  C   UNL     1     -39.765  50.635 -53.415  1.00  0.00     0.065 A 
HETATM   26  C   UNL     1     -40.366  51.499 -54.323  1.00  0.00     0.037 A 
HETATM   27  C   UNL     1     -40.739  52.784 -53.919  1.00  0.00     0.016 A 
BRANCH  25  28
HETATM   28  O   UNL     1     -39.417  49.394 -53.857  1.00  0.00    -0.361 OA
HETATM   29  H   UNL     1     -39.632  48.746 -53.167  1.00  0.00     0.217 HD
ENDBRANCH  25  28
ENDBRANCH  20  22
ENDBRANCH   2  19
TORSDOF 6
ENDMDL
MODEL 7
REMARK VINA RESULT:      -7.6      6.035      7.196
REMARK  6 active torsions:
REMARK  status: ('A' for Active; 'I' for Inactive)
REMARK    1  A    between atoms: C_2  and  C_3 
REMARK    2  A    between atoms: C_6  and  C_7 
REMARK    3  A    between atoms: C_11  and  C_12 
REMARK       I    between atoms: C_12  and  N_13 
REMARK    4  A    between atoms: N_13  and  N_14 
REMARK    5  A    between atoms: C_15  and  C_16 
REMARK    6  A    between atoms: C_19  and  O_20 
ROOT
HETATM    1  C   UNL     1     -42.837  58.661 -51.006  1.00  0.00     0.289 C 
HETATM    2  N   UNL     1     -44.215  58.571 -50.875  1.00  0.00    -0.241 N 
HETATM    3  O   UNL     1     -42.209  59.715 -51.047  1.00  0.00    -0.264 OA
HETATM    4  H   UNL     1     -44.661  57.665 -50.865  1.00  0.00     0.192 HD
ENDROOT
BRANCH   1   5
HETATM    5  C   UNL     1     -42.168  57.388 -51.121  1.00  0.00     0.121 A 
HETATM    6  N   UNL     1     -41.347  56.920 -50.133  1.00  0.00    -0.272 N 
HETATM    7  N   UNL     1     -40.770  55.741 -50.408  1.00  0.00    -0.174 NA
HETATM    8  H   UNL     1     -41.135  57.382 -49.252  1.00  0.00     0.189 HD
HETATM    9  C   UNL     1     -41.259  55.395 -51.608  1.00  0.00     0.089 A 
HETATM   10  C   UNL     1     -42.139  56.405 -52.091  1.00  0.00     0.071 A 
BRANCH   9  11
HETATM   11  C   UNL     1     -40.875  54.148 -52.275  1.00  0.00    -0.006 A 
HETATM   12  C   UNL     1     -41.151  53.941 -53.634  1.00  0.00     0.014 A 
HETATM   13  C   UNL     1     -40.758  52.760 -54.272  1.00  0.00     0.008 A 
HETATM   14  C   UNL     1     -40.085  51.759 -53.561  1.00  0.00    -0.059 A 
HETATM   15  C   UNL     1     -39.813  51.959 -52.204  1.00  0.00     0.008 A 
HETATM   16  C   UNL     1     -40.209  53.138 -51.567  1.00  0.00     0.014 A 
BRANCH  14  17
HETATM   17  C   UNL     1     -39.636  50.500 -54.258  1.00  0.00     0.034 C 
HETATM   18  C   UNL     1     -39.424  49.357 -53.276  1.00  0.00     0.010 C 
ENDBRANCH  14  17
ENDBRANCH   9  11
ENDBRANCH   1   5
BRANCH   2  19
HETATM   19  N   UNL     1     -44.971  59.696 -50.746  1.00  0.00    -0.176 NA
HETATM   20  C   UNL     1     -45.577  60.182 -51.792  1.00  0.00     0.061 C 
HETATM   21  C   UNL     1     -45.447  59.599 -53.185  1.00  0.00     0.073 C 
BRANCH  20  22
HETATM   22  C   UNL     1     -46.448  61.390 -51.603  1.00  0.00    -0.010 A 
HETATM   23  C   UNL     1     -47.440  61.663 -52.557  1.00  0.00     0.016 A 
HETATM   24  C   UNL     1     -48.271  62.779 -52.420  1.00  0.00     0.037 A 
HETATM   25  C   UNL     1     -48.103  63.623 -51.328  1.00  0.00     0.065 A 
HETATM   26  C   UNL     1     -47.118  63.375 -50.381  1.00  0.00     0.037 A 
HETATM   27  C   UNL     1     -46.284  62.262 -50.519  1.00  0.00     0.016 A 
BRANCH  25  28
HETATM   28  O   UNL     1     -48.890  64.722 -51.151  1.00  0.00    -0.361 OA
HETATM   29  H   UNL     1     -49.785  64.428 -50.915  1.00  0.00     0.217 HD
ENDBRANCH  25  28
ENDBRANCH  20  22
ENDBRANCH   2  19
TORSDOF 6
ENDMDL
MODEL 8
REMARK VINA RESULT:      -7.6      1.649      2.512
REMARK  6 active torsions:
REMARK  status: ('A' for Active; 'I' for Inactive)
REMARK    1  A    between atoms: C_2  and  C_3 
REMARK    2  A    between atoms: C_6  and  C_7 
REMARK    3  A    between atoms: C_11  and  C_12 
REMARK       I    between atoms: C_12  and  N_13 
REMARK    4  A    between atoms: N_13  and  N_14 
REMARK    5  A    between atoms: C_15  and  C_16 
REMARK    6  A    between atoms: C_19  and  O_20 
ROOT
HETATM    1  C   UNL     1     -43.685  55.796 -58.530  1.00  0.00     0.289 C 
HETATM    2  N   UNL     1     -44.889  56.473 -58.418  1.00  0.00    -0.241 N 
HETATM    3  O   UNL     1     -43.238  55.338 -59.578  1.00  0.00    -0.264 OA
HETATM    4  H   UNL     1     -45.197  56.807 -57.516  1.00  0.00     0.192 HD
ENDROOT
BRANCH   1   5
HETATM    5  C   UNL     1     -42.976  55.635 -57.283  1.00  0.00     0.121 A 
HETATM    6  N   UNL     1     -42.126  56.598 -56.816  1.00  0.00    -0.272 N 
HETATM    7  N   UNL     1     -41.515  56.282 -55.664  1.00  0.00    -0.174 NA
HETATM    8  H   UNL     1     -41.914  57.488 -57.260  1.00  0.00     0.189 HD
HETATM    9  C   UNL     1     -42.012  55.080 -55.335  1.00  0.00     0.089 A 
HETATM   10  C   UNL     1     -42.931  54.639 -56.328  1.00  0.00     0.071 A 
BRANCH   9  11
HETATM   11  C   UNL     1     -41.598  54.373 -54.119  1.00  0.00    -0.006 A 
HETATM   12  C   UNL     1     -40.715  53.287 -54.181  1.00  0.00     0.014 A 
HETATM   13  C   UNL     1     -40.302  52.633 -53.015  1.00  0.00     0.008 A 
HETATM   14  C   UNL     1     -40.769  53.052 -51.763  1.00  0.00    -0.059 A 
HETATM   15  C   UNL     1     -41.655  54.132 -51.698  1.00  0.00     0.008 A 
HETATM   16  C   UNL     1     -42.069  54.782 -52.864  1.00  0.00     0.014 A 
BRANCH  14  17
HETATM   17  C   UNL     1     -40.299  52.365 -50.506  1.00  0.00     0.034 C 
HETATM   18  C   UNL     1     -40.434  53.266 -49.287  1.00  0.00     0.010 C 
ENDBRANCH  14  17
ENDBRANCH   9  11
ENDBRANCH   1   5
BRANCH   2  19
HETATM   19  N   UNL     1     -45.656  56.704 -59.519  1.00  0.00    -0.176 NA
HETATM   20  C   UNL     1     -46.715  57.456 -59.415  1.00  0.00     0.061 C 
HETATM   21  C   UNL     1     -47.193  58.057 -58.107  1.00  0.00     0.073 C 
BRANCH  20  22
HETATM   22  C   UNL     1     -47.506  57.735 -60.659  1.00  0.00    -0.010 A 
HETATM   23  C   UNL     1     -47.948  59.046 -60.899  1.00  0.00     0.016 A 
HETATM   24  C   UNL     1     -48.689  59.348 -62.045  1.00  0.00     0.037 A 
HETATM   25  C   UNL     1     -48.991  58.336 -62.948  1.00  0.00     0.065 A 
HETATM   26  C   UNL     1     -48.572  57.031 -62.721  1.00  0.00     0.037 A 
HETATM   27  C   UNL     1     -47.835  56.726 -61.573  1.00  0.00     0.016 A 
BRANCH  25  28
HETATM   28  O   UNL     1     -49.709  58.583 -64.080  1.00  0.00    -0.361 OA
HETATM   29  H   UNL     1     -50.498  59.097 -63.841  1.00  0.00     0.217 HD
ENDBRANCH  25  28
ENDBRANCH  20  22
ENDBRANCH   2  19
TORSDOF 6
ENDMDL
MODEL 9
REMARK VINA RESULT:      -7.5     15.460     20.480
REMARK  6 active torsions:
REMARK  status: ('A' for Active; 'I' for Inactive)
REMARK    1  A    between atoms: C_2  and  C_3 
REMARK    2  A    between atoms: C_6  and  C_7 
REMARK    3  A    between atoms: C_11  and  C_12 
REMARK       I    between atoms: C_12  and  N_13 
REMARK    4  A    between atoms: N_13  and  N_14 
REMARK    5  A    between atoms: C_15  and  C_16 
REMARK    6  A    between atoms: C_19  and  O_20 
ROOT
HETATM    1  C   UNL     1     -36.140  40.164 -50.747  1.00  0.00     0.289 C 
HETATM    2  N   UNL     1     -34.820  39.743 -50.806  1.00  0.00    -0.241 N 
HETATM    3  O   UNL     1     -36.804  40.234 -49.716  1.00  0.00    -0.264 OA
HETATM    4  H   UNL     1     -34.347  39.697 -51.696  1.00  0.00     0.192 HD
ENDROOT
BRANCH   1   5
HETATM    5  C   UNL     1     -36.713  40.502 -52.028  1.00  0.00     0.121 A 
HETATM    6  N   UNL     1     -38.022  40.877 -52.147  1.00  0.00    -0.272 N 
HETATM    7  N   UNL     1     -38.412  41.121 -53.407  1.00  0.00    -0.174 NA
HETATM    8  H   UNL     1     -38.699  40.965 -51.394  1.00  0.00     0.189 HD
HETATM    9  C   UNL     1     -37.307  40.940 -54.146  1.00  0.00     0.089 A 
HETATM   10  C   UNL     1     -36.219  40.548 -53.316  1.00  0.00     0.071 A 
BRANCH   9  11
HETATM   11  C   UNL     1     -37.306  41.117 -55.601  1.00  0.00    -0.006 A 
HETATM   12  C   UNL     1     -36.340  41.915 -56.230  1.00  0.00     0.014 A 
HETATM   13  C   UNL     1     -36.327  42.058 -57.621  1.00  0.00     0.008 A 
HETATM   14  C   UNL     1     -37.284  41.409 -58.412  1.00  0.00    -0.059 A 
HETATM   15  C   UNL     1     -38.252  40.616 -57.787  1.00  0.00     0.008 A 
HETATM   16  C   UNL     1     -38.266  40.476 -56.397  1.00  0.00     0.014 A 
BRANCH  14  17
HETATM   17  C   UNL     1     -37.249  41.541 -59.913  1.00  0.00     0.034 C 
HETATM   18  C   UNL     1     -37.392  42.990 -60.355  1.00  0.00     0.010 C 
ENDBRANCH  14  17
ENDBRANCH   9  11
ENDBRANCH   1   5
BRANCH   2  19
HETATM   19  N   UNL     1     -34.153  39.402 -49.669  1.00  0.00    -0.176 NA
HETATM   20  C   UNL     1     -32.859  39.544 -49.619  1.00  0.00     0.061 C 
HETATM   21  C   UNL     1     -32.022  40.022 -50.789  1.00  0.00     0.073 C 
BRANCH  20  22
HETATM   22  C   UNL     1     -32.163  39.212 -48.332  1.00  0.00    -0.010 A 
HETATM   23  C   UNL     1     -31.161  40.076 -47.863  1.00  0.00     0.016 A 
HETATM   24  C   UNL     1     -30.486  39.802 -46.671  1.00  0.00     0.037 A 
HETATM   25  C   UNL     1     -30.813  38.660 -45.950  1.00  0.00     0.065 A 
HETATM   26  C   UNL     1     -31.793  37.787 -46.405  1.00  0.00     0.037 A 
HETATM   27  C   UNL     1     -32.466  38.057 -47.600  1.00  0.00     0.016 A 
BRANCH  25  28
HETATM   28  O   UNL     1     -30.184  38.352 -44.781  1.00  0.00    -0.361 OA
HETATM   29  H   UNL     1     -30.755  37.757 -44.268  1.00  0.00     0.217 HD
ENDBRANCH  25  28
ENDBRANCH  20  22
ENDBRANCH   2  19
TORSDOF 6
ENDMDL
MODEL 10
REMARK VINA RESULT:      -7.4      6.618      8.770
REMARK  6 active torsions:
REMARK  status: ('A' for Active; 'I' for Inactive)
REMARK    1  A    between atoms: C_2  and  C_3 
REMARK    2  A    between atoms: C_6  and  C_7 
REMARK    3  A    between atoms: C_11  and  C_12 
REMARK       I    between atoms: C_12  and  N_13 
REMARK    4  A    between atoms: N_13  and  N_14 
REMARK    5  A    between atoms: C_15  and  C_16 
REMARK    6  A    between atoms: C_19  and  O_20 
ROOT
HETATM    1  C   UNL     1     -42.301  59.358 -51.353  1.00  0.00     0.289 C 
HETATM    2  N   UNL     1     -43.571  59.283 -50.800  1.00  0.00    -0.241 N 
HETATM    3  O   UNL     1     -41.524  60.295 -51.189  1.00  0.00    -0.264 OA
HETATM    4  H   UNL     1     -44.158  58.485 -50.995  1.00  0.00     0.192 HD
ENDROOT
BRANCH   1   5
HETATM    5  C   UNL     1     -41.950  58.234 -52.187  1.00  0.00     0.121 A 
HETATM    6  N   UNL     1     -41.947  58.330 -53.551  1.00  0.00    -0.272 N 
HETATM    7  N   UNL     1     -41.636  57.188 -54.183  1.00  0.00    -0.174 NA
HETATM    8  H   UNL     1     -42.170  59.155 -54.101  1.00  0.00     0.189 HD
HETATM    9  C   UNL     1     -41.383  56.313 -53.198  1.00  0.00     0.089 A 
HETATM   10  C   UNL     1     -41.571  56.931 -51.930  1.00  0.00     0.071 A 
BRANCH   9  11
HETATM   11  C   UNL     1     -40.996  54.926 -53.470  1.00  0.00    -0.006 A 
HETATM   12  C   UNL     1     -40.577  54.531 -54.749  1.00  0.00     0.014 A 
HETATM   13  C   UNL     1     -40.183  53.213 -54.997  1.00  0.00     0.008 A 
HETATM   14  C   UNL     1     -40.202  52.260 -53.971  1.00  0.00    -0.059 A 
HETATM   15  C   UNL     1     -40.624  52.648 -52.695  1.00  0.00     0.008 A 
HETATM   16  C   UNL     1     -41.022  53.966 -52.449  1.00  0.00     0.014 A 
BRANCH  14  17
HETATM   17  C   UNL     1     -39.747  50.848 -54.234  1.00  0.00     0.034 C 
HETATM   18  C   UNL     1     -39.653  50.037 -52.949  1.00  0.00     0.010 C 
ENDBRANCH  14  17
ENDBRANCH   9  11
ENDBRANCH   1   5
BRANCH   2  19
HETATM   19  N   UNL     1     -44.028  60.272 -49.984  1.00  0.00    -0.176 NA
HETATM   20  C   UNL     1     -45.182  60.823 -50.230  1.00  0.00     0.061 C 
HETATM   21  C   UNL     1     -46.044  60.466 -51.426  1.00  0.00     0.073 C 
BRANCH  20  22
HETATM   22  C   UNL     1     -45.681  61.870 -49.279  1.00  0.00    -0.010 A 
HETATM   23  C   UNL     1     -44.975  62.090 -48.086  1.00  0.00     0.016 A 
HETATM   24  C   UNL     1     -45.406  63.054 -47.171  1.00  0.00     0.037 A 
HETATM   25  C   UNL     1     -46.549  63.795 -47.450  1.00  0.00     0.065 A 
HETATM   26  C   UNL     1     -47.268  63.582 -48.620  1.00  0.00     0.037 A 
HETATM   27  C   UNL     1     -46.839  62.615 -49.534  1.00  0.00     0.016 A 
BRANCH  25  28
HETATM   28  O   UNL     1     -47.008  64.747 -46.589  1.00  0.00    -0.361 OA
HETATM   29  H   UNL     1     -47.965  64.627 -46.475  1.00  0.00     0.217 HD
ENDBRANCH  25  28
ENDBRANCH  20  22
ENDBRANCH   2  19
TORSDOF 6
ENDMDL
