MODEL 1
REMARK VINA RESULT:      -9.8      0.000      0.000
REMARK  5 active torsions:
REMARK  status: ('A' for Active; 'I' for Inactive)
REMARK    1  A    between atoms: O_2  and  C_3 
REMARK    2  A    between atoms: C_6  and  N_7 
REMARK    3  A    between atoms: C_11  and  C_12 
REMARK    4  A    between atoms: C_12  and  N_13 
REMARK       I    between atoms: N_13  and  C_14 
REMARK    5  A    between atoms: C_14  and  C_15 
ROOT
HETATM    1  N   UNL     1     -41.805  53.979 -54.735  1.00  0.00    -0.360 N 
HETATM    2  C   UNL     1     -41.900  53.790 -53.369  1.00  0.00     0.230 C 
HETATM    3  O   UNL     1     -42.975  53.836 -52.770  1.00  0.00    -0.272 OA
HETATM    4  H   UNL     1     -40.879  54.063 -55.142  1.00  0.00     0.162 HD
ENDROOT
BRANCH   1   5
HETATM    5  C   UNL     1     -42.956  54.309 -55.550  1.00  0.00     0.129 C 
BRANCH   5   6
HETATM    6  C   UNL     1     -42.881  55.727 -56.137  1.00  0.00     0.031 C 
HETATM    7  C   UNL     1     -44.190  56.478 -55.933  1.00  0.00     0.111 C 
HETATM    8  C   UNL     1     -44.007  57.170 -54.605  1.00  0.00     0.224 C 
HETATM    9  N   UNL     1     -42.630  57.224 -54.336  1.00  0.00    -0.318 N 
HETATM   10  O   UNL     1     -44.943  57.621 -53.964  1.00  0.00    -0.273 OA
HETATM   11  C   UNL     1     -41.875  56.604 -55.404  1.00  0.00     0.139 C 
BRANCH   9  12
HETATM   12  C   UNL     1     -42.008  57.895 -53.246  1.00  0.00     0.037 A 
HETATM   13  C   UNL     1     -42.719  58.256 -52.095  1.00  0.00     0.032 A 
HETATM   14  C   UNL     1     -42.096  58.911 -51.021  1.00  0.00     0.039 A 
HETATM   15  C   UNL     1     -40.741  59.220 -51.076  1.00  0.00     0.068 A 
HETATM   16  C   UNL     1     -40.022  58.876 -52.218  1.00  0.00     0.039 A 
HETATM   17  C   UNL     1     -40.645  58.222 -53.289  1.00  0.00     0.032 A 
BRANCH  15  18
HETATM   18  O   UNL     1     -40.014  59.846 -50.103  1.00  0.00    -0.356 OA
HETATM   19  C   UNL     1     -38.599  59.820 -50.245  1.00  0.00     0.210 C 
ENDBRANCH  15  18
ENDBRANCH   9  12
ENDBRANCH   5   6
ENDBRANCH   1   5
BRANCH   2  20
HETATM   20  C   UNL     1     -40.577  53.528 -52.634  1.00  0.00     0.149 C 
HETATM   21  C   UNL     1     -40.150  52.087 -52.789  1.00  0.00    -0.007 A 
HETATM   22  C   UNL     1     -40.058  51.257 -51.670  1.00  0.00     0.083 A 
HETATM   23  C   UNL     1     -39.846  51.562 -54.056  1.00  0.00     0.011 A 
HETATM   24  C   UNL     1     -39.681  49.919 -51.812  1.00  0.00     0.038 A 
HETATM   25  O   UNL     1     -40.328  51.675 -50.391  1.00  0.00    -0.310 OA
HETATM   26  C   UNL     1     -39.385  49.404 -53.074  1.00  0.00     0.003 A 
HETATM   27  C   UNL     1     -39.467  50.227 -54.196  1.00  0.00     0.001 A 
HETATM   28  C   UNL     1     -40.529  53.015 -50.165  1.00  0.00     0.083 A 
HETATM   29  C   UNL     1     -40.645  53.961 -51.186  1.00  0.00    -0.007 A 
HETATM   30  C   UNL     1     -40.620  53.405 -48.828  1.00  0.00     0.038 A 
HETATM   31  C   UNL     1     -40.842  55.310 -50.849  1.00  0.00     0.011 A 
HETATM   32  C   UNL     1     -40.930  55.698 -49.512  1.00  0.00     0.001 A 
HETATM   33  C   UNL     1     -40.821  54.746 -48.501  1.00  0.00     0.003 A 
ENDBRANCH   2  20
TORSDOF 5
ENDMDL
MODEL 2
REMARK VINA RESULT:      -9.4      2.246      3.685
REMARK  5 active torsions:
REMARK  status: ('A' for Active; 'I' for Inactive)
REMARK    1  A    between atoms: O_2  and  C_3 
REMARK    2  A    between atoms: C_6  and  N_7 
REMARK    3  A    between atoms: C_11  and  C_12 
REMARK    4  A    between atoms: C_12  and  N_13 
REMARK       I    between atoms: N_13  and  C_14 
REMARK    5  A    between atoms: C_14  and  C_15 
ROOT
HETATM    1  N   UNL     1     -41.839  56.486 -56.547  1.00  0.00    -0.360 N 
HETATM    2  C   UNL     1     -42.041  55.821 -55.351  1.00  0.00     0.230 C 
HETATM    3  O   UNL     1     -43.105  55.267 -55.076  1.00  0.00    -0.272 OA
HETATM    4  H   UNL     1     -40.991  57.035 -56.651  1.00  0.00     0.162 HD
ENDROOT
BRANCH   1   5
HETATM    5  C   UNL     1     -42.889  56.632 -57.534  1.00  0.00     0.129 C 
BRANCH   5   6
HETATM    6  C   UNL     1     -43.411  58.074 -57.637  1.00  0.00     0.031 C 
HETATM    7  C   UNL     1     -44.897  58.099 -57.973  1.00  0.00     0.111 C 
HETATM    8  C   UNL     1     -45.572  58.100 -56.623  1.00  0.00     0.224 C 
HETATM    9  N   UNL     1     -44.630  58.524 -55.673  1.00  0.00    -0.318 N 
HETATM   10  O   UNL     1     -46.751  57.817 -56.478  1.00  0.00    -0.273 OA
HETATM   11  C   UNL     1     -43.357  58.805 -56.303  1.00  0.00     0.139 C 
BRANCH   9  12
HETATM   12  C   UNL     1     -44.876  58.782 -54.295  1.00  0.00     0.037 A 
HETATM   13  C   UNL     1     -45.297  60.038 -53.840  1.00  0.00     0.032 A 
HETATM   14  C   UNL     1     -45.546  60.282 -52.480  1.00  0.00     0.039 A 
HETATM   15  C   UNL     1     -45.380  59.269 -51.542  1.00  0.00     0.068 A 
HETATM   16  C   UNL     1     -44.952  58.017 -51.977  1.00  0.00     0.039 A 
HETATM   17  C   UNL     1     -44.705  57.775 -53.334  1.00  0.00     0.032 A 
BRANCH  15  18
HETATM   18  O   UNL     1     -45.593  59.372 -50.196  1.00  0.00    -0.356 OA
HETATM   19  C   UNL     1     -45.388  60.653 -49.613  1.00  0.00     0.210 C 
ENDBRANCH  15  18
ENDBRANCH   9  12
ENDBRANCH   5   6
ENDBRANCH   1   5
BRANCH   2  20
HETATM   20  C   UNL     1     -40.855  55.824 -54.374  1.00  0.00     0.149 C 
HETATM   21  C   UNL     1     -40.591  54.435 -53.843  1.00  0.00    -0.007 A 
HETATM   22  C   UNL     1     -40.734  54.165 -52.480  1.00  0.00     0.083 A 
HETATM   23  C   UNL     1     -40.206  53.397 -54.707  1.00  0.00     0.011 A 
HETATM   24  C   UNL     1     -40.508  52.878 -51.987  1.00  0.00     0.038 A 
HETATM   25  O   UNL     1     -41.101  55.110 -51.554  1.00  0.00    -0.310 OA
HETATM   26  C   UNL     1     -40.129  51.852 -52.853  1.00  0.00     0.003 A 
HETATM   27  C   UNL     1     -39.977  52.113 -54.213  1.00  0.00     0.001 A 
HETATM   28  C   UNL     1     -41.162  56.425 -51.945  1.00  0.00     0.083 A 
HETATM   29  C   UNL     1     -41.041  56.843 -53.272  1.00  0.00    -0.007 A 
HETATM   30  C   UNL     1     -41.363  57.359 -50.927  1.00  0.00     0.038 A 
HETATM   31  C   UNL     1     -41.112  58.214 -53.566  1.00  0.00     0.011 A 
HETATM   32  C   UNL     1     -41.309  59.146 -52.547  1.00  0.00     0.001 A 
HETATM   33  C   UNL     1     -41.437  58.719 -51.226  1.00  0.00     0.003 A 
ENDBRANCH   2  20
TORSDOF 5
ENDMDL
MODEL 3
REMARK VINA RESULT:      -9.1      3.422      6.825
REMARK  5 active torsions:
REMARK  status: ('A' for Active; 'I' for Inactive)
REMARK    1  A    between atoms: O_2  and  C_3 
REMARK    2  A    between atoms: C_6  and  N_7 
REMARK    3  A    between atoms: C_11  and  C_12 
REMARK    4  A    between atoms: C_12  and  N_13 
REMARK       I    between atoms: N_13  and  C_14 
REMARK    5  A    between atoms: C_14  and  C_15 
ROOT
HETATM    1  N   UNL     1     -42.231  55.351 -54.901  1.00  0.00    -0.360 N 
HETATM    2  C   UNL     1     -41.182  54.678 -54.302  1.00  0.00     0.230 C 
HETATM    3  O   UNL     1     -40.013  54.834 -54.652  1.00  0.00    -0.272 OA
HETATM    4  H   UNL     1     -43.177  55.075 -54.657  1.00  0.00     0.162 HD
ENDROOT
BRANCH   1   5
HETATM    5  C   UNL     1     -42.034  56.239 -56.029  1.00  0.00     0.129 C 
BRANCH   5   6
HETATM    6  C   UNL     1     -42.960  57.465 -55.987  1.00  0.00     0.031 C 
HETATM    7  C   UNL     1     -42.399  58.605 -56.828  1.00  0.00     0.111 C 
HETATM    8  C   UNL     1     -42.998  58.375 -58.194  1.00  0.00     0.224 C 
HETATM    9  N   UNL     1     -44.117  57.543 -58.037  1.00  0.00    -0.318 N 
HETATM   10  O   UNL     1     -42.554  58.901 -59.203  1.00  0.00    -0.273 OA
HETATM   11  C   UNL     1     -44.306  57.195 -56.644  1.00  0.00     0.139 C 
BRANCH   9  12
HETATM   12  C   UNL     1     -45.043  57.171 -59.052  1.00  0.00     0.037 A 
HETATM   13  C   UNL     1     -44.852  56.036 -59.849  1.00  0.00     0.032 A 
HETATM   14  C   UNL     1     -45.774  55.671 -60.844  1.00  0.00     0.039 A 
HETATM   15  C   UNL     1     -46.913  56.439 -61.062  1.00  0.00     0.068 A 
HETATM   16  C   UNL     1     -47.112  57.577 -60.284  1.00  0.00     0.039 A 
HETATM   17  C   UNL     1     -46.192  57.939 -59.292  1.00  0.00     0.032 A 
BRANCH  15  18
HETATM   18  O   UNL     1     -47.887  56.194 -61.987  1.00  0.00    -0.356 OA
HETATM   19  C   UNL     1     -48.682  57.303 -62.387  1.00  0.00     0.210 C 
ENDBRANCH  15  18
ENDBRANCH   9  12
ENDBRANCH   5   6
ENDBRANCH   1   5
BRANCH   2  20
HETATM   20  C   UNL     1     -41.564  53.710 -53.172  1.00  0.00     0.149 C 
HETATM   21  C   UNL     1     -41.384  54.360 -51.820  1.00  0.00    -0.007 A 
HETATM   22  C   UNL     1     -40.451  53.850 -50.914  1.00  0.00     0.083 A 
HETATM   23  C   UNL     1     -42.143  55.485 -51.459  1.00  0.00     0.011 A 
HETATM   24  C   UNL     1     -40.269  54.459 -49.670  1.00  0.00     0.038 A 
HETATM   25  O   UNL     1     -39.666  52.753 -51.170  1.00  0.00    -0.310 OA
HETATM   26  C   UNL     1     -41.024  55.578 -49.320  1.00  0.00     0.003 A 
HETATM   27  C   UNL     1     -41.962  56.090 -50.215  1.00  0.00     0.001 A 
HETATM   28  C   UNL     1     -39.923  52.008 -52.295  1.00  0.00     0.083 A 
HETATM   29  C   UNL     1     -40.826  52.395 -53.288  1.00  0.00    -0.007 A 
HETATM   30  C   UNL     1     -39.218  50.809 -52.411  1.00  0.00     0.038 A 
HETATM   31  C   UNL     1     -41.022  51.557 -54.398  1.00  0.00     0.011 A 
HETATM   32  C   UNL     1     -40.318  50.358 -54.510  1.00  0.00     0.001 A 
HETATM   33  C   UNL     1     -39.413  49.984 -53.518  1.00  0.00     0.003 A 
ENDBRANCH   2  20
TORSDOF 5
ENDMDL
MODEL 4
REMARK VINA RESULT:      -8.8      4.461      5.747
REMARK  5 active torsions:
REMARK  status: ('A' for Active; 'I' for Inactive)
REMARK    1  A    between atoms: O_2  and  C_3 
REMARK    2  A    between atoms: C_6  and  N_7 
REMARK    3  A    between atoms: C_11  and  C_12 
REMARK    4  A    between atoms: C_12  and  N_13 
REMARK       I    between atoms: N_13  and  C_14 
REMARK    5  A    between atoms: C_14  and  C_15 
ROOT
HETATM    1  N   UNL     1     -42.214  56.237 -56.866  1.00  0.00    -0.360 N 
HETATM    2  C   UNL     1     -42.343  55.736 -55.584  1.00  0.00     0.230 C 
HETATM    3  O   UNL     1     -43.390  55.233 -55.175  1.00  0.00    -0.272 OA
HETATM    4  H   UNL     1     -41.373  56.758 -57.093  1.00  0.00     0.162 HD
ENDROOT
BRANCH   1   5
HETATM    5  C   UNL     1     -43.323  56.265 -57.799  1.00  0.00     0.129 C 
BRANCH   5   6
HETATM    6  C   UNL     1     -42.865  56.252 -59.266  1.00  0.00     0.031 C 
HETATM    7  C   UNL     1     -44.012  56.610 -60.203  1.00  0.00     0.111 C 
HETATM    8  C   UNL     1     -43.916  58.111 -60.332  1.00  0.00     0.224 C 
HETATM    9  N   UNL     1     -42.622  58.493 -59.947  1.00  0.00    -0.318 N 
HETATM   10  O   UNL     1     -44.836  58.793 -60.757  1.00  0.00    -0.273 OA
HETATM   11  C   UNL     1     -41.840  57.337 -59.561  1.00  0.00     0.139 C 
BRANCH   9  12
HETATM   12  C   UNL     1     -42.067  59.800 -60.031  1.00  0.00     0.037 A 
HETATM   13  C   UNL     1     -41.717  60.531 -58.888  1.00  0.00     0.032 A 
HETATM   14  C   UNL     1     -41.162  61.818 -58.979  1.00  0.00     0.039 A 
HETATM   15  C   UNL     1     -40.945  62.404 -60.221  1.00  0.00     0.068 A 
HETATM   16  C   UNL     1     -41.298  61.694 -61.366  1.00  0.00     0.039 A 
HETATM   17  C   UNL     1     -41.850  60.411 -61.274  1.00  0.00     0.032 A 
BRANCH  15  18
HETATM   18  O   UNL     1     -40.410  63.640 -60.448  1.00  0.00    -0.356 OA
HETATM   19  C   UNL     1     -39.239  63.975 -59.712  1.00  0.00     0.210 C 
ENDBRANCH  15  18
ENDBRANCH   9  12
ENDBRANCH   5   6
ENDBRANCH   1   5
BRANCH   2  20
HETATM   20  C   UNL     1     -41.100  55.853 -54.690  1.00  0.00     0.149 C 
HETATM   21  C   UNL     1     -40.727  54.511 -54.105  1.00  0.00    -0.007 A 
HETATM   22  C   UNL     1     -40.768  54.311 -52.723  1.00  0.00     0.083 A 
HETATM   23  C   UNL     1     -40.342  53.448 -54.938  1.00  0.00     0.011 A 
HETATM   24  C   UNL     1     -40.441  53.066 -52.180  1.00  0.00     0.038 A 
HETATM   25  O   UNL     1     -41.125  55.286 -51.826  1.00  0.00    -0.310 OA
HETATM   26  C   UNL     1     -40.064  52.014 -53.015  1.00  0.00     0.003 A 
HETATM   27  C   UNL     1     -40.013  52.206 -54.394  1.00  0.00     0.001 A 
HETATM   28  C   UNL     1     -41.283  56.573 -52.280  1.00  0.00     0.083 A 
HETATM   29  C   UNL     1     -41.270  56.921 -53.632  1.00  0.00    -0.007 A 
HETATM   30  C   UNL     1     -41.468  57.550 -51.301  1.00  0.00     0.038 A 
HETATM   31  C   UNL     1     -41.433  58.268 -53.993  1.00  0.00     0.011 A 
HETATM   32  C   UNL     1     -41.615  59.244 -53.012  1.00  0.00     0.001 A 
HETATM   33  C   UNL     1     -41.635  58.886 -51.666  1.00  0.00     0.003 A 
ENDBRANCH   2  20
TORSDOF 5
ENDMDL
MODEL 5
REMARK VINA RESULT:      -8.8      3.365      8.523
REMARK  5 active torsions:
REMARK  status: ('A' for Active; 'I' for Inactive)
REMARK    1  A    between atoms: O_2  and  C_3 
REMARK    2  A    between atoms: C_6  and  N_7 
REMARK    3  A    between atoms: C_11  and  C_12 
REMARK    4  A    between atoms: C_12  and  N_13 
REMARK       I    between atoms: N_13  and  C_14 
REMARK    5  A    between atoms: C_14  and  C_15 
ROOT
HETATM    1  N   UNL     1     -42.724  57.861 -55.236  1.00  0.00    -0.360 N 
HETATM    2  C   UNL     1     -43.329  58.191 -56.434  1.00  0.00     0.230 C 
HETATM    3  O   UNL     1     -44.465  58.662 -56.492  1.00  0.00    -0.272 OA
HETATM    4  H   UNL     1     -41.846  57.353 -55.268  1.00  0.00     0.162 HD
ENDROOT
BRANCH   1   5
HETATM    5  C   UNL     1     -43.410  57.986 -53.965  1.00  0.00     0.129 C 
BRANCH   5   6
HETATM    6  C   UNL     1     -42.450  57.953 -52.766  1.00  0.00     0.031 C 
HETATM    7  C   UNL     1     -43.145  57.422 -51.519  1.00  0.00     0.111 C 
HETATM    8  C   UNL     1     -42.902  55.934 -51.575  1.00  0.00     0.224 C 
HETATM    9  N   UNL     1     -41.815  55.710 -52.434  1.00  0.00    -0.318 N 
HETATM   10  O   UNL     1     -43.552  55.137 -50.917  1.00  0.00    -0.273 OA
HETATM   11  C   UNL     1     -41.313  56.960 -52.963  1.00  0.00     0.139 C 
BRANCH   9  12
HETATM   12  C   UNL     1     -41.176  54.462 -52.680  1.00  0.00     0.037 A 
HETATM   13  C   UNL     1     -40.520  53.753 -51.666  1.00  0.00     0.032 A 
HETATM   14  C   UNL     1     -39.899  52.518 -51.915  1.00  0.00     0.039 A 
HETATM   15  C   UNL     1     -39.923  51.963 -53.190  1.00  0.00     0.068 A 
HETATM   16  C   UNL     1     -40.564  52.661 -54.211  1.00  0.00     0.039 A 
HETATM   17  C   UNL     1     -41.183  53.892 -53.961  1.00  0.00     0.032 A 
BRANCH  15  18
HETATM   18  O   UNL     1     -39.367  50.773 -53.564  1.00  0.00    -0.356 OA
HETATM   19  C   UNL     1     -40.142  49.949 -54.426  1.00  0.00     0.210 C 
ENDBRANCH  15  18
ENDBRANCH   9  12
ENDBRANCH   5   6
ENDBRANCH   1   5
BRANCH   2  20
HETATM   20  C   UNL     1     -42.500  57.925 -57.699  1.00  0.00     0.149 C 
HETATM   21  C   UNL     1     -42.206  59.212 -58.433  1.00  0.00    -0.007 A 
HETATM   22  C   UNL     1     -42.705  59.416 -59.722  1.00  0.00     0.083 A 
HETATM   23  C   UNL     1     -41.435  60.220 -57.832  1.00  0.00     0.011 A 
HETATM   24  C   UNL     1     -42.451  60.613 -60.396  1.00  0.00     0.038 A 
HETATM   25  O   UNL     1     -43.463  58.492 -60.397  1.00  0.00    -0.310 OA
HETATM   26  C   UNL     1     -41.687  61.611 -59.790  1.00  0.00     0.003 A 
HETATM   27  C   UNL     1     -41.179  61.413 -58.508  1.00  0.00     0.001 A 
HETATM   28  C   UNL     1     -43.597  57.234 -59.862  1.00  0.00     0.083 A 
HETATM   29  C   UNL     1     -43.150  56.886 -58.586  1.00  0.00    -0.007 A 
HETATM   30  C   UNL     1     -44.223  56.286 -60.673  1.00  0.00     0.038 A 
HETATM   31  C   UNL     1     -43.329  55.568 -58.135  1.00  0.00     0.011 A 
HETATM   32  C   UNL     1     -43.952  54.621 -58.948  1.00  0.00     0.001 A 
HETATM   33  C   UNL     1     -44.402  54.981 -60.217  1.00  0.00     0.003 A 
ENDBRANCH   2  20
TORSDOF 5
ENDMDL
MODEL 6
REMARK VINA RESULT:      -8.7      2.930      5.513
REMARK  5 active torsions:
REMARK  status: ('A' for Active; 'I' for Inactive)
REMARK    1  A    between atoms: O_2  and  C_3 
REMARK    2  A    between atoms: C_6  and  N_7 
REMARK    3  A    between atoms: C_11  and  C_12 
REMARK    4  A    between atoms: C_12  and  N_13 
REMARK       I    between atoms: N_13  and  C_14 
REMARK    5  A    between atoms: C_14  and  C_15 
ROOT
HETATM    1  N   UNL     1     -42.195  55.007 -54.184  1.00  0.00    -0.360 N 
HETATM    2  C   UNL     1     -42.171  54.198 -53.063  1.00  0.00     0.230 C 
HETATM    3  O   UNL     1     -43.197  53.753 -52.549  1.00  0.00    -0.272 OA
HETATM    4  H   UNL     1     -41.327  55.448 -54.473  1.00  0.00     0.162 HD
ENDROOT
BRANCH   1   5
HETATM    5  C   UNL     1     -43.434  55.441 -54.795  1.00  0.00     0.129 C 
BRANCH   5   6
HETATM    6  C   UNL     1     -43.567  56.972 -54.845  1.00  0.00     0.031 C 
HETATM    7  C   UNL     1     -42.401  57.601 -55.596  1.00  0.00     0.111 C 
HETATM    8  C   UNL     1     -42.880  57.653 -57.027  1.00  0.00     0.224 C 
HETATM    9  N   UNL     1     -44.279  57.547 -57.015  1.00  0.00    -0.318 N 
HETATM   10  O   UNL     1     -42.119  57.814 -57.969  1.00  0.00    -0.273 OA
HETATM   11  C   UNL     1     -44.772  57.421 -55.659  1.00  0.00     0.139 C 
BRANCH   9  12
HETATM   12  C   UNL     1     -45.145  57.670 -58.137  1.00  0.00     0.037 A 
HETATM   13  C   UNL     1     -45.142  56.737 -59.182  1.00  0.00     0.032 A 
HETATM   14  C   UNL     1     -46.005  56.861 -60.282  1.00  0.00     0.039 A 
HETATM   15  C   UNL     1     -46.896  57.926 -60.360  1.00  0.00     0.068 A 
HETATM   16  C   UNL     1     -46.905  58.868 -59.334  1.00  0.00     0.039 A 
HETATM   17  C   UNL     1     -46.043  58.743 -58.237  1.00  0.00     0.032 A 
BRANCH  15  18
HETATM   18  O   UNL     1     -47.789  58.160 -61.367  1.00  0.00    -0.356 OA
HETATM   19  C   UNL     1     -48.292  57.019 -62.052  1.00  0.00     0.210 C 
ENDBRANCH  15  18
ENDBRANCH   9  12
ENDBRANCH   5   6
ENDBRANCH   1   5
BRANCH   2  20
HETATM   20  C   UNL     1     -40.780  53.893 -52.485  1.00  0.00     0.149 C 
HETATM   21  C   UNL     1     -40.323  52.509 -52.882  1.00  0.00    -0.007 A 
HETATM   22  C   UNL     1     -40.107  51.533 -51.906  1.00  0.00     0.083 A 
HETATM   23  C   UNL     1     -40.115  52.182 -54.232  1.00  0.00     0.011 A 
HETATM   24  C   UNL     1     -39.702  50.247 -52.270  1.00  0.00     0.038 A 
HETATM   25  O   UNL     1     -40.277  51.754 -50.562  1.00  0.00    -0.310 OA
HETATM   26  C   UNL     1     -39.502  49.929 -53.613  1.00  0.00     0.003 A 
HETATM   27  C   UNL     1     -39.707  50.898 -54.594  1.00  0.00     0.001 A 
HETATM   28  C   UNL     1     -40.499  53.039 -50.129  1.00  0.00     0.083 A 
HETATM   29  C   UNL     1     -40.735  54.114 -50.990  1.00  0.00    -0.007 A 
HETATM   30  C   UNL     1     -40.485  53.232 -48.747  1.00  0.00     0.038 A 
HETATM   31  C   UNL     1     -40.945  55.391 -50.446  1.00  0.00     0.011 A 
HETATM   32  C   UNL     1     -40.926  55.583 -49.064  1.00  0.00     0.001 A 
HETATM   33  C   UNL     1     -40.699  54.503 -48.214  1.00  0.00     0.003 A 
ENDBRANCH   2  20
TORSDOF 5
ENDMDL
MODEL 7
REMARK VINA RESULT:      -8.7      2.167      4.223
REMARK  5 active torsions:
REMARK  status: ('A' for Active; 'I' for Inactive)
REMARK    1  A    between atoms: O_2  and  C_3 
REMARK    2  A    between atoms: C_6  and  N_7 
REMARK    3  A    between atoms: C_11  and  C_12 
REMARK    4  A    between atoms: C_12  and  N_13 
REMARK       I    between atoms: N_13  and  C_14 
REMARK    5  A    between atoms: C_14  and  C_15 
ROOT
HETATM    1  N   UNL     1     -42.591  55.104 -54.977  1.00  0.00    -0.360 N 
HETATM    2  C   UNL     1     -41.478  54.430 -54.510  1.00  0.00     0.230 C 
HETATM    3  O   UNL     1     -40.371  54.541 -55.036  1.00  0.00    -0.272 OA
HETATM    4  H   UNL     1     -43.496  54.863 -54.584  1.00  0.00     0.162 HD
ENDROOT
BRANCH   1   5
HETATM    5  C   UNL     1     -42.547  55.939 -56.160  1.00  0.00     0.129 C 
BRANCH   5   6
HETATM    6  C   UNL     1     -41.934  57.322 -55.888  1.00  0.00     0.031 C 
HETATM    7  C   UNL     1     -42.700  58.417 -56.620  1.00  0.00     0.111 C 
HETATM    8  C   UNL     1     -43.754  58.845 -55.630  1.00  0.00     0.224 C 
HETATM    9  N   UNL     1     -43.340  58.427 -54.355  1.00  0.00    -0.318 N 
HETATM   10  O   UNL     1     -44.741  59.486 -55.956  1.00  0.00    -0.273 OA
HETATM   11  C   UNL     1     -42.069  57.738 -54.430  1.00  0.00     0.139 C 
BRANCH   9  12
HETATM   12  C   UNL     1     -43.979  58.727 -53.119  1.00  0.00     0.037 A 
HETATM   13  C   UNL     1     -43.910  60.000 -52.540  1.00  0.00     0.032 A 
HETATM   14  C   UNL     1     -44.549  60.290 -51.323  1.00  0.00     0.039 A 
HETATM   15  C   UNL     1     -45.275  59.307 -50.658  1.00  0.00     0.068 A 
HETATM   16  C   UNL     1     -45.344  58.033 -51.217  1.00  0.00     0.039 A 
HETATM   17  C   UNL     1     -44.706  57.746 -52.430  1.00  0.00     0.032 A 
BRANCH  15  18
HETATM   18  O   UNL     1     -45.946  59.458 -49.478  1.00  0.00    -0.356 OA
HETATM   19  C   UNL     1     -45.634  60.614 -48.709  1.00  0.00     0.210 C 
ENDBRANCH  15  18
ENDBRANCH   9  12
ENDBRANCH   5   6
ENDBRANCH   1   5
BRANCH   2  20
HETATM   20  C   UNL     1     -41.706  53.520 -53.294  1.00  0.00     0.149 C 
HETATM   21  C   UNL     1     -41.486  54.275 -52.005  1.00  0.00    -0.007 A 
HETATM   22  C   UNL     1     -40.458  53.901 -51.137  1.00  0.00     0.083 A 
HETATM   23  C   UNL     1     -42.304  55.365 -51.664  1.00  0.00     0.011 A 
HETATM   24  C   UNL     1     -40.240  54.609 -49.953  1.00  0.00     0.038 A 
HETATM   25  O   UNL     1     -39.609  52.849 -51.377  1.00  0.00    -0.310 OA
HETATM   26  C   UNL     1     -41.054  55.692 -49.623  1.00  0.00     0.003 A 
HETATM   27  C   UNL     1     -42.087  56.069 -50.479  1.00  0.00     0.001 A 
HETATM   28  C   UNL     1     -39.882  52.009 -52.429  1.00  0.00     0.083 A 
HETATM   29  C   UNL     1     -40.877  52.257 -53.377  1.00  0.00    -0.007 A 
HETATM   30  C   UNL     1     -39.095  50.860 -52.517  1.00  0.00     0.038 A 
HETATM   31  C   UNL     1     -41.082  51.330 -54.411  1.00  0.00     0.011 A 
HETATM   32  C   UNL     1     -40.296  50.181 -54.495  1.00  0.00     0.001 A 
HETATM   33  C   UNL     1     -39.300  49.946 -53.549  1.00  0.00     0.003 A 
ENDBRANCH   2  20
TORSDOF 5
ENDMDL
MODEL 8
REMARK VINA RESULT:      -8.6      4.263      6.351
REMARK  5 active torsions:
REMARK  status: ('A' for Active; 'I' for Inactive)
REMARK    1  A    between atoms: O_2  and  C_3 
REMARK    2  A    between atoms: C_6  and  N_7 
REMARK    3  A    between atoms: C_11  and  C_12 
REMARK    4  A    between atoms: C_12  and  N_13 
REMARK       I    between atoms: N_13  and  C_14 
REMARK    5  A    between atoms: C_14  and  C_15 
ROOT
HETATM    1  N   UNL     1     -42.560  58.362 -50.825  1.00  0.00    -0.360 N 
HETATM    2  C   UNL     1     -41.868  57.433 -51.579  1.00  0.00     0.230 C 
HETATM    3  O   UNL     1     -40.858  57.724 -52.219  1.00  0.00    -0.272 OA
HETATM    4  H   UNL     1     -43.457  58.089 -50.435  1.00  0.00     0.162 HD
ENDROOT
BRANCH   1   5
HETATM    5  C   UNL     1     -42.182  59.760 -50.786  1.00  0.00     0.129 C 
BRANCH   5   6
HETATM    6  C   UNL     1     -43.328  60.697 -51.200  1.00  0.00     0.031 C 
HETATM    7  C   UNL     1     -44.660  59.959 -51.224  1.00  0.00     0.111 C 
HETATM    8  C   UNL     1     -45.201  60.144 -49.827  1.00  0.00     0.224 C 
HETATM    9  N   UNL     1     -44.535  61.237 -49.251  1.00  0.00    -0.318 N 
HETATM   10  O   UNL     1     -46.098  59.452 -49.372  1.00  0.00    -0.273 OA
HETATM   11  C   UNL     1     -43.573  61.797 -50.177  1.00  0.00     0.139 C 
BRANCH   9  12
HETATM   12  C   UNL     1     -44.819  61.829 -47.989  1.00  0.00     0.037 A 
HETATM   13  C   UNL     1     -44.763  61.096 -46.796  1.00  0.00     0.032 A 
HETATM   14  C   UNL     1     -45.037  61.691 -45.554  1.00  0.00     0.039 A 
HETATM   15  C   UNL     1     -45.374  63.038 -45.477  1.00  0.00     0.068 A 
HETATM   16  C   UNL     1     -45.443  63.778 -46.655  1.00  0.00     0.039 A 
HETATM   17  C   UNL     1     -45.169  63.184 -47.894  1.00  0.00     0.032 A 
BRANCH  15  18
HETATM   18  O   UNL     1     -45.656  63.737 -44.338  1.00  0.00    -0.356 OA
HETATM   19  C   UNL     1     -46.848  64.514 -44.345  1.00  0.00     0.210 C 
ENDBRANCH  15  18
ENDBRANCH   9  12
ENDBRANCH   5   6
ENDBRANCH   1   5
BRANCH   2  20
HETATM   20  C   UNL     1     -42.443  56.009 -51.581  1.00  0.00     0.149 C 
HETATM   21  C   UNL     1     -41.628  55.097 -50.694  1.00  0.00    -0.007 A 
HETATM   22  C   UNL     1     -40.947  54.007 -51.242  1.00  0.00     0.083 A 
HETATM   23  C   UNL     1     -41.538  55.333 -49.312  1.00  0.00     0.011 A 
HETATM   24  C   UNL     1     -40.178  53.173 -50.427  1.00  0.00     0.038 A 
HETATM   25  O   UNL     1     -40.976  53.689 -52.577  1.00  0.00    -0.310 OA
HETATM   26  C   UNL     1     -40.091  53.416 -49.057  1.00  0.00     0.003 A 
HETATM   27  C   UNL     1     -40.773  54.497 -48.500  1.00  0.00     0.001 A 
HETATM   28  C   UNL     1     -41.852  54.360 -53.395  1.00  0.00     0.083 A 
HETATM   29  C   UNL     1     -42.596  55.469 -52.985  1.00  0.00    -0.007 A 
HETATM   30  C   UNL     1     -41.967  53.875 -54.699  1.00  0.00     0.038 A 
HETATM   31  C   UNL     1     -43.470  56.080 -53.898  1.00  0.00     0.011 A 
HETATM   32  C   UNL     1     -43.587  55.592 -55.200  1.00  0.00     0.001 A 
HETATM   33  C   UNL     1     -42.834  54.490 -55.602  1.00  0.00     0.003 A 
ENDBRANCH   2  20
TORSDOF 5
ENDMDL
MODEL 9
REMARK VINA RESULT:      -8.6      2.977      3.906
REMARK  5 active torsions:
REMARK  status: ('A' for Active; 'I' for Inactive)
REMARK    1  A    between atoms: O_2  and  C_3 
REMARK    2  A    between atoms: C_6  and  N_7 
REMARK    3  A    between atoms: C_11  and  C_12 
REMARK    4  A    between atoms: C_12  and  N_13 
REMARK       I    between atoms: N_13  and  C_14 
REMARK    5  A    between atoms: C_14  and  C_15 
ROOT
HETATM    1  N   UNL     1     -41.362  55.100 -54.123  1.00  0.00    -0.360 N 
HETATM    2  C   UNL     1     -41.548  54.046 -53.248  1.00  0.00     0.230 C 
HETATM    3  O   UNL     1     -42.639  53.495 -53.102  1.00  0.00    -0.272 OA
HETATM    4  H   UNL     1     -40.476  55.595 -54.094  1.00  0.00     0.162 HD
ENDROOT
BRANCH   1   5
HETATM    5  C   UNL     1     -42.455  55.674 -54.883  1.00  0.00     0.129 C 
BRANCH   5   6
HETATM    6  C   UNL     1     -43.160  56.818 -54.137  1.00  0.00     0.031 C 
HETATM    7  C   UNL     1     -42.194  57.554 -53.217  1.00  0.00     0.111 C 
HETATM    8  C   UNL     1     -41.636  58.654 -54.087  1.00  0.00     0.224 C 
HETATM    9  N   UNL     1     -42.514  58.835 -55.166  1.00  0.00    -0.318 N 
HETATM   10  O   UNL     1     -40.617  59.264 -53.801  1.00  0.00    -0.273 OA
HETATM   11  C   UNL     1     -43.631  57.918 -55.077  1.00  0.00     0.139 C 
BRANCH   9  12
HETATM   12  C   UNL     1     -42.432  59.849 -56.161  1.00  0.00     0.037 A 
HETATM   13  C   UNL     1     -41.876  59.605 -57.423  1.00  0.00     0.032 A 
HETATM   14  C   UNL     1     -41.806  60.609 -58.402  1.00  0.00     0.039 A 
HETATM   15  C   UNL     1     -42.294  61.885 -58.139  1.00  0.00     0.068 A 
HETATM   16  C   UNL     1     -42.840  62.146 -56.884  1.00  0.00     0.039 A 
HETATM   17  C   UNL     1     -42.910  61.143 -55.909  1.00  0.00     0.032 A 
BRANCH  15  18
HETATM   18  O   UNL     1     -42.292  62.944 -59.000  1.00  0.00    -0.356 OA
HETATM   19  C   UNL     1     -41.246  62.982 -59.964  1.00  0.00     0.210 C 
ENDBRANCH  15  18
ENDBRANCH   9  12
ENDBRANCH   5   6
ENDBRANCH   1   5
BRANCH   2  20
HETATM   20  C   UNL     1     -40.308  53.606 -52.456  1.00  0.00     0.149 C 
HETATM   21  C   UNL     1     -39.990  52.152 -52.715  1.00  0.00    -0.007 A 
HETATM   22  C   UNL     1     -40.049  51.223 -51.674  1.00  0.00     0.083 A 
HETATM   23  C   UNL     1     -39.638  51.714 -54.003  1.00  0.00     0.011 A 
HETATM   24  C   UNL     1     -39.773  49.875 -51.915  1.00  0.00     0.038 A 
HETATM   25  O   UNL     1     -40.377  51.550 -50.383  1.00  0.00    -0.310 OA
HETATM   26  C   UNL     1     -39.428  49.447 -53.197  1.00  0.00     0.003 A 
HETATM   27  C   UNL     1     -39.359  50.368 -54.240  1.00  0.00     0.001 A 
HETATM   28  C   UNL     1     -40.484  52.879 -50.048  1.00  0.00     0.083 A 
HETATM   29  C   UNL     1     -40.447  53.916 -50.982  1.00  0.00    -0.007 A 
HETATM   30  C   UNL     1     -40.641  53.158 -48.689  1.00  0.00     0.038 A 
HETATM   31  C   UNL     1     -40.558  55.242 -50.535  1.00  0.00     0.011 A 
HETATM   32  C   UNL     1     -40.711  55.519 -49.176  1.00  0.00     0.001 A 
HETATM   33  C   UNL     1     -40.755  54.477 -48.252  1.00  0.00     0.003 A 
ENDBRANCH   2  20
TORSDOF 5
ENDMDL
MODEL 10
REMARK VINA RESULT:      -8.5      2.307      4.726
REMARK  5 active torsions:
REMARK  status: ('A' for Active; 'I' for Inactive)
REMARK    1  A    between atoms: O_2  and  C_3 
REMARK    2  A    between atoms: C_6  and  N_7 
REMARK    3  A    between atoms: C_11  and  C_12 
REMARK    4  A    between atoms: C_12  and  N_13 
REMARK       I    between atoms: N_13  and  C_14 
REMARK    5  A    between atoms: C_14  and  C_15 
ROOT
HETATM    1  N   UNL     1     -42.719  57.573 -51.488  1.00  0.00    -0.360 N 
HETATM    2  C   UNL     1     -42.600  56.236 -51.820  1.00  0.00     0.230 C 
HETATM    3  O   UNL     1     -43.571  55.543 -52.124  1.00  0.00    -0.272 OA
HETATM    4  H   UNL     1     -41.902  58.048 -51.117  1.00  0.00     0.162 HD
ENDROOT
BRANCH   1   5
HETATM    5  C   UNL     1     -44.005  58.237 -51.412  1.00  0.00     0.129 C 
BRANCH   5   6
HETATM    6  C   UNL     1     -44.071  59.504 -52.280  1.00  0.00     0.031 C 
HETATM    7  C   UNL     1     -42.705  60.171 -52.385  1.00  0.00     0.111 C 
HETATM    8  C   UNL     1     -42.087  59.536 -53.607  1.00  0.00     0.224 C 
HETATM    9  N   UNL     1     -43.123  58.977 -54.370  1.00  0.00    -0.318 N 
HETATM   10  O   UNL     1     -40.890  59.590 -53.841  1.00  0.00    -0.273 OA
HETATM   11  C   UNL     1     -44.404  59.193 -53.732  1.00  0.00     0.139 C 
BRANCH   9  12
HETATM   12  C   UNL     1     -42.999  58.384 -55.658  1.00  0.00     0.037 A 
HETATM   13  C   UNL     1     -43.511  57.112 -55.941  1.00  0.00     0.032 A 
HETATM   14  C   UNL     1     -43.391  56.538 -57.217  1.00  0.00     0.039 A 
HETATM   15  C   UNL     1     -42.753  57.228 -58.242  1.00  0.00     0.068 A 
HETATM   16  C   UNL     1     -42.230  58.491 -57.974  1.00  0.00     0.039 A 
HETATM   17  C   UNL     1     -42.351  59.062 -56.701  1.00  0.00     0.032 A 
BRANCH  15  18
HETATM   18  O   UNL     1     -42.575  56.789 -59.523  1.00  0.00    -0.356 OA
HETATM   19  C   UNL     1     -43.429  55.739 -59.963  1.00  0.00     0.210 C 
ENDBRANCH  15  18
ENDBRANCH   9  12
ENDBRANCH   5   6
ENDBRANCH   1   5
BRANCH   2  20
HETATM   20  C   UNL     1     -41.177  55.659 -51.776  1.00  0.00     0.149 C 
HETATM   21  C   UNL     1     -40.863  54.902 -53.045  1.00  0.00    -0.007 A 
HETATM   22  C   UNL     1     -40.605  53.530 -52.999  1.00  0.00     0.083 A 
HETATM   23  C   UNL     1     -40.832  55.561 -54.285  1.00  0.00     0.011 A 
HETATM   24  C   UNL     1     -40.332  52.823 -54.172  1.00  0.00     0.038 A 
HETATM   25  O   UNL     1     -40.606  52.796 -51.838  1.00  0.00    -0.310 OA
HETATM   26  C   UNL     1     -40.306  53.484 -55.400  1.00  0.00     0.003 A 
HETATM   27  C   UNL     1     -40.556  54.854 -55.455  1.00  0.00     0.001 A 
HETATM   28  C   UNL     1     -40.690  53.462 -50.639  1.00  0.00     0.083 A 
HETATM   29  C   UNL     1     -40.948  54.830 -50.532  1.00  0.00    -0.007 A 
HETATM   30  C   UNL     1     -40.507  52.686 -49.493  1.00  0.00     0.038 A 
HETATM   31  C   UNL     1     -41.007  55.416 -49.258  1.00  0.00     0.011 A 
HETATM   32  C   UNL     1     -40.820  54.640 -48.113  1.00  0.00     0.001 A 
HETATM   33  C   UNL     1     -40.572  53.274 -48.231  1.00  0.00     0.003 A 
ENDBRANCH   2  20
TORSDOF 5
ENDMDL
