MODEL 1
REMARK VINA RESULT:      -8.5      0.000      0.000
REMARK  7 active torsions:
REMARK  status: ('A' for Active; 'I' for Inactive)
REMARK    1  A    between atoms: C_12  and  S_13 
REMARK    2  A    between atoms: S_13  and  C_14 
REMARK    3  A    between atoms: C_14  and  C_15 
REMARK       I    between atoms: C_15  and  N_16 
REMARK    4  A    between atoms: N_16  and  C_17 
REMARK    5  A    between atoms: C_17  and  C_18 
REMARK    6  A    between atoms: C_18  and  C_19 
REMARK    7  A    between atoms: C_22  and  O_23 
ROOT
HETATM    1  S   UNL     1     -41.706  56.608 -50.689  1.00  0.00    -0.080 SA
ENDROOT
BRANCH   1   2
HETATM    2  C   UNL     1     -41.258  55.107 -49.951  1.00  0.00     0.197 A 
HETATM    3  N   UNL     1     -40.841  53.945 -50.581  1.00  0.00    -0.271 N 
HETATM    4  C   UNL     1     -40.620  53.568 -51.940  1.00  0.00     0.054 A 
HETATM    5  C   UNL     1     -40.637  53.063 -49.525  1.00  0.00     0.159 A 
HETATM    6  C   UNL     1     -40.183  52.239 -52.169  1.00  0.00    -0.003 A 
HETATM    7  C   UNL     1     -40.808  54.435 -53.022  1.00  0.00     0.031 A 
HETATM    8  C   UNL     1     -39.973  51.311 -51.027  1.00  0.00    -0.046 A 
HETATM    9  C   UNL     1     -39.952  51.825 -53.492  1.00  0.00     0.014 A 
HETATM   10  C   UNL     1     -39.508  49.903 -51.271  1.00  0.00     0.049 C 
HETATM   11  C   UNL     1     -40.202  51.746 -49.777  1.00  0.00     0.060 A 
HETATM   12  C   UNL     1     -40.145  52.696 -54.562  1.00  0.00     0.001 A 
HETATM   13  C   UNL     1     -40.571  53.997 -54.327  1.00  0.00     0.002 A 
HETATM   14  N   UNL     1     -40.905  53.650 -48.379  1.00  0.00    -0.129 NA
HETATM   15  N   UNL     1     -41.292  54.930 -48.646  1.00  0.00    -0.122 NA
ENDBRANCH   1   2
BRANCH   1  16
HETATM   16  C   UNL     1     -43.466  56.305 -51.030  1.00  0.00     0.185 C 
BRANCH  16  17
HETATM   17  C   UNL     1     -44.097  57.529 -51.679  1.00  0.00     0.227 C 
HETATM   18  N   UNL     1     -44.110  57.620 -53.044  1.00  0.00    -0.360 N 
HETATM   19  H   UNL     1     -44.537  58.476 -53.380  1.00  0.00     0.162 HD
HETATM   20  O   UNL     1     -44.634  58.434 -51.037  1.00  0.00    -0.273 OA
BRANCH  18  21
HETATM   21  C   UNL     1     -43.557  56.677 -54.001  1.00  0.00     0.127 C 
BRANCH  21  22
HETATM   22  C   UNL     1     -42.411  57.288 -54.807  1.00  0.00     0.058 C 
BRANCH  22  23
HETATM   23  C   UNL     1     -42.601  57.088 -56.288  1.00  0.00    -0.057 A 
HETATM   24  C   UNL     1     -42.996  55.844 -56.792  1.00  0.00     0.010 A 
HETATM   25  C   UNL     1     -43.151  55.657 -58.167  1.00  0.00     0.037 A 
HETATM   26  C   UNL     1     -42.912  56.704 -59.061  1.00  0.00     0.068 A 
HETATM   27  C   UNL     1     -42.513  57.943 -58.564  1.00  0.00     0.037 A 
HETATM   28  C   UNL     1     -42.357  58.134 -57.187  1.00  0.00     0.010 A 
BRANCH  26  29
HETATM   29  O   UNL     1     -43.103  56.385 -60.377  1.00  0.00    -0.356 OA
HETATM   30  C   UNL     1     -44.339  55.769 -60.717  1.00  0.00     0.210 C 
ENDBRANCH  26  29
ENDBRANCH  22  23
ENDBRANCH  21  22
ENDBRANCH  18  21
ENDBRANCH  16  17
ENDBRANCH   1  16
TORSDOF 7
ENDMDL
MODEL 2
REMARK VINA RESULT:      -8.4      1.775      2.421
REMARK  7 active torsions:
REMARK  status: ('A' for Active; 'I' for Inactive)
REMARK    1  A    between atoms: C_12  and  S_13 
REMARK    2  A    between atoms: S_13  and  C_14 
REMARK    3  A    between atoms: C_14  and  C_15 
REMARK       I    between atoms: C_15  and  N_16 
REMARK    4  A    between atoms: N_16  and  C_17 
REMARK    5  A    between atoms: C_17  and  C_18 
REMARK    6  A    between atoms: C_18  and  C_19 
REMARK    7  A    between atoms: C_22  and  O_23 
ROOT
HETATM    1  S   UNL     1     -41.562  57.093 -52.766  1.00  0.00    -0.080 SA
ENDROOT
BRANCH   1   2
HETATM    2  C   UNL     1     -41.353  56.000 -51.439  1.00  0.00     0.197 A 
HETATM    3  N   UNL     1     -40.960  54.672 -51.491  1.00  0.00    -0.271 N 
HETATM    4  C   UNL     1     -40.591  53.778 -52.541  1.00  0.00     0.054 A 
HETATM    5  C   UNL     1     -40.980  54.280 -50.157  1.00  0.00     0.159 A 
HETATM    6  C   UNL     1     -40.248  52.456 -52.160  1.00  0.00    -0.003 A 
HETATM    7  C   UNL     1     -40.554  54.145 -53.891  1.00  0.00     0.031 A 
HETATM    8  C   UNL     1     -40.277  52.056 -50.730  1.00  0.00    -0.046 A 
HETATM    9  C   UNL     1     -39.878  51.542 -53.161  1.00  0.00     0.014 A 
HETATM   10  C   UNL     1     -39.910  50.655 -50.327  1.00  0.00     0.049 C 
HETATM   11  C   UNL     1     -40.634  52.960 -49.802  1.00  0.00     0.060 A 
HETATM   12  C   UNL     1     -39.847  51.918 -54.503  1.00  0.00     0.001 A 
HETATM   13  C   UNL     1     -40.183  53.216 -54.866  1.00  0.00     0.002 A 
HETATM   14  N   UNL     1     -41.346  55.282 -49.389  1.00  0.00    -0.129 NA
HETATM   15  N   UNL     1     -41.579  56.359 -50.193  1.00  0.00    -0.122 NA
ENDBRANCH   1   2
BRANCH   1  16
HETATM   16  C   UNL     1     -43.357  56.969 -53.026  1.00  0.00     0.185 C 
BRANCH  16  17
HETATM   17  C   UNL     1     -43.687  55.737 -53.857  1.00  0.00     0.227 C 
HETATM   18  N   UNL     1     -43.744  55.854 -55.218  1.00  0.00    -0.360 N 
HETATM   19  H   UNL     1     -43.985  54.985 -55.681  1.00  0.00     0.162 HD
HETATM   20  O   UNL     1     -43.873  54.622 -53.367  1.00  0.00    -0.273 OA
BRANCH  18  21
HETATM   21  C   UNL     1     -43.547  57.054 -56.015  1.00  0.00     0.127 C 
BRANCH  21  22
HETATM   22  C   UNL     1     -42.817  56.756 -57.323  1.00  0.00     0.058 C 
BRANCH  22  23
HETATM   23  C   UNL     1     -43.778  56.468 -58.447  1.00  0.00    -0.057 A 
HETATM   24  C   UNL     1     -44.903  57.277 -58.644  1.00  0.00     0.010 A 
HETATM   25  C   UNL     1     -45.802  56.995 -59.674  1.00  0.00     0.037 A 
HETATM   26  C   UNL     1     -45.598  55.902 -60.520  1.00  0.00     0.068 A 
HETATM   27  C   UNL     1     -44.483  55.089 -60.324  1.00  0.00     0.037 A 
HETATM   28  C   UNL     1     -43.579  55.370 -59.293  1.00  0.00     0.010 A 
BRANCH  26  29
HETATM   29  O   UNL     1     -46.554  55.742 -61.486  1.00  0.00    -0.356 OA
HETATM   30  C   UNL     1     -47.685  56.600 -61.419  1.00  0.00     0.210 C 
ENDBRANCH  26  29
ENDBRANCH  22  23
ENDBRANCH  21  22
ENDBRANCH  18  21
ENDBRANCH  16  17
ENDBRANCH   1  16
TORSDOF 7
ENDMDL
MODEL 3
REMARK VINA RESULT:      -8.1      2.683      7.920
REMARK  7 active torsions:
REMARK  status: ('A' for Active; 'I' for Inactive)
REMARK    1  A    between atoms: C_12  and  S_13 
REMARK    2  A    between atoms: S_13  and  C_14 
REMARK    3  A    between atoms: C_14  and  C_15 
REMARK       I    between atoms: C_15  and  N_16 
REMARK    4  A    between atoms: N_16  and  C_17 
REMARK    5  A    between atoms: C_17  and  C_18 
REMARK    6  A    between atoms: C_18  and  C_19 
REMARK    7  A    between atoms: C_22  and  O_23 
ROOT
HETATM    1  S   UNL     1     -42.642  56.932 -54.467  1.00  0.00    -0.080 SA
ENDROOT
BRANCH   1   2
HETATM    2  C   UNL     1     -42.275  58.283 -55.486  1.00  0.00     0.197 A 
HETATM    3  N   UNL     1     -42.356  58.346 -56.869  1.00  0.00    -0.271 N 
HETATM    4  C   UNL     1     -42.751  57.432 -57.891  1.00  0.00     0.054 A 
HETATM    5  C   UNL     1     -41.931  59.640 -57.155  1.00  0.00     0.159 A 
HETATM    6  C   UNL     1     -42.684  57.903 -59.227  1.00  0.00    -0.003 A 
HETATM    7  C   UNL     1     -43.190  56.129 -57.634  1.00  0.00     0.031 A 
HETATM    8  C   UNL     1     -42.225  59.287 -59.513  1.00  0.00    -0.046 A 
HETATM    9  C   UNL     1     -43.063  57.036 -60.266  1.00  0.00     0.014 A 
HETATM   10  C   UNL     1     -42.157  59.785 -60.929  1.00  0.00     0.049 C 
HETATM   11  C   UNL     1     -41.873  60.086 -58.492  1.00  0.00     0.060 A 
HETATM   12  C   UNL     1     -43.497  55.738 -59.998  1.00  0.00     0.001 A 
HETATM   13  C   UNL     1     -43.561  55.288 -58.686  1.00  0.00     0.002 A 
HETATM   14  N   UNL     1     -41.631  60.281 -56.047  1.00  0.00    -0.129 NA
HETATM   15  N   UNL     1     -41.847  59.430 -55.003  1.00  0.00    -0.122 NA
ENDBRANCH   1   2
BRANCH   1  16
HETATM   16  C   UNL     1     -41.855  57.457 -52.914  1.00  0.00     0.185 C 
BRANCH  16  17
HETATM   17  C   UNL     1     -42.875  57.472 -51.784  1.00  0.00     0.227 C 
HETATM   18  N   UNL     1     -42.604  56.770 -50.641  1.00  0.00    -0.360 N 
HETATM   19  H   UNL     1     -43.348  56.829 -49.955  1.00  0.00     0.162 HD
HETATM   20  O   UNL     1     -43.924  58.116 -51.829  1.00  0.00    -0.273 OA
BRANCH  18  21
HETATM   21  C   UNL     1     -41.435  55.957 -50.356  1.00  0.00     0.127 C 
BRANCH  21  22
HETATM   22  C   UNL     1     -41.806  54.499 -50.087  1.00  0.00     0.058 C 
BRANCH  22  23
HETATM   23  C   UNL     1     -41.084  53.558 -51.017  1.00  0.00    -0.057 A 
HETATM   24  C   UNL     1     -41.116  53.764 -52.401  1.00  0.00     0.010 A 
HETATM   25  C   UNL     1     -40.463  52.878 -53.260  1.00  0.00     0.037 A 
HETATM   26  C   UNL     1     -39.772  51.774 -52.757  1.00  0.00     0.068 A 
HETATM   27  C   UNL     1     -39.742  51.561 -51.379  1.00  0.00     0.037 A 
HETATM   28  C   UNL     1     -40.395  52.447 -50.515  1.00  0.00     0.010 A 
BRANCH  26  29
HETATM   29  O   UNL     1     -39.177  50.990 -53.707  1.00  0.00    -0.356 OA
HETATM   30  C   UNL     1     -40.011  50.057 -54.383  1.00  0.00     0.210 C 
ENDBRANCH  26  29
ENDBRANCH  22  23
ENDBRANCH  21  22
ENDBRANCH  18  21
ENDBRANCH  16  17
ENDBRANCH   1  16
TORSDOF 7
ENDMDL
MODEL 4
REMARK VINA RESULT:      -8.1      2.083      3.396
REMARK  7 active torsions:
REMARK  status: ('A' for Active; 'I' for Inactive)
REMARK    1  A    between atoms: C_12  and  S_13 
REMARK    2  A    between atoms: S_13  and  C_14 
REMARK    3  A    between atoms: C_14  and  C_15 
REMARK       I    between atoms: C_15  and  N_16 
REMARK    4  A    between atoms: N_16  and  C_17 
REMARK    5  A    between atoms: C_17  and  C_18 
REMARK    6  A    between atoms: C_18  and  C_19 
REMARK    7  A    between atoms: C_22  and  O_23 
ROOT
HETATM    1  S   UNL     1     -43.928  57.294 -51.814  1.00  0.00    -0.080 SA
ENDROOT
BRANCH   1   2
HETATM    2  C   UNL     1     -43.452  56.082 -52.955  1.00  0.00     0.197 A 
HETATM    3  N   UNL     1     -42.486  55.101 -52.793  1.00  0.00    -0.271 N 
HETATM    4  C   UNL     1     -41.608  54.726 -51.733  1.00  0.00     0.054 A 
HETATM    5  C   UNL     1     -42.506  54.430 -54.011  1.00  0.00     0.159 A 
HETATM    6  C   UNL     1     -40.742  53.631 -51.979  1.00  0.00    -0.003 A 
HETATM    7  C   UNL     1     -41.571  55.377 -50.494  1.00  0.00     0.031 A 
HETATM    8  C   UNL     1     -40.776  52.928 -53.288  1.00  0.00    -0.046 A 
HETATM    9  C   UNL     1     -39.861  53.227 -50.963  1.00  0.00     0.014 A 
HETATM   10  C   UNL     1     -39.860  51.766 -53.548  1.00  0.00     0.049 C 
HETATM   11  C   UNL     1     -41.636  53.343 -54.234  1.00  0.00     0.060 A 
HETATM   12  C   UNL     1     -39.831  53.884 -49.733  1.00  0.00     0.001 A 
HETATM   13  C   UNL     1     -40.685  54.955 -49.501  1.00  0.00     0.002 A 
HETATM   14  N   UNL     1     -43.401  54.961 -54.815  1.00  0.00    -0.129 NA
HETATM   15  N   UNL     1     -43.994  55.995 -54.152  1.00  0.00    -0.122 NA
ENDBRANCH   1   2
BRANCH   1  16
HETATM   16  C   UNL     1     -43.436  58.804 -52.699  1.00  0.00     0.185 C 
BRANCH  16  17
HETATM   17  C   UNL     1     -41.989  58.697 -53.163  1.00  0.00     0.227 C 
HETATM   18  N   UNL     1     -41.714  58.808 -54.498  1.00  0.00    -0.360 N 
HETATM   19  H   UNL     1     -40.727  58.708 -54.708  1.00  0.00     0.162 HD
HETATM   20  O   UNL     1     -41.041  58.549 -52.390  1.00  0.00    -0.273 OA
BRANCH  18  21
HETATM   21  C   UNL     1     -42.658  58.998 -55.586  1.00  0.00     0.127 C 
BRANCH  21  22
HETATM   22  C   UNL     1     -41.951  59.220 -56.922  1.00  0.00     0.058 C 
BRANCH  22  23
HETATM   23  C   UNL     1     -42.487  58.309 -57.996  1.00  0.00    -0.057 A 
HETATM   24  C   UNL     1     -43.287  57.211 -57.661  1.00  0.00     0.010 A 
HETATM   25  C   UNL     1     -43.765  56.357 -58.658  1.00  0.00     0.037 A 
HETATM   26  C   UNL     1     -43.452  56.581 -60.000  1.00  0.00     0.068 A 
HETATM   27  C   UNL     1     -42.649  57.670 -60.338  1.00  0.00     0.037 A 
HETATM   28  C   UNL     1     -42.169  58.527 -59.342  1.00  0.00     0.010 A 
BRANCH  26  29
HETATM   29  O   UNL     1     -43.985  55.671 -60.870  1.00  0.00    -0.356 OA
HETATM   30  C   UNL     1     -44.813  54.658 -60.313  1.00  0.00     0.210 C 
ENDBRANCH  26  29
ENDBRANCH  22  23
ENDBRANCH  21  22
ENDBRANCH  18  21
ENDBRANCH  16  17
ENDBRANCH   1  16
TORSDOF 7
ENDMDL
MODEL 5
REMARK VINA RESULT:      -7.9      1.595      2.002
REMARK  7 active torsions:
REMARK  status: ('A' for Active; 'I' for Inactive)
REMARK    1  A    between atoms: C_12  and  S_13 
REMARK    2  A    between atoms: S_13  and  C_14 
REMARK    3  A    between atoms: C_14  and  C_15 
REMARK       I    between atoms: C_15  and  N_16 
REMARK    4  A    between atoms: N_16  and  C_17 
REMARK    5  A    between atoms: C_17  and  C_18 
REMARK    6  A    between atoms: C_18  and  C_19 
REMARK    7  A    between atoms: C_22  and  O_23 
ROOT
HETATM    1  S   UNL     1     -42.295  56.823 -50.965  1.00  0.00    -0.080 SA
ENDROOT
BRANCH   1   2
HETATM    2  C   UNL     1     -41.671  55.351 -50.301  1.00  0.00     0.197 A 
HETATM    3  N   UNL     1     -41.130  54.276 -50.989  1.00  0.00    -0.271 N 
HETATM    4  C   UNL     1     -40.880  53.991 -52.365  1.00  0.00     0.054 A 
HETATM    5  C   UNL     1     -40.816  53.374 -49.977  1.00  0.00     0.159 A 
HETATM    6  C   UNL     1     -40.296  52.733 -52.659  1.00  0.00    -0.003 A 
HETATM    7  C   UNL     1     -41.177  54.880 -53.403  1.00  0.00     0.031 A 
HETATM    8  C   UNL     1     -39.970  51.783 -51.564  1.00  0.00    -0.046 A 
HETATM    9  C   UNL     1     -40.032  52.411 -54.001  1.00  0.00     0.014 A 
HETATM   10  C   UNL     1     -39.348  50.451 -51.877  1.00  0.00     0.049 C 
HETATM   11  C   UNL     1     -40.235  52.129 -50.294  1.00  0.00     0.060 A 
HETATM   12  C   UNL     1     -40.335  53.304 -55.028  1.00  0.00     0.001 A 
HETATM   13  C   UNL     1     -40.904  54.534 -54.729  1.00  0.00     0.002 A 
HETATM   14  N   UNL     1     -41.137  53.871 -48.802  1.00  0.00    -0.129 NA
HETATM   15  N   UNL     1     -41.672  55.110 -49.007  1.00  0.00    -0.122 NA
ENDBRANCH   1   2
BRANCH   1  16
HETATM   16  C   UNL     1     -40.795  57.851 -50.975  1.00  0.00     0.185 C 
BRANCH  16  17
HETATM   17  C   UNL     1     -41.138  59.282 -51.367  1.00  0.00     0.227 C 
HETATM   18  N   UNL     1     -41.334  59.576 -52.688  1.00  0.00    -0.360 N 
HETATM   19  H   UNL     1     -41.542  60.555 -52.850  1.00  0.00     0.162 HD
HETATM   20  O   UNL     1     -41.285  60.191 -50.547  1.00  0.00    -0.273 OA
BRANCH  18  21
HETATM   21  C   UNL     1     -41.231  58.673 -53.823  1.00  0.00     0.127 C 
BRANCH  21  22
HETATM   22  C   UNL     1     -42.603  58.312 -54.390  1.00  0.00     0.058 C 
BRANCH  22  23
HETATM   23  C   UNL     1     -42.564  58.152 -55.888  1.00  0.00    -0.057 A 
HETATM   24  C   UNL     1     -42.215  59.230 -56.708  1.00  0.00     0.010 A 
HETATM   25  C   UNL     1     -42.200  59.083 -58.096  1.00  0.00     0.037 A 
HETATM   26  C   UNL     1     -42.536  57.864 -58.689  1.00  0.00     0.068 A 
HETATM   27  C   UNL     1     -42.891  56.788 -57.876  1.00  0.00     0.037 A 
HETATM   28  C   UNL     1     -42.906  56.932 -56.484  1.00  0.00     0.010 A 
BRANCH  26  29
HETATM   29  O   UNL     1     -42.479  57.858 -60.056  1.00  0.00    -0.356 OA
HETATM   30  C   UNL     1     -41.863  58.978 -60.678  1.00  0.00     0.210 C 
ENDBRANCH  26  29
ENDBRANCH  22  23
ENDBRANCH  21  22
ENDBRANCH  18  21
ENDBRANCH  16  17
ENDBRANCH   1  16
TORSDOF 7
ENDMDL
MODEL 6
REMARK VINA RESULT:      -7.9      2.342      5.223
REMARK  7 active torsions:
REMARK  status: ('A' for Active; 'I' for Inactive)
REMARK    1  A    between atoms: C_12  and  S_13 
REMARK    2  A    between atoms: S_13  and  C_14 
REMARK    3  A    between atoms: C_14  and  C_15 
REMARK       I    between atoms: C_15  and  N_16 
REMARK    4  A    between atoms: N_16  and  C_17 
REMARK    5  A    between atoms: C_17  and  C_18 
REMARK    6  A    between atoms: C_18  and  C_19 
REMARK    7  A    between atoms: C_22  and  O_23 
ROOT
HETATM    1  S   UNL     1     -43.259  54.447 -55.548  1.00  0.00    -0.080 SA
ENDROOT
BRANCH   1   2
HETATM    2  C   UNL     1     -42.985  55.049 -53.949  1.00  0.00     0.197 A 
HETATM    3  N   UNL     1     -42.122  54.541 -52.990  1.00  0.00    -0.271 N 
HETATM    4  C   UNL     1     -41.202  53.451 -52.949  1.00  0.00     0.054 A 
HETATM    5  C   UNL     1     -42.317  55.388 -51.903  1.00  0.00     0.159 A 
HETATM    6  C   UNL     1     -40.491  53.263 -51.736  1.00  0.00    -0.003 A 
HETATM    7  C   UNL     1     -40.978  52.588 -54.027  1.00  0.00     0.031 A 
HETATM    8  C   UNL     1     -40.715  54.177 -50.586  1.00  0.00    -0.046 A 
HETATM    9  C   UNL     1     -39.574  52.202 -51.651  1.00  0.00     0.014 A 
HETATM   10  C   UNL     1     -39.959  53.978 -49.302  1.00  0.00     0.049 C 
HETATM   11  C   UNL     1     -41.598  55.182 -50.708  1.00  0.00     0.060 A 
HETATM   12  C   UNL     1     -39.361  51.346 -52.731  1.00  0.00     0.001 A 
HETATM   13  C   UNL     1     -40.061  51.540 -53.915  1.00  0.00     0.002 A 
HETATM   14  N   UNL     1     -43.207  56.311 -52.194  1.00  0.00    -0.129 NA
HETATM   15  N   UNL     1     -43.624  56.098 -53.476  1.00  0.00    -0.122 NA
ENDBRANCH   1   2
BRANCH   1  16
HETATM   16  C   UNL     1     -42.469  55.750 -56.540  1.00  0.00     0.185 C 
BRANCH  16  17
HETATM   17  C   UNL     1     -43.350  56.119 -57.726  1.00  0.00     0.227 C 
HETATM   18  N   UNL     1     -44.249  57.141 -57.588  1.00  0.00    -0.360 N 
HETATM   19  H   UNL     1     -44.799  57.301 -58.425  1.00  0.00     0.162 HD
HETATM   20  O   UNL     1     -43.272  55.566 -58.824  1.00  0.00    -0.273 OA
BRANCH  18  21
HETATM   21  C   UNL     1     -44.507  57.943 -56.403  1.00  0.00     0.127 C 
BRANCH  21  22
HETATM   22  C   UNL     1     -43.536  59.117 -56.287  1.00  0.00     0.058 C 
BRANCH  22  23
HETATM   23  C   UNL     1     -43.093  59.337 -54.864  1.00  0.00    -0.057 A 
HETATM   24  C   UNL     1     -44.013  59.731 -53.887  1.00  0.00     0.010 A 
HETATM   25  C   UNL     1     -43.595  59.953 -52.573  1.00  0.00     0.037 A 
HETATM   26  C   UNL     1     -42.255  59.792 -52.214  1.00  0.00     0.068 A 
HETATM   27  C   UNL     1     -41.332  59.406 -53.186  1.00  0.00     0.037 A 
HETATM   28  C   UNL     1     -41.749  59.182 -54.503  1.00  0.00     0.010 A 
BRANCH  26  29
HETATM   29  O   UNL     1     -41.982  60.041 -50.897  1.00  0.00    -0.356 OA
HETATM   30  C   UNL     1     -40.782  59.487 -50.373  1.00  0.00     0.210 C 
ENDBRANCH  26  29
ENDBRANCH  22  23
ENDBRANCH  21  22
ENDBRANCH  18  21
ENDBRANCH  16  17
ENDBRANCH   1  16
TORSDOF 7
ENDMDL
MODEL 7
REMARK VINA RESULT:      -7.9      1.677      2.170
REMARK  7 active torsions:
REMARK  status: ('A' for Active; 'I' for Inactive)
REMARK    1  A    between atoms: C_12  and  S_13 
REMARK    2  A    between atoms: S_13  and  C_14 
REMARK    3  A    between atoms: C_14  and  C_15 
REMARK       I    between atoms: C_15  and  N_16 
REMARK    4  A    between atoms: N_16  and  C_17 
REMARK    5  A    between atoms: C_17  and  C_18 
REMARK    6  A    between atoms: C_18  and  C_19 
REMARK    7  A    between atoms: C_22  and  O_23 
ROOT
HETATM    1  S   UNL     1     -41.391  56.722 -50.805  1.00  0.00    -0.080 SA
ENDROOT
BRANCH   1   2
HETATM    2  C   UNL     1     -41.049  55.229 -49.997  1.00  0.00     0.197 A 
HETATM    3  N   UNL     1     -40.702  54.016 -50.572  1.00  0.00    -0.271 N 
HETATM    4  C   UNL     1     -40.493  53.566 -51.910  1.00  0.00     0.054 A 
HETATM    5  C   UNL     1     -40.566  53.170 -49.476  1.00  0.00     0.159 A 
HETATM    6  C   UNL     1     -40.141  52.203 -52.075  1.00  0.00    -0.003 A 
HETATM    7  C   UNL     1     -40.614  54.395 -53.031  1.00  0.00     0.031 A 
HETATM    8  C   UNL     1     -40.003  51.314 -50.892  1.00  0.00    -0.046 A 
HETATM    9  C   UNL     1     -39.925  51.716 -53.376  1.00  0.00     0.014 A 
HETATM   10  C   UNL     1     -39.628  49.870 -51.069  1.00  0.00     0.049 C 
HETATM   11  C   UNL     1     -40.216  51.818 -49.665  1.00  0.00     0.060 A 
HETATM   12  C   UNL     1     -40.052  52.551 -54.486  1.00  0.00     0.001 A 
HETATM   13  C   UNL     1     -40.394  53.885 -54.313  1.00  0.00     0.002 A 
HETATM   14  N   UNL     1     -40.806  53.823 -48.359  1.00  0.00    -0.129 NA
HETATM   15  N   UNL     1     -41.107  55.112 -48.687  1.00  0.00    -0.122 NA
ENDBRANCH   1   2
BRANCH   1  16
HETATM   16  C   UNL     1     -43.209  56.700 -50.800  1.00  0.00     0.185 C 
BRANCH  16  17
HETATM   17  C   UNL     1     -43.725  55.470 -51.534  1.00  0.00     0.227 C 
HETATM   18  N   UNL     1     -43.922  55.543 -52.886  1.00  0.00    -0.360 N 
HETATM   19  H   UNL     1     -44.281  54.680 -53.281  1.00  0.00     0.162 HD
HETATM   20  O   UNL     1     -43.943  54.392 -50.978  1.00  0.00    -0.273 OA
BRANCH  18  21
HETATM   21  C   UNL     1     -43.721  56.692 -53.752  1.00  0.00     0.127 C 
BRANCH  21  22
HETATM   22  C   UNL     1     -43.305  56.278 -55.162  1.00  0.00     0.058 C 
BRANCH  22  23
HETATM   23  C   UNL     1     -42.817  57.453 -55.969  1.00  0.00    -0.057 A 
HETATM   24  C   UNL     1     -42.619  58.698 -55.362  1.00  0.00     0.010 A 
HETATM   25  C   UNL     1     -42.186  59.789 -56.117  1.00  0.00     0.037 A 
HETATM   26  C   UNL     1     -41.948  59.660 -57.488  1.00  0.00     0.068 A 
HETATM   27  C   UNL     1     -42.151  58.423 -58.098  1.00  0.00     0.037 A 
HETATM   28  C   UNL     1     -42.584  57.327 -57.344  1.00  0.00     0.010 A 
BRANCH  26  29
HETATM   29  O   UNL     1     -41.528  60.806 -58.105  1.00  0.00    -0.356 OA
HETATM   30  C   UNL     1     -41.611  60.839 -59.524  1.00  0.00     0.210 C 
ENDBRANCH  26  29
ENDBRANCH  22  23
ENDBRANCH  21  22
ENDBRANCH  18  21
ENDBRANCH  16  17
ENDBRANCH   1  16
TORSDOF 7
ENDMDL
MODEL 8
REMARK VINA RESULT:      -7.8      2.025      2.719
REMARK  7 active torsions:
REMARK  status: ('A' for Active; 'I' for Inactive)
REMARK    1  A    between atoms: C_12  and  S_13 
REMARK    2  A    between atoms: S_13  and  C_14 
REMARK    3  A    between atoms: C_14  and  C_15 
REMARK       I    between atoms: C_15  and  N_16 
REMARK    4  A    between atoms: N_16  and  C_17 
REMARK    5  A    between atoms: C_17  and  C_18 
REMARK    6  A    between atoms: C_18  and  C_19 
REMARK    7  A    between atoms: C_22  and  O_23 
ROOT
HETATM    1  S   UNL     1     -41.669  56.599 -51.644  1.00  0.00    -0.080 SA
ENDROOT
BRANCH   1   2
HETATM    2  C   UNL     1     -41.316  55.253 -50.613  1.00  0.00     0.197 A 
HETATM    3  N   UNL     1     -40.873  53.994 -50.988  1.00  0.00    -0.271 N 
HETATM    4  C   UNL     1     -40.549  53.377 -52.233  1.00  0.00     0.054 A 
HETATM    5  C   UNL     1     -40.775  53.316 -49.777  1.00  0.00     0.159 A 
HETATM    6  C   UNL     1     -40.124  52.025 -52.182  1.00  0.00    -0.003 A 
HETATM    7  C   UNL     1     -40.630  54.034 -53.465  1.00  0.00     0.031 A 
HETATM    8  C   UNL     1     -40.028  51.317 -50.879  1.00  0.00    -0.046 A 
HETATM    9  C   UNL     1     -39.795  51.377 -53.385  1.00  0.00     0.014 A 
HETATM   10  C   UNL     1     -39.574  49.886 -50.826  1.00  0.00     0.049 C 
HETATM   11  C   UNL     1     -40.349  51.972 -49.751  1.00  0.00     0.060 A 
HETATM   12  C   UNL     1     -39.881  52.042 -54.607  1.00  0.00     0.001 A 
HETATM   13  C   UNL     1     -40.297  53.366 -54.646  1.00  0.00     0.002 A 
HETATM   14  N   UNL     1     -41.123  54.102 -48.781  1.00  0.00    -0.129 NA
HETATM   15  N   UNL     1     -41.460  55.315 -49.306  1.00  0.00    -0.122 NA
ENDBRANCH   1   2
BRANCH   1  16
HETATM   16  C   UNL     1     -41.138  57.981 -50.589  1.00  0.00     0.185 C 
BRANCH  16  17
HETATM   17  C   UNL     1     -40.815  59.202 -51.440  1.00  0.00     0.227 C 
HETATM   18  N   UNL     1     -41.818  60.084 -51.736  1.00  0.00    -0.360 N 
HETATM   19  H   UNL     1     -41.508  60.854 -52.319  1.00  0.00     0.162 HD
HETATM   20  O   UNL     1     -39.682  59.459 -51.850  1.00  0.00    -0.273 OA
BRANCH  18  21
HETATM   21  C   UNL     1     -43.217  59.998 -51.353  1.00  0.00     0.127 C 
BRANCH  21  22
HETATM   22  C   UNL     1     -44.148  60.351 -52.512  1.00  0.00     0.058 C 
BRANCH  22  23
HETATM   23  C   UNL     1     -44.010  59.380 -53.655  1.00  0.00    -0.057 A 
HETATM   24  C   UNL     1     -44.564  58.098 -53.569  1.00  0.00     0.010 A 
HETATM   25  C   UNL     1     -44.417  57.194 -54.622  1.00  0.00     0.037 A 
HETATM   26  C   UNL     1     -43.713  57.550 -55.775  1.00  0.00     0.068 A 
HETATM   27  C   UNL     1     -43.154  58.824 -55.863  1.00  0.00     0.037 A 
HETATM   28  C   UNL     1     -43.300  59.733 -54.809  1.00  0.00     0.010 A 
BRANCH  26  29
HETATM   29  O   UNL     1     -43.646  56.571 -56.728  1.00  0.00    -0.356 OA
HETATM   30  C   UNL     1     -42.701  55.530 -56.514  1.00  0.00     0.210 C 
ENDBRANCH  26  29
ENDBRANCH  22  23
ENDBRANCH  21  22
ENDBRANCH  18  21
ENDBRANCH  16  17
ENDBRANCH   1  16
TORSDOF 7
ENDMDL
MODEL 9
REMARK VINA RESULT:      -7.6      3.996      7.066
REMARK  7 active torsions:
REMARK  status: ('A' for Active; 'I' for Inactive)
REMARK    1  A    between atoms: C_12  and  S_13 
REMARK    2  A    between atoms: S_13  and  C_14 
REMARK    3  A    between atoms: C_14  and  C_15 
REMARK       I    between atoms: C_15  and  N_16 
REMARK    4  A    between atoms: N_16  and  C_17 
REMARK    5  A    between atoms: C_17  and  C_18 
REMARK    6  A    between atoms: C_18  and  C_19 
REMARK    7  A    between atoms: C_22  and  O_23 
ROOT
HETATM    1  S   UNL     1     -42.119  56.952 -51.037  1.00  0.00    -0.080 SA
ENDROOT
BRANCH   1   2
HETATM    2  C   UNL     1     -41.555  55.457 -50.371  1.00  0.00     0.197 A 
HETATM    3  N   UNL     1     -41.044  54.365 -51.055  1.00  0.00    -0.271 N 
HETATM    4  C   UNL     1     -40.789  54.075 -52.429  1.00  0.00     0.054 A 
HETATM    5  C   UNL     1     -40.773  53.450 -50.042  1.00  0.00     0.159 A 
HETATM    6  C   UNL     1     -40.247  52.797 -52.720  1.00  0.00    -0.003 A 
HETATM    7  C   UNL     1     -41.043  54.976 -53.469  1.00  0.00     0.031 A 
HETATM    8  C   UNL     1     -39.966  51.834 -51.624  1.00  0.00    -0.046 A 
HETATM    9  C   UNL     1     -39.979  52.469 -54.060  1.00  0.00     0.014 A 
HETATM   10  C   UNL     1     -39.389  50.481 -51.934  1.00  0.00     0.049 C 
HETATM   11  C   UNL     1     -40.234  52.186 -50.356  1.00  0.00     0.060 A 
HETATM   12  C   UNL     1     -40.239  53.374 -55.088  1.00  0.00     0.001 A 
HETATM   13  C   UNL     1     -40.768  54.624 -54.792  1.00  0.00     0.002 A 
HETATM   14  N   UNL     1     -41.090  53.956 -48.870  1.00  0.00    -0.129 NA
HETATM   15  N   UNL     1     -41.578  55.213 -49.077  1.00  0.00    -0.122 NA
ENDBRANCH   1   2
BRANCH   1  16
HETATM   16  C   UNL     1     -40.602  57.951 -50.957  1.00  0.00     0.185 C 
BRANCH  16  17
HETATM   17  C   UNL     1     -40.702  59.140 -51.903  1.00  0.00     0.227 C 
HETATM   18  N   UNL     1     -41.388  60.251 -51.497  1.00  0.00    -0.360 N 
HETATM   19  H   UNL     1     -41.411  60.981 -52.201  1.00  0.00     0.162 HD
HETATM   20  O   UNL     1     -40.163  59.169 -53.011  1.00  0.00    -0.273 OA
BRANCH  18  21
HETATM   21  C   UNL     1     -42.087  60.452 -50.239  1.00  0.00     0.127 C 
BRANCH  21  22
HETATM   22  C   UNL     1     -43.557  60.808 -50.454  1.00  0.00     0.058 C 
BRANCH  22  23
HETATM   23  C   UNL     1     -44.088  61.683 -49.348  1.00  0.00    -0.057 A 
HETATM   24  C   UNL     1     -44.716  61.115 -48.234  1.00  0.00     0.010 A 
HETATM   25  C   UNL     1     -45.224  61.930 -47.220  1.00  0.00     0.037 A 
HETATM   26  C   UNL     1     -45.119  63.320 -47.302  1.00  0.00     0.068 A 
HETATM   27  C   UNL     1     -44.500  63.891 -48.413  1.00  0.00     0.037 A 
HETATM   28  C   UNL     1     -43.989  63.077 -49.430  1.00  0.00     0.010 A 
BRANCH  26  29
HETATM   29  O   UNL     1     -45.658  63.997 -46.242  1.00  0.00    -0.356 OA
HETATM   30  C   UNL     1     -46.930  63.560 -45.780  1.00  0.00     0.210 C 
ENDBRANCH  26  29
ENDBRANCH  22  23
ENDBRANCH  21  22
ENDBRANCH  18  21
ENDBRANCH  16  17
ENDBRANCH   1  16
TORSDOF 7
ENDMDL
MODEL 10
REMARK VINA RESULT:      -7.6      3.000      3.750
REMARK  7 active torsions:
REMARK  status: ('A' for Active; 'I' for Inactive)
REMARK    1  A    between atoms: C_12  and  S_13 
REMARK    2  A    between atoms: S_13  and  C_14 
REMARK    3  A    between atoms: C_14  and  C_15 
REMARK       I    between atoms: C_15  and  N_16 
REMARK    4  A    between atoms: N_16  and  C_17 
REMARK    5  A    between atoms: C_17  and  C_18 
REMARK    6  A    between atoms: C_18  and  C_19 
REMARK    7  A    between atoms: C_22  and  O_23 
ROOT
HETATM    1  S   UNL     1     -41.274  56.790 -50.976  1.00  0.00    -0.080 SA
ENDROOT
BRANCH   1   2
HETATM    2  C   UNL     1     -40.997  55.326 -50.095  1.00  0.00     0.197 A 
HETATM    3  N   UNL     1     -40.685  54.076 -50.609  1.00  0.00    -0.271 N 
HETATM    4  C   UNL     1     -40.472  53.558 -51.921  1.00  0.00     0.054 A 
HETATM    5  C   UNL     1     -40.595  53.277 -49.473  1.00  0.00     0.159 A 
HETATM    6  C   UNL     1     -40.166  52.177 -52.019  1.00  0.00    -0.003 A 
HETATM    7  C   UNL     1     -40.547  54.338 -53.081  1.00  0.00     0.031 A 
HETATM    8  C   UNL     1     -40.076  51.340 -50.795  1.00  0.00    -0.046 A 
HETATM    9  C   UNL     1     -39.948  51.625 -53.293  1.00  0.00     0.014 A 
HETATM   10  C   UNL     1     -39.750  49.877 -50.900  1.00  0.00     0.049 C 
HETATM   11  C   UNL     1     -40.289  51.906 -49.595  1.00  0.00     0.060 A 
HETATM   12  C   UNL     1     -40.029  52.411 -54.441  1.00  0.00     0.001 A 
HETATM   13  C   UNL     1     -40.326  53.763 -54.334  1.00  0.00     0.002 A 
HETATM   14  N   UNL     1     -40.827  53.988 -48.391  1.00  0.00    -0.129 NA
HETATM   15  N   UNL     1     -41.078  55.271 -48.782  1.00  0.00    -0.122 NA
ENDBRANCH   1   2
BRANCH   1  16
HETATM   16  C   UNL     1     -43.082  56.930 -50.839  1.00  0.00     0.185 C 
BRANCH  16  17
HETATM   17  C   UNL     1     -43.747  55.631 -51.276  1.00  0.00     0.227 C 
HETATM   18  N   UNL     1     -43.922  55.397 -52.612  1.00  0.00    -0.360 N 
HETATM   19  H   UNL     1     -44.386  54.515 -52.802  1.00  0.00     0.162 HD
HETATM   20  O   UNL     1     -44.107  54.757 -50.486  1.00  0.00    -0.273 OA
BRANCH  18  21
HETATM   21  C   UNL     1     -43.566  56.267 -53.720  1.00  0.00     0.127 C 
BRANCH  21  22
HETATM   22  C   UNL     1     -44.669  57.279 -54.027  1.00  0.00     0.058 C 
BRANCH  22  23
HETATM   23  C   UNL     1     -44.176  58.697 -53.904  1.00  0.00    -0.057 A 
HETATM   24  C   UNL     1     -45.082  59.756 -53.780  1.00  0.00     0.010 A 
HETATM   25  C   UNL     1     -44.622  61.071 -53.686  1.00  0.00     0.037 A 
HETATM   26  C   UNL     1     -43.254  61.352 -53.718  1.00  0.00     0.068 A 
HETATM   27  C   UNL     1     -42.347  60.302 -53.849  1.00  0.00     0.037 A 
HETATM   28  C   UNL     1     -42.806  58.983 -53.942  1.00  0.00     0.010 A 
BRANCH  26  29
HETATM   29  O   UNL     1     -42.942  62.680 -53.616  1.00  0.00    -0.356 OA
HETATM   30  C   UNL     1     -44.021  63.602 -53.705  1.00  0.00     0.210 C 
ENDBRANCH  26  29
ENDBRANCH  22  23
ENDBRANCH  21  22
ENDBRANCH  18  21
ENDBRANCH  16  17
ENDBRANCH   1  16
TORSDOF 7
ENDMDL
