MODEL 1
REMARK VINA RESULT:      -8.4      0.000      0.000
REMARK  7 active torsions:
REMARK  status: ('A' for Active; 'I' for Inactive)
REMARK    1  A    between atoms: O_2  and  C_3 
REMARK    2  A    between atoms: C_4  and  C_5 
REMARK       I    between atoms: C_5  and  N_6 
REMARK    3  A    between atoms: N_6  and  C_7 
REMARK    4  A    between atoms: C_7  and  N_8 
REMARK    5  A    between atoms: N_8  and  C_9 
REMARK    6  A    between atoms: C_10  and  N_11 
REMARK       I    between atoms: N_14  and  C_15 
REMARK    7  A    between atoms: C_15  and  C_16 
ROOT
HETATM    1  C   UNL     1     -40.599  53.591 -52.365  1.00  0.00     0.060 A 
HETATM    2  C   UNL     1     -40.981  53.422 -53.716  1.00  0.00     0.057 A 
HETATM    3  C   UNL     1     -40.611  52.232 -54.355  1.00  0.00     0.031 A 
HETATM    4  C   UNL     1     -39.883  51.249 -53.677  1.00  0.00     0.002 A 
HETATM    5  C   UNL     1     -39.508  51.439 -52.349  1.00  0.00     0.002 A 
HETATM    6  C   UNL     1     -39.865  52.613 -51.688  1.00  0.00     0.032 A 
ENDROOT
BRANCH   1   7
HETATM    7  N   UNL     1     -40.966  54.792 -51.715  1.00  0.00    -0.336 N 
HETATM    8  H   UNL     1     -40.186  55.416 -51.548  1.00  0.00     0.168 HD
BRANCH   7   9
HETATM    9  C   UNL     1     -41.901  54.951 -50.719  1.00  0.00     0.157 C 
HETATM   10  S   UNL     1     -41.348  54.798 -49.145  1.00  0.00    -0.047 SA
BRANCH   9  11
HETATM   11  N   UNL     1     -43.206  55.124 -51.137  1.00  0.00    -0.201 NA
HETATM   12  C   UNL     1     -43.928  56.304 -51.029  1.00  0.00     0.240 C 
HETATM   13  O   UNL     1     -44.869  56.333 -50.243  1.00  0.00    -0.274 OA
HETATM   14  H   UNL     1     -43.774  54.406 -50.704  1.00  0.00     0.139 HD
BRANCH  12  15
HETATM   15  C   UNL     1     -43.593  57.452 -51.918  1.00  0.00     0.060 A 
HETATM   16  C   UNL     1     -42.431  58.212 -51.710  1.00  0.00     0.083 A 
HETATM   17  C   UNL     1     -42.177  59.348 -52.486  1.00  0.00     0.038 A 
HETATM   18  C   UNL     1     -43.060  59.712 -53.501  1.00  0.00     0.003 A 
HETATM   19  C   UNL     1     -44.204  58.951 -53.734  1.00  0.00     0.001 A 
HETATM   20  C   UNL     1     -44.476  57.832 -52.942  1.00  0.00     0.019 A 
BRANCH  16  21
HETATM   21  O   UNL     1     -41.542  57.931 -50.706  1.00  0.00    -0.355 OA
HETATM   22  C   UNL     1     -40.976  59.134 -50.185  1.00  0.00     0.210 C 
ENDBRANCH  16  21
ENDBRANCH  12  15
ENDBRANCH   9  11
ENDBRANCH   7   9
ENDBRANCH   1   7
BRANCH   2  23
HETATM   23  N   UNL     1     -41.573  54.494 -54.391  1.00  0.00    -0.376 N 
HETATM   24  C   UNL     1     -42.651  54.171 -55.344  1.00  0.00     0.143 C 
HETATM   25  C   UNL     1     -43.509  55.444 -55.551  1.00  0.00     0.146 C 
HETATM   26  N   UNL     1     -42.675  56.588 -55.962  1.00  0.00    -0.345 N 
HETATM   27  C   UNL     1     -42.833  57.298 -57.142  1.00  0.00     0.253 C 
HETATM   28  C   UNL     1     -41.492  56.834 -55.126  1.00  0.00     0.146 C 
HETATM   29  O   UNL     1     -41.940  57.948 -57.672  1.00  0.00    -0.267 OA
HETATM   30  C   UNL     1     -40.671  55.554 -54.897  1.00  0.00     0.143 C 
BRANCH  27  31
HETATM   31  C   UNL     1     -44.173  57.305 -57.767  1.00  0.00     0.032 A 
HETATM   32  C   UNL     1     -45.190  58.102 -57.223  1.00  0.00     0.017 A 
HETATM   33  C   UNL     1     -46.444  58.127 -57.831  1.00  0.00     0.001 A 
HETATM   34  C   UNL     1     -46.677  57.365 -58.977  1.00  0.00     0.000 A 
HETATM   35  C   UNL     1     -45.655  56.585 -59.526  1.00  0.00     0.001 A 
HETATM   36  C   UNL     1     -44.395  56.560 -58.926  1.00  0.00     0.017 A 
ENDBRANCH  27  31
ENDBRANCH   2  23
TORSDOF 7
ENDMDL
MODEL 2
REMARK VINA RESULT:      -8.3      2.063      5.110
REMARK  7 active torsions:
REMARK  status: ('A' for Active; 'I' for Inactive)
REMARK    1  A    between atoms: O_2  and  C_3 
REMARK    2  A    between atoms: C_4  and  C_5 
REMARK       I    between atoms: C_5  and  N_6 
REMARK    3  A    between atoms: N_6  and  C_7 
REMARK    4  A    between atoms: C_7  and  N_8 
REMARK    5  A    between atoms: N_8  and  C_9 
REMARK    6  A    between atoms: C_10  and  N_11 
REMARK       I    between atoms: N_14  and  C_15 
REMARK    7  A    between atoms: C_15  and  C_16 
ROOT
HETATM    1  C   UNL     1     -42.151  57.254 -52.256  1.00  0.00     0.060 A 
HETATM    2  C   UNL     1     -42.020  58.169 -53.327  1.00  0.00     0.057 A 
HETATM    3  C   UNL     1     -41.012  59.137 -53.239  1.00  0.00     0.031 A 
HETATM    4  C   UNL     1     -40.168  59.195 -52.125  1.00  0.00     0.002 A 
HETATM    5  C   UNL     1     -40.319  58.291 -51.077  1.00  0.00     0.002 A 
HETATM    6  C   UNL     1     -41.313  57.315 -51.139  1.00  0.00     0.032 A 
ENDROOT
BRANCH   1   7
HETATM    7  N   UNL     1     -43.170  56.277 -52.337  1.00  0.00    -0.336 N 
HETATM    8  H   UNL     1     -43.903  56.400 -51.650  1.00  0.00     0.168 HD
BRANCH   7   9
HETATM    9  C   UNL     1     -43.024  54.938 -52.616  1.00  0.00     0.157 C 
HETATM   10  S   UNL     1     -43.555  53.868 -51.441  1.00  0.00    -0.047 SA
BRANCH   9  11
HETATM   11  N   UNL     1     -42.369  54.634 -53.793  1.00  0.00    -0.201 NA
HETATM   12  C   UNL     1     -41.027  54.297 -53.895  1.00  0.00     0.240 C 
HETATM   13  O   UNL     1     -40.273  55.091 -54.449  1.00  0.00    -0.274 OA
HETATM   14  H   UNL     1     -42.517  55.396 -54.443  1.00  0.00     0.139 HD
BRANCH  12  15
HETATM   15  C   UNL     1     -40.567  52.966 -53.407  1.00  0.00     0.060 A 
HETATM   16  C   UNL     1     -40.060  52.808 -52.107  1.00  0.00     0.083 A 
HETATM   17  C   UNL     1     -39.538  51.578 -51.694  1.00  0.00     0.038 A 
HETATM   18  C   UNL     1     -39.552  50.486 -52.560  1.00  0.00     0.003 A 
HETATM   19  C   UNL     1     -40.076  50.624 -53.844  1.00  0.00     0.001 A 
HETATM   20  C   UNL     1     -40.572  51.858 -54.271  1.00  0.00     0.019 A 
BRANCH  16  21
HETATM   21  O   UNL     1     -39.982  53.849 -51.220  1.00  0.00    -0.355 OA
HETATM   22  C   UNL     1     -40.171  53.384 -49.883  1.00  0.00     0.210 C 
ENDBRANCH  16  21
ENDBRANCH  12  15
ENDBRANCH   9  11
ENDBRANCH   7   9
ENDBRANCH   1   7
BRANCH   2  23
HETATM   23  N   UNL     1     -42.983  58.165 -54.342  1.00  0.00    -0.376 N 
HETATM   24  C   UNL     1     -42.659  57.409 -55.567  1.00  0.00     0.143 C 
HETATM   25  C   UNL     1     -43.986  57.070 -56.290  1.00  0.00     0.146 C 
HETATM   26  N   UNL     1     -44.785  58.286 -56.534  1.00  0.00    -0.345 N 
HETATM   27  C   UNL     1     -45.185  58.730 -57.784  1.00  0.00     0.253 C 
HETATM   28  C   UNL     1     -44.985  59.151 -55.362  1.00  0.00     0.146 C 
HETATM   29  O   UNL     1     -45.475  59.895 -58.033  1.00  0.00    -0.267 OA
HETATM   30  C   UNL     1     -43.664  59.447 -54.633  1.00  0.00     0.143 C 
BRANCH  27  31
HETATM   31  C   UNL     1     -45.312  57.729 -58.863  1.00  0.00     0.032 A 
HETATM   32  C   UNL     1     -44.167  57.283 -59.537  1.00  0.00     0.017 A 
HETATM   33  C   UNL     1     -44.286  56.319 -60.536  1.00  0.00     0.001 A 
HETATM   34  C   UNL     1     -45.542  55.800 -60.855  1.00  0.00     0.000 A 
HETATM   35  C   UNL     1     -46.680  56.235 -60.169  1.00  0.00     0.001 A 
HETATM   36  C   UNL     1     -46.566  57.196 -59.164  1.00  0.00     0.017 A 
ENDBRANCH  27  31
ENDBRANCH   2  23
TORSDOF 7
ENDMDL
MODEL 3
REMARK VINA RESULT:      -8.1      2.159      4.503
REMARK  7 active torsions:
REMARK  status: ('A' for Active; 'I' for Inactive)
REMARK    1  A    between atoms: O_2  and  C_3 
REMARK    2  A    between atoms: C_4  and  C_5 
REMARK       I    between atoms: C_5  and  N_6 
REMARK    3  A    between atoms: N_6  and  C_7 
REMARK    4  A    between atoms: C_7  and  N_8 
REMARK    5  A    between atoms: N_8  and  C_9 
REMARK    6  A    between atoms: C_10  and  N_11 
REMARK       I    between atoms: N_14  and  C_15 
REMARK    7  A    between atoms: C_15  and  C_16 
ROOT
HETATM    1  C   UNL     1     -42.020  57.575 -52.069  1.00  0.00     0.060 A 
HETATM    2  C   UNL     1     -41.542  58.219 -53.234  1.00  0.00     0.057 A 
HETATM    3  C   UNL     1     -40.354  58.954 -53.134  1.00  0.00     0.031 A 
HETATM    4  C   UNL     1     -39.669  59.048 -51.918  1.00  0.00     0.002 A 
HETATM    5  C   UNL     1     -40.161  58.413 -50.780  1.00  0.00     0.002 A 
HETATM    6  C   UNL     1     -41.340  57.673 -50.852  1.00  0.00     0.032 A 
ENDROOT
BRANCH   1   7
HETATM    7  N   UNL     1     -43.221  56.835 -52.164  1.00  0.00    -0.336 N 
HETATM    8  H   UNL     1     -43.567  56.745 -53.111  1.00  0.00     0.168 HD
BRANCH   7   9
HETATM    9  C   UNL     1     -44.282  56.849 -51.289  1.00  0.00     0.157 C 
HETATM   10  S   UNL     1     -45.240  58.222 -51.299  1.00  0.00    -0.047 SA
BRANCH   9  11
HETATM   11  N   UNL     1     -44.376  55.766 -50.436  1.00  0.00    -0.201 NA
HETATM   12  C   UNL     1     -43.873  54.500 -50.696  1.00  0.00     0.240 C 
HETATM   13  O   UNL     1     -44.673  53.588 -50.880  1.00  0.00    -0.274 OA
HETATM   14  H   UNL     1     -45.351  55.637 -50.196  1.00  0.00     0.139 HD
BRANCH  12  15
HETATM   15  C   UNL     1     -42.400  54.275 -50.663  1.00  0.00     0.060 A 
HETATM   16  C   UNL     1     -41.701  53.894 -51.820  1.00  0.00     0.083 A 
HETATM   17  C   UNL     1     -40.337  53.588 -51.757  1.00  0.00     0.038 A 
HETATM   18  C   UNL     1     -39.652  53.696 -50.549  1.00  0.00     0.003 A 
HETATM   19  C   UNL     1     -40.329  54.098 -49.399  1.00  0.00     0.001 A 
HETATM   20  C   UNL     1     -41.697  54.377 -49.451  1.00  0.00     0.019 A 
BRANCH  16  21
HETATM   21  O   UNL     1     -42.321  53.732 -53.031  1.00  0.00    -0.355 OA
HETATM   22  C   UNL     1     -41.398  53.253 -54.009  1.00  0.00     0.210 C 
ENDBRANCH  16  21
ENDBRANCH  12  15
ENDBRANCH   9  11
ENDBRANCH   7   9
ENDBRANCH   1   7
BRANCH   2  23
HETATM   23  N   UNL     1     -42.341  58.222 -54.382  1.00  0.00    -0.376 N 
HETATM   24  C   UNL     1     -42.296  57.015 -55.230  1.00  0.00     0.143 C 
HETATM   25  C   UNL     1     -43.588  56.978 -56.084  1.00  0.00     0.146 C 
HETATM   26  N   UNL     1     -43.763  58.231 -56.841  1.00  0.00    -0.345 N 
HETATM   27  C   UNL     1     -43.847  58.315 -58.222  1.00  0.00     0.253 C 
HETATM   28  C   UNL     1     -43.646  59.463 -56.049  1.00  0.00     0.146 C 
HETATM   29  O   UNL     1     -43.587  59.328 -58.860  1.00  0.00    -0.267 OA
HETATM   30  C   UNL     1     -42.379  59.470 -55.178  1.00  0.00     0.143 C 
BRANCH  27  31
HETATM   31  C   UNL     1     -44.323  57.125 -58.957  1.00  0.00     0.032 A 
HETATM   32  C   UNL     1     -45.665  57.042 -59.352  1.00  0.00     0.017 A 
HETATM   33  C   UNL     1     -46.105  55.930 -60.068  1.00  0.00     0.001 A 
HETATM   34  C   UNL     1     -45.207  54.911 -60.392  1.00  0.00     0.000 A 
HETATM   35  C   UNL     1     -43.865  55.006 -60.011  1.00  0.00     0.001 A 
HETATM   36  C   UNL     1     -43.418  56.119 -59.299  1.00  0.00     0.017 A 
ENDBRANCH  27  31
ENDBRANCH   2  23
TORSDOF 7
ENDMDL
MODEL 4
REMARK VINA RESULT:      -8.1      1.513      2.380
REMARK  7 active torsions:
REMARK  status: ('A' for Active; 'I' for Inactive)
REMARK    1  A    between atoms: O_2  and  C_3 
REMARK    2  A    between atoms: C_4  and  C_5 
REMARK       I    between atoms: C_5  and  N_6 
REMARK    3  A    between atoms: N_6  and  C_7 
REMARK    4  A    between atoms: C_7  and  N_8 
REMARK    5  A    between atoms: N_8  and  C_9 
REMARK    6  A    between atoms: C_10  and  N_11 
REMARK       I    between atoms: N_14  and  C_15 
REMARK    7  A    between atoms: C_15  and  C_16 
ROOT
HETATM    1  C   UNL     1     -41.978  53.909 -52.019  1.00  0.00     0.060 A 
HETATM    2  C   UNL     1     -41.434  53.866 -53.324  1.00  0.00     0.057 A 
HETATM    3  C   UNL     1     -40.279  53.100 -53.525  1.00  0.00     0.031 A 
HETATM    4  C   UNL     1     -39.685  52.405 -52.467  1.00  0.00     0.002 A 
HETATM    5  C   UNL     1     -40.231  52.468 -51.186  1.00  0.00     0.002 A 
HETATM    6  C   UNL     1     -41.381  53.221 -50.959  1.00  0.00     0.032 A 
ENDROOT
BRANCH   1   7
HETATM    7  N   UNL     1     -43.141  54.685 -51.808  1.00  0.00    -0.336 N 
HETATM    8  H   UNL     1     -43.906  54.441 -52.426  1.00  0.00     0.168 HD
BRANCH   7   9
HETATM    9  C   UNL     1     -43.209  56.023 -51.502  1.00  0.00     0.157 C 
HETATM   10  S   UNL     1     -41.835  56.706 -50.829  1.00  0.00    -0.047 SA
BRANCH   9  11
HETATM   11  N   UNL     1     -44.437  56.626 -51.696  1.00  0.00    -0.201 NA
HETATM   12  C   UNL     1     -44.772  57.905 -51.278  1.00  0.00     0.240 C 
HETATM   13  O   UNL     1     -45.596  58.020 -50.377  1.00  0.00    -0.274 OA
HETATM   14  H   UNL     1     -45.152  56.013 -51.326  1.00  0.00     0.139 HD
BRANCH  12  15
HETATM   15  C   UNL     1     -44.190  59.083 -51.983  1.00  0.00     0.060 A 
HETATM   16  C   UNL     1     -44.323  59.232 -53.373  1.00  0.00     0.083 A 
HETATM   17  C   UNL     1     -43.688  60.287 -54.037  1.00  0.00     0.038 A 
HETATM   18  C   UNL     1     -42.948  61.222 -53.317  1.00  0.00     0.003 A 
HETATM   19  C   UNL     1     -42.830  61.099 -51.933  1.00  0.00     0.001 A 
HETATM   20  C   UNL     1     -43.438  60.031 -51.269  1.00  0.00     0.019 A 
BRANCH  16  21
HETATM   21  O   UNL     1     -45.004  58.328 -54.144  1.00  0.00    -0.355 OA
HETATM   22  C   UNL     1     -45.305  58.886 -55.424  1.00  0.00     0.210 C 
ENDBRANCH  16  21
ENDBRANCH  12  15
ENDBRANCH   9  11
ENDBRANCH   7   9
ENDBRANCH   1   7
BRANCH   2  23
HETATM   23  N   UNL     1     -41.975  54.698 -54.310  1.00  0.00    -0.376 N 
HETATM   24  C   UNL     1     -42.601  54.037 -55.471  1.00  0.00     0.143 C 
HETATM   25  C   UNL     1     -43.580  55.042 -56.128  1.00  0.00     0.146 C 
HETATM   26  N   UNL     1     -42.901  56.309 -56.458  1.00  0.00    -0.345 N 
HETATM   27  C   UNL     1     -42.807  56.846 -57.732  1.00  0.00     0.253 C 
HETATM   28  C   UNL     1     -42.126  56.909 -55.363  1.00  0.00     0.146 C 
HETATM   29  O   UNL     1     -41.938  57.638 -58.076  1.00  0.00    -0.267 OA
HETATM   30  C   UNL     1     -41.187  55.890 -54.696  1.00  0.00     0.143 C 
BRANCH  27  31
HETATM   31  C   UNL     1     -43.846  56.473 -58.716  1.00  0.00     0.032 A 
HETATM   32  C   UNL     1     -43.645  55.368 -59.554  1.00  0.00     0.017 A 
HETATM   33  C   UNL     1     -44.637  55.003 -60.462  1.00  0.00     0.001 A 
HETATM   34  C   UNL     1     -45.825  55.734 -60.526  1.00  0.00     0.000 A 
HETATM   35  C   UNL     1     -46.028  56.825 -59.675  1.00  0.00     0.001 A 
HETATM   36  C   UNL     1     -45.041  57.192 -58.760  1.00  0.00     0.017 A 
ENDBRANCH  27  31
ENDBRANCH   2  23
TORSDOF 7
ENDMDL
MODEL 5
REMARK VINA RESULT:      -8.0      2.800      6.829
REMARK  7 active torsions:
REMARK  status: ('A' for Active; 'I' for Inactive)
REMARK    1  A    between atoms: O_2  and  C_3 
REMARK    2  A    between atoms: C_4  and  C_5 
REMARK       I    between atoms: C_5  and  N_6 
REMARK    3  A    between atoms: N_6  and  C_7 
REMARK    4  A    between atoms: C_7  and  N_8 
REMARK    5  A    between atoms: N_8  and  C_9 
REMARK    6  A    between atoms: C_10  and  N_11 
REMARK       I    between atoms: N_14  and  C_15 
REMARK    7  A    between atoms: C_15  and  C_16 
ROOT
HETATM    1  C   UNL     1     -44.345  57.658 -53.286  1.00  0.00     0.060 A 
HETATM    2  C   UNL     1     -43.955  57.122 -52.037  1.00  0.00     0.057 A 
HETATM    3  C   UNL     1     -44.561  57.641 -50.886  1.00  0.00     0.031 A 
HETATM    4  C   UNL     1     -45.516  58.659 -50.974  1.00  0.00     0.002 A 
HETATM    5  C   UNL     1     -45.880  59.180 -52.214  1.00  0.00     0.002 A 
HETATM    6  C   UNL     1     -45.294  58.680 -53.376  1.00  0.00     0.032 A 
ENDROOT
BRANCH   1   7
HETATM    7  N   UNL     1     -43.734  57.141 -54.452  1.00  0.00    -0.336 N 
HETATM    8  H   UNL     1     -43.061  56.408 -54.264  1.00  0.00     0.168 HD
BRANCH   7   9
HETATM    9  C   UNL     1     -43.350  57.837 -55.573  1.00  0.00     0.157 C 
HETATM   10  S   UNL     1     -44.332  57.683 -56.921  1.00  0.00    -0.047 SA
BRANCH   9  11
HETATM   11  N   UNL     1     -42.145  58.508 -55.485  1.00  0.00    -0.201 NA
HETATM   12  C   UNL     1     -42.005  59.879 -55.335  1.00  0.00     0.240 C 
HETATM   13  O   UNL     1     -41.540  60.518 -56.274  1.00  0.00    -0.274 OA
HETATM   14  H   UNL     1     -41.583  58.254 -56.288  1.00  0.00     0.139 HD
BRANCH  12  15
HETATM   15  C   UNL     1     -42.342  60.512 -54.028  1.00  0.00     0.060 A 
HETATM   16  C   UNL     1     -41.834  59.998 -52.824  1.00  0.00     0.083 A 
HETATM   17  C   UNL     1     -42.237  60.537 -51.597  1.00  0.00     0.038 A 
HETATM   18  C   UNL     1     -43.117  61.616 -51.563  1.00  0.00     0.003 A 
HETATM   19  C   UNL     1     -43.608  62.151 -52.752  1.00  0.00     0.001 A 
HETATM   20  C   UNL     1     -43.231  61.598 -53.979  1.00  0.00     0.019 A 
BRANCH  16  21
HETATM   21  O   UNL     1     -40.996  58.916 -52.786  1.00  0.00    -0.355 OA
HETATM   22  C   UNL     1     -40.038  59.059 -51.736  1.00  0.00     0.210 C 
ENDBRANCH  16  21
ENDBRANCH  12  15
ENDBRANCH   9  11
ENDBRANCH   7   9
ENDBRANCH   1   7
BRANCH   2  23
HETATM   23  N   UNL     1     -42.890  56.217 -51.992  1.00  0.00    -0.376 N 
HETATM   24  C   UNL     1     -43.109  54.895 -52.610  1.00  0.00     0.143 C 
HETATM   25  C   UNL     1     -41.726  54.283 -52.943  1.00  0.00     0.146 C 
HETATM   26  N   UNL     1     -40.858  54.247 -51.751  1.00  0.00    -0.345 N 
HETATM   27  C   UNL     1     -40.308  53.095 -51.210  1.00  0.00     0.253 C 
HETATM   28  C   UNL     1     -40.752  55.513 -51.013  1.00  0.00     0.146 C 
HETATM   29  O   UNL     1     -39.947  52.996 -50.043  1.00  0.00    -0.267 OA
HETATM   30  C   UNL     1     -42.132  56.128 -50.723  1.00  0.00     0.143 C 
BRANCH  27  31
HETATM   31  C   UNL     1     -40.105  51.940 -52.109  1.00  0.00     0.032 A 
HETATM   32  C   UNL     1     -40.195  52.114 -53.496  1.00  0.00     0.017 A 
HETATM   33  C   UNL     1     -39.976  51.028 -54.343  1.00  0.00     0.001 A 
HETATM   34  C   UNL     1     -39.665  49.779 -53.804  1.00  0.00     0.000 A 
HETATM   35  C   UNL     1     -39.559  49.613 -52.420  1.00  0.00     0.001 A 
HETATM   36  C   UNL     1     -39.771  50.698 -51.568  1.00  0.00     0.017 A 
ENDBRANCH  27  31
ENDBRANCH   2  23
TORSDOF 7
ENDMDL
MODEL 6
REMARK VINA RESULT:      -7.9      2.347      7.989
REMARK  7 active torsions:
REMARK  status: ('A' for Active; 'I' for Inactive)
REMARK    1  A    between atoms: O_2  and  C_3 
REMARK    2  A    between atoms: C_4  and  C_5 
REMARK       I    between atoms: C_5  and  N_6 
REMARK    3  A    between atoms: N_6  and  C_7 
REMARK    4  A    between atoms: C_7  and  N_8 
REMARK    5  A    between atoms: N_8  and  C_9 
REMARK    6  A    between atoms: C_10  and  N_11 
REMARK       I    between atoms: N_14  and  C_15 
REMARK    7  A    between atoms: C_15  and  C_16 
ROOT
HETATM    1  C   UNL     1     -43.513  57.851 -53.589  1.00  0.00     0.060 A 
HETATM    2  C   UNL     1     -43.565  57.223 -52.323  1.00  0.00     0.057 A 
HETATM    3  C   UNL     1     -44.518  57.681 -51.404  1.00  0.00     0.031 A 
HETATM    4  C   UNL     1     -45.385  58.729 -51.732  1.00  0.00     0.002 A 
HETATM    5  C   UNL     1     -45.311  59.342 -52.981  1.00  0.00     0.002 A 
HETATM    6  C   UNL     1     -44.373  58.903 -53.915  1.00  0.00     0.032 A 
ENDROOT
BRANCH   1   7
HETATM    7  N   UNL     1     -42.550  57.395 -54.519  1.00  0.00    -0.336 N 
HETATM    8  H   UNL     1     -41.682  57.915 -54.487  1.00  0.00     0.168 HD
BRANCH   7   9
HETATM    9  C   UNL     1     -42.772  56.950 -55.800  1.00  0.00     0.157 C 
HETATM   10  S   UNL     1     -42.808  55.290 -56.018  1.00  0.00    -0.047 SA
BRANCH   9  11
HETATM   11  N   UNL     1     -42.843  57.926 -56.775  1.00  0.00    -0.201 NA
HETATM   12  C   UNL     1     -42.665  57.711 -58.134  1.00  0.00     0.240 C 
HETATM   13  O   UNL     1     -41.663  58.180 -58.665  1.00  0.00    -0.274 OA
HETATM   14  H   UNL     1     -42.205  58.672 -56.523  1.00  0.00     0.139 HD
BRANCH  12  15
HETATM   15  C   UNL     1     -43.720  56.997 -58.908  1.00  0.00     0.060 A 
HETATM   16  C   UNL     1     -45.061  57.411 -58.852  1.00  0.00     0.083 A 
HETATM   17  C   UNL     1     -46.057  56.674 -59.501  1.00  0.00     0.038 A 
HETATM   18  C   UNL     1     -45.721  55.543 -60.242  1.00  0.00     0.003 A 
HETATM   19  C   UNL     1     -44.390  55.138 -60.326  1.00  0.00     0.001 A 
HETATM   20  C   UNL     1     -43.395  55.854 -59.655  1.00  0.00     0.019 A 
BRANCH  16  21
HETATM   21  O   UNL     1     -45.464  58.490 -58.112  1.00  0.00    -0.355 OA
HETATM   22  C   UNL     1     -46.751  58.254 -57.540  1.00  0.00     0.210 C 
ENDBRANCH  16  21
ENDBRANCH  12  15
ENDBRANCH   9  11
ENDBRANCH   7   9
ENDBRANCH   1   7
BRANCH   2  23
HETATM   23  N   UNL     1     -42.580  56.287 -51.991  1.00  0.00    -0.376 N 
HETATM   24  C   UNL     1     -42.810  54.894 -52.420  1.00  0.00     0.143 C 
HETATM   25  C   UNL     1     -41.441  54.170 -52.461  1.00  0.00     0.146 C 
HETATM   26  N   UNL     1     -40.738  54.287 -51.170  1.00  0.00    -0.345 N 
HETATM   27  C   UNL     1     -40.344  53.214 -50.385  1.00  0.00     0.253 C 
HETATM   28  C   UNL     1     -40.640  55.650 -50.630  1.00  0.00     0.146 C 
HETATM   29  O   UNL     1     -40.143  53.290 -49.178  1.00  0.00    -0.267 OA
HETATM   30  C   UNL     1     -41.999  56.370 -50.632  1.00  0.00     0.143 C 
BRANCH  27  31
HETATM   31  C   UNL     1     -40.108  51.919 -51.057  1.00  0.00     0.032 A 
HETATM   32  C   UNL     1     -39.764  51.892 -52.415  1.00  0.00     0.017 A 
HETATM   33  C   UNL     1     -39.516  50.671 -53.038  1.00  0.00     0.001 A 
HETATM   34  C   UNL     1     -39.607  49.485 -52.307  1.00  0.00     0.000 A 
HETATM   35  C   UNL     1     -39.935  49.518 -50.948  1.00  0.00     0.001 A 
HETATM   36  C   UNL     1     -40.178  50.738 -50.317  1.00  0.00     0.017 A 
ENDBRANCH  27  31
ENDBRANCH   2  23
TORSDOF 7
ENDMDL
MODEL 7
REMARK VINA RESULT:      -7.9      2.275      5.719
REMARK  7 active torsions:
REMARK  status: ('A' for Active; 'I' for Inactive)
REMARK    1  A    between atoms: O_2  and  C_3 
REMARK    2  A    between atoms: C_4  and  C_5 
REMARK       I    between atoms: C_5  and  N_6 
REMARK    3  A    between atoms: N_6  and  C_7 
REMARK    4  A    between atoms: C_7  and  N_8 
REMARK    5  A    between atoms: N_8  and  C_9 
REMARK    6  A    between atoms: C_10  and  N_11 
REMARK       I    between atoms: N_14  and  C_15 
REMARK    7  A    between atoms: C_15  and  C_16 
ROOT
HETATM    1  C   UNL     1     -43.185  59.872 -51.219  1.00  0.00     0.060 A 
HETATM    2  C   UNL     1     -43.357  60.460 -52.494  1.00  0.00     0.057 A 
HETATM    3  C   UNL     1     -43.384  61.859 -52.569  1.00  0.00     0.031 A 
HETATM    4  C   UNL     1     -43.249  62.642 -51.418  1.00  0.00     0.002 A 
HETATM    5  C   UNL     1     -43.090  62.043 -50.171  1.00  0.00     0.002 A 
HETATM    6  C   UNL     1     -43.058  60.653 -50.068  1.00  0.00     0.032 A 
ENDROOT
BRANCH   1   7
HETATM    7  N   UNL     1     -43.161  58.460 -51.137  1.00  0.00    -0.336 N 
HETATM    8  H   UNL     1     -43.943  58.073 -50.623  1.00  0.00     0.168 HD
BRANCH   7   9
HETATM    9  C   UNL     1     -42.062  57.651 -50.976  1.00  0.00     0.157 C 
HETATM   10  S   UNL     1     -40.665  58.121 -51.772  1.00  0.00    -0.047 SA
BRANCH   9  11
HETATM   11  N   UNL     1     -42.265  56.492 -50.252  1.00  0.00    -0.201 NA
HETATM   12  C   UNL     1     -42.771  55.308 -50.768  1.00  0.00     0.240 C 
HETATM   13  O   UNL     1     -43.886  54.950 -50.404  1.00  0.00    -0.274 OA
HETATM   14  H   UNL     1     -42.841  56.717 -49.450  1.00  0.00     0.139 HD
BRANCH  12  15
HETATM   15  C   UNL     1     -41.922  54.480 -51.672  1.00  0.00     0.060 A 
HETATM   16  C   UNL     1     -42.126  54.485 -53.061  1.00  0.00     0.083 A 
HETATM   17  C   UNL     1     -41.392  53.629 -53.889  1.00  0.00     0.038 A 
HETATM   18  C   UNL     1     -40.421  52.791 -53.344  1.00  0.00     0.003 A 
HETATM   19  C   UNL     1     -40.191  52.797 -51.969  1.00  0.00     0.001 A 
HETATM   20  C   UNL     1     -40.942  53.629 -51.135  1.00  0.00     0.019 A 
BRANCH  16  21
HETATM   21  O   UNL     1     -43.089  55.255 -53.657  1.00  0.00    -0.355 OA
HETATM   22  C   UNL     1     -43.422  54.737 -54.945  1.00  0.00     0.210 C 
ENDBRANCH  16  21
ENDBRANCH  12  15
ENDBRANCH   9  11
ENDBRANCH   7   9
ENDBRANCH   1   7
BRANCH   2  23
HETATM   23  N   UNL     1     -43.639  59.636 -53.588  1.00  0.00    -0.376 N 
HETATM   24  C   UNL     1     -42.728  59.725 -54.744  1.00  0.00     0.143 C 
HETATM   25  C   UNL     1     -42.860  58.417 -55.565  1.00  0.00     0.146 C 
HETATM   26  N   UNL     1     -44.265  58.159 -55.932  1.00  0.00    -0.345 N 
HETATM   27  C   UNL     1     -44.732  58.039 -57.231  1.00  0.00     0.253 C 
HETATM   28  C   UNL     1     -45.226  58.230 -54.823  1.00  0.00     0.146 C 
HETATM   29  O   UNL     1     -45.898  58.230 -57.557  1.00  0.00    -0.267 OA
HETATM   30  C   UNL     1     -45.058  59.514 -53.995  1.00  0.00     0.143 C 
BRANCH  27  31
HETATM   31  C   UNL     1     -43.774  57.609 -58.271  1.00  0.00     0.032 A 
HETATM   32  C   UNL     1     -43.605  56.244 -58.541  1.00  0.00     0.017 A 
HETATM   33  C   UNL     1     -42.721  55.844 -59.541  1.00  0.00     0.001 A 
HETATM   34  C   UNL     1     -42.014  56.802 -60.269  1.00  0.00     0.000 A 
HETATM   35  C   UNL     1     -42.198  58.163 -60.008  1.00  0.00     0.001 A 
HETATM   36  C   UNL     1     -43.086  58.571 -59.013  1.00  0.00     0.017 A 
ENDBRANCH  27  31
ENDBRANCH   2  23
TORSDOF 7
ENDMDL
MODEL 8
REMARK VINA RESULT:      -7.9      2.108      5.481
REMARK  7 active torsions:
REMARK  status: ('A' for Active; 'I' for Inactive)
REMARK    1  A    between atoms: O_2  and  C_3 
REMARK    2  A    between atoms: C_4  and  C_5 
REMARK       I    between atoms: C_5  and  N_6 
REMARK    3  A    between atoms: N_6  and  C_7 
REMARK    4  A    between atoms: C_7  and  N_8 
REMARK    5  A    between atoms: N_8  and  C_9 
REMARK    6  A    between atoms: C_10  and  N_11 
REMARK       I    between atoms: N_14  and  C_15 
REMARK    7  A    between atoms: C_15  and  C_16 
ROOT
HETATM    1  C   UNL     1     -44.540  58.317 -52.215  1.00  0.00     0.060 A 
HETATM    2  C   UNL     1     -44.994  59.241 -53.184  1.00  0.00     0.057 A 
HETATM    3  C   UNL     1     -45.850  60.266 -52.758  1.00  0.00     0.031 A 
HETATM    4  C   UNL     1     -46.241  60.364 -51.419  1.00  0.00     0.002 A 
HETATM    5  C   UNL     1     -45.790  59.438 -50.482  1.00  0.00     0.002 A 
HETATM    6  C   UNL     1     -44.936  58.409 -50.878  1.00  0.00     0.032 A 
ENDROOT
BRANCH   1   7
HETATM    7  N   UNL     1     -43.679  57.278 -52.639  1.00  0.00    -0.336 N 
HETATM    8  H   UNL     1     -44.171  56.450 -52.955  1.00  0.00     0.168 HD
BRANCH   7   9
HETATM    9  C   UNL     1     -42.475  56.912 -52.086  1.00  0.00     0.157 C 
HETATM   10  S   UNL     1     -41.119  57.716 -52.651  1.00  0.00    -0.047 SA
BRANCH   9  11
HETATM   11  N   UNL     1     -42.515  55.855 -51.197  1.00  0.00    -0.201 NA
HETATM   12  C   UNL     1     -42.791  54.538 -51.535  1.00  0.00     0.240 C 
HETATM   13  O   UNL     1     -43.846  54.051 -51.143  1.00  0.00    -0.274 OA
HETATM   14  H   UNL     1     -43.156  56.094 -50.451  1.00  0.00     0.139 HD
BRANCH  12  15
HETATM   15  C   UNL     1     -41.775  53.745 -52.284  1.00  0.00     0.060 A 
HETATM   16  C   UNL     1     -41.841  53.620 -53.681  1.00  0.00     0.083 A 
HETATM   17  C   UNL     1     -40.943  52.792 -54.362  1.00  0.00     0.038 A 
HETATM   18  C   UNL     1     -39.948  52.113 -53.662  1.00  0.00     0.003 A 
HETATM   19  C   UNL     1     -39.856  52.250 -52.278  1.00  0.00     0.001 A 
HETATM   20  C   UNL     1     -40.769  53.053 -51.589  1.00  0.00     0.019 A 
BRANCH  16  21
HETATM   21  O   UNL     1     -42.816  54.230 -54.425  1.00  0.00    -0.355 OA
HETATM   22  C   UNL     1     -42.237  55.112 -55.387  1.00  0.00     0.210 C 
ENDBRANCH  16  21
ENDBRANCH  12  15
ENDBRANCH   9  11
ENDBRANCH   7   9
ENDBRANCH   1   7
BRANCH   2  23
HETATM   23  N   UNL     1     -44.698  59.011 -54.531  1.00  0.00    -0.376 N 
HETATM   24  C   UNL     1     -45.102  57.707 -55.090  1.00  0.00     0.143 C 
HETATM   25  C   UNL     1     -45.197  57.851 -56.630  1.00  0.00     0.146 C 
HETATM   26  N   UNL     1     -43.941  58.377 -57.194  1.00  0.00    -0.345 N 
HETATM   27  C   UNL     1     -43.164  57.723 -58.138  1.00  0.00     0.253 C 
HETATM   28  C   UNL     1     -43.420  59.588 -56.545  1.00  0.00     0.146 C 
HETATM   29  O   UNL     1     -41.968  57.936 -58.303  1.00  0.00    -0.267 OA
HETATM   30  C   UNL     1     -43.367  59.444 -55.015  1.00  0.00     0.143 C 
BRANCH  27  31
HETATM   31  C   UNL     1     -43.832  56.748 -59.025  1.00  0.00     0.032 A 
HETATM   32  C   UNL     1     -43.654  55.375 -58.807  1.00  0.00     0.017 A 
HETATM   33  C   UNL     1     -44.307  54.457 -59.628  1.00  0.00     0.001 A 
HETATM   34  C   UNL     1     -45.136  54.910 -60.656  1.00  0.00     0.000 A 
HETATM   35  C   UNL     1     -45.324  56.281 -60.858  1.00  0.00     0.001 A 
HETATM   36  C   UNL     1     -44.678  57.204 -60.036  1.00  0.00     0.017 A 
ENDBRANCH  27  31
ENDBRANCH   2  23
TORSDOF 7
ENDMDL
MODEL 9
REMARK VINA RESULT:      -7.9      2.052      5.412
REMARK  7 active torsions:
REMARK  status: ('A' for Active; 'I' for Inactive)
REMARK    1  A    between atoms: O_2  and  C_3 
REMARK    2  A    between atoms: C_4  and  C_5 
REMARK       I    between atoms: C_5  and  N_6 
REMARK    3  A    between atoms: N_6  and  C_7 
REMARK    4  A    between atoms: C_7  and  N_8 
REMARK    5  A    between atoms: N_8  and  C_9 
REMARK    6  A    between atoms: C_10  and  N_11 
REMARK       I    between atoms: N_14  and  C_15 
REMARK    7  A    between atoms: C_15  and  C_16 
ROOT
HETATM    1  C   UNL     1     -41.334  57.688 -51.502  1.00  0.00     0.060 A 
HETATM    2  C   UNL     1     -42.089  58.643 -52.221  1.00  0.00     0.057 A 
HETATM    3  C   UNL     1     -42.278  59.901 -51.637  1.00  0.00     0.031 A 
HETATM    4  C   UNL     1     -41.738  60.198 -50.381  1.00  0.00     0.002 A 
HETATM    5  C   UNL     1     -41.005  59.240 -49.684  1.00  0.00     0.002 A 
HETATM    6  C   UNL     1     -40.800  57.980 -50.244  1.00  0.00     0.032 A 
ENDROOT
BRANCH   1   7
HETATM    7  N   UNL     1     -41.143  56.414 -52.085  1.00  0.00    -0.336 N 
HETATM    8  H   UNL     1     -40.384  56.385 -52.754  1.00  0.00     0.168 HD
BRANCH   7   9
HETATM    9  C   UNL     1     -42.112  55.511 -52.454  1.00  0.00     0.157 C 
HETATM   10  S   UNL     1     -43.282  55.161 -51.308  1.00  0.00    -0.047 SA
BRANCH   9  11
HETATM   11  N   UNL     1     -41.950  54.924 -53.694  1.00  0.00    -0.201 NA
HETATM   12  C   UNL     1     -40.802  54.278 -54.128  1.00  0.00     0.240 C 
HETATM   13  O   UNL     1     -40.147  54.805 -55.022  1.00  0.00    -0.274 OA
HETATM   14  H   UNL     1     -42.168  55.616 -54.401  1.00  0.00     0.139 HD
BRANCH  12  15
HETATM   15  C   UNL     1     -40.452  52.946 -53.560  1.00  0.00     0.060 A 
HETATM   16  C   UNL     1     -40.019  52.818 -52.230  1.00  0.00     0.083 A 
HETATM   17  C   UNL     1     -39.597  51.579 -51.738  1.00  0.00     0.038 A 
HETATM   18  C   UNL     1     -39.639  50.450 -52.554  1.00  0.00     0.003 A 
HETATM   19  C   UNL     1     -40.091  50.560 -53.868  1.00  0.00     0.001 A 
HETATM   20  C   UNL     1     -40.487  51.801 -54.373  1.00  0.00     0.019 A 
BRANCH  16  21
HETATM   21  O   UNL     1     -39.918  53.892 -51.387  1.00  0.00    -0.355 OA
HETATM   22  C   UNL     1     -40.052  53.478 -50.027  1.00  0.00     0.210 C 
ENDBRANCH  16  21
ENDBRANCH  12  15
ENDBRANCH   9  11
ENDBRANCH   7   9
ENDBRANCH   1   7
BRANCH   2  23
HETATM   23  N   UNL     1     -42.734  58.248 -53.399  1.00  0.00    -0.376 N 
HETATM   24  C   UNL     1     -42.146  58.713 -54.670  1.00  0.00     0.143 C 
HETATM   25  C   UNL     1     -42.630  57.768 -55.798  1.00  0.00     0.146 C 
HETATM   26  N   UNL     1     -44.101  57.675 -55.821  1.00  0.00    -0.345 N 
HETATM   27  C   UNL     1     -44.898  58.016 -56.903  1.00  0.00     0.253 C 
HETATM   28  C   UNL     1     -44.731  57.378 -54.527  1.00  0.00     0.146 C 
HETATM   29  O   UNL     1     -46.079  58.328 -56.809  1.00  0.00    -0.267 OA
HETATM   30  C   UNL     1     -44.213  58.298 -53.409  1.00  0.00     0.143 C 
BRANCH  27  31
HETATM   31  C   UNL     1     -44.293  57.953 -58.251  1.00  0.00     0.032 A 
HETATM   32  C   UNL     1     -44.309  56.747 -58.964  1.00  0.00     0.017 A 
HETATM   33  C   UNL     1     -43.762  56.697 -60.245  1.00  0.00     0.001 A 
HETATM   34  C   UNL     1     -43.208  57.847 -60.810  1.00  0.00     0.000 A 
HETATM   35  C   UNL     1     -43.210  59.053 -60.101  1.00  0.00     0.001 A 
HETATM   36  C   UNL     1     -43.762  59.110 -58.821  1.00  0.00     0.017 A 
ENDBRANCH  27  31
ENDBRANCH   2  23
TORSDOF 7
ENDMDL
MODEL 10
REMARK VINA RESULT:      -7.8      2.798      7.616
REMARK  7 active torsions:
REMARK  status: ('A' for Active; 'I' for Inactive)
REMARK    1  A    between atoms: O_2  and  C_3 
REMARK    2  A    between atoms: C_4  and  C_5 
REMARK       I    between atoms: C_5  and  N_6 
REMARK    3  A    between atoms: N_6  and  C_7 
REMARK    4  A    between atoms: C_7  and  N_8 
REMARK    5  A    between atoms: N_8  and  C_9 
REMARK    6  A    between atoms: C_10  and  N_11 
REMARK       I    between atoms: N_14  and  C_15 
REMARK    7  A    between atoms: C_15  and  C_16 
ROOT
HETATM    1  C   UNL     1     -44.861  58.335 -53.504  1.00  0.00     0.060 A 
HETATM    2  C   UNL     1     -43.885  57.687 -52.712  1.00  0.00     0.057 A 
HETATM    3  C   UNL     1     -43.538  58.277 -51.490  1.00  0.00     0.031 A 
HETATM    4  C   UNL     1     -44.137  59.470 -51.073  1.00  0.00     0.002 A 
HETATM    5  C   UNL     1     -45.090  60.098 -51.872  1.00  0.00     0.002 A 
HETATM    6  C   UNL     1     -45.455  59.531 -53.093  1.00  0.00     0.032 A 
ENDROOT
BRANCH   1   7
HETATM    7  N   UNL     1     -45.212  57.747 -54.741  1.00  0.00    -0.336 N 
HETATM    8  H   UNL     1     -45.075  56.744 -54.765  1.00  0.00     0.168 HD
BRANCH   7   9
HETATM    9  C   UNL     1     -45.014  58.265 -55.999  1.00  0.00     0.157 C 
HETATM   10  S   UNL     1     -44.261  59.759 -56.082  1.00  0.00    -0.047 SA
BRANCH   9  11
HETATM   11  N   UNL     1     -45.547  57.535 -57.044  1.00  0.00    -0.201 NA
HETATM   12  C   UNL     1     -45.550  57.931 -58.373  1.00  0.00     0.240 C 
HETATM   13  O   UNL     1     -46.627  58.215 -58.888  1.00  0.00    -0.274 OA
HETATM   14  H   UNL     1     -46.508  57.312 -56.815  1.00  0.00     0.139 HD
BRANCH  12  15
HETATM   15  C   UNL     1     -44.274  57.921 -59.144  1.00  0.00     0.060 A 
HETATM   16  C   UNL     1     -43.519  56.745 -59.276  1.00  0.00     0.083 A 
HETATM   17  C   UNL     1     -42.275  56.768 -59.915  1.00  0.00     0.038 A 
HETATM   18  C   UNL     1     -41.792  57.956 -60.461  1.00  0.00     0.003 A 
HETATM   19  C   UNL     1     -42.544  59.125 -60.359  1.00  0.00     0.001 A 
HETATM   20  C   UNL     1     -43.774  59.112 -59.696  1.00  0.00     0.019 A 
BRANCH  16  21
HETATM   21  O   UNL     1     -43.918  55.553 -58.730  1.00  0.00    -0.355 OA
HETATM   22  C   UNL     1     -44.285  54.629 -59.755  1.00  0.00     0.210 C 
ENDBRANCH  16  21
ENDBRANCH  12  15
ENDBRANCH   9  11
ENDBRANCH   7   9
ENDBRANCH   1   7
BRANCH   2  23
HETATM   23  N   UNL     1     -43.207  56.583 -53.242  1.00  0.00    -0.376 N 
HETATM   24  C   UNL     1     -42.679  55.598 -52.279  1.00  0.00     0.143 C 
HETATM   25  C   UNL     1     -42.478  54.255 -53.024  1.00  0.00     0.146 C 
HETATM   26  N   UNL     1     -41.634  54.430 -54.220  1.00  0.00    -0.345 N 
HETATM   27  C   UNL     1     -40.432  53.776 -54.441  1.00  0.00     0.253 C 
HETATM   28  C   UNL     1     -42.039  55.520 -55.119  1.00  0.00     0.146 C 
HETATM   29  O   UNL     1     -39.556  54.195 -55.188  1.00  0.00    -0.267 OA
HETATM   30  C   UNL     1     -42.271  56.837 -54.360  1.00  0.00     0.143 C 
BRANCH  27  31
HETATM   31  C   UNL     1     -40.221  52.477 -53.770  1.00  0.00     0.032 A 
HETATM   32  C   UNL     1     -40.417  51.286 -54.482  1.00  0.00     0.017 A 
HETATM   33  C   UNL     1     -40.191  50.062 -53.853  1.00  0.00     0.001 A 
HETATM   34  C   UNL     1     -39.767  50.031 -52.524  1.00  0.00     0.000 A 
HETATM   35  C   UNL     1     -39.557  51.222 -51.822  1.00  0.00     0.001 A 
HETATM   36  C   UNL     1     -39.775  52.450 -52.448  1.00  0.00     0.017 A 
ENDBRANCH  27  31
ENDBRANCH   2  23
TORSDOF 7
ENDMDL
