MODEL 1
REMARK VINA RESULT:      -8.7      0.000      0.000
REMARK  10 active torsions:
REMARK  status: ('A' for Active; 'I' for Inactive)
REMARK    1  A    between atoms: N_2  and  C_4 
REMARK    2  A    between atoms: C_4  and  C_5 
REMARK    3  A    between atoms: N_6  and  C_7 
REMARK    4  A    between atoms: C_11  and  N_12 
REMARK    5  A    between atoms: C_15  and  C_16 
REMARK       I    between atoms: C_16  and  N_17 
REMARK    6  A    between atoms: N_17  and  N_18 
REMARK    7  A    between atoms: C_19  and  C_20 
REMARK    8  A    between atoms: C_21  and  O_22 
REMARK    9  A    between atoms: O_22  and  C_23 
REMARK   10  A    between atoms: C_23  and  C_24 
ROOT
HETATM    1  C   UNL     1     -42.489  55.060 -56.155  1.00  0.00     0.293 C 
HETATM    2  N   UNL     1     -41.219  54.691 -55.749  1.00  0.00    -0.242 N 
HETATM    3  O   UNL     1     -43.506  54.385 -55.999  1.00  0.00    -0.264 OA
HETATM    4  H   UNL     1     -40.435  55.336 -55.817  1.00  0.00     0.192 HD
ENDROOT
BRANCH   1   5
HETATM    5  C   UNL     1     -42.583  56.388 -56.741  1.00  0.00     0.170 A 
HETATM    6  C   UNL     1     -42.968  56.692 -58.039  1.00  0.00     0.096 A 
HETATM    7  N   UNL     1     -42.960  58.084 -58.083  1.00  0.00    -0.215 N 
HETATM    8  N   UNL     1     -42.506  58.555 -56.891  1.00  0.00     0.012 NA
HETATM    9  N   UNL     1     -42.312  57.540 -56.065  1.00  0.00    -0.152 NA
BRANCH   6  10
HETATM   10  C   UNL     1     -43.250  55.797 -59.187  1.00  0.00     0.295 C 
BRANCH  10  11
HETATM   11  N   UNL     1     -44.667  55.276 -59.252  1.00  0.00    -0.073 N 
HETATM   12  C   UNL     1     -44.760  53.824 -59.638  1.00  0.00     0.269 C 
HETATM   13  H   UNL     1     -45.071  55.390 -58.312  1.00  0.00     0.279 HD
HETATM   14  C   UNL     1     -45.511  56.122 -60.167  1.00  0.00     0.269 C 
ENDBRANCH  10  11
ENDBRANCH   6  10
BRANCH   7  15
HETATM   15  C   UNL     1     -43.393  58.938 -59.125  1.00  0.00     0.225 A 
HETATM   16  N   UNL     1     -44.483  59.692 -58.958  1.00  0.00    -0.081 NA
HETATM   17  O   UNL     1     -44.584  60.395 -60.164  1.00  0.00    -0.103 OA
HETATM   18  N   UNL     1     -43.540  60.075 -61.020  1.00  0.00    -0.083 NA
HETATM   19  C   UNL     1     -42.799  59.174 -60.376  1.00  0.00     0.201 A 
BRANCH  19  20
HETATM   20  N   UNL     1     -41.690  58.605 -60.871  1.00  0.00    -0.379 N 
HETATM   21  H   UNL     1     -40.800  58.710 -60.390  1.00  0.00     0.158 HD
HETATM   22  H   UNL     1     -41.687  57.930 -61.633  1.00  0.00     0.158 HD
ENDBRANCH  19  20
ENDBRANCH   7  15
ENDBRANCH   1   5
BRANCH   2  23
HETATM   23  N   UNL     1     -41.080  53.493 -55.131  1.00  0.00    -0.183 NA
HETATM   24  C   UNL     1     -40.148  53.370 -54.246  1.00  0.00     0.153 C 
BRANCH  24  25
HETATM   25  C   UNL     1     -39.965  52.094 -53.533  1.00  0.00     0.016 A 
HETATM   26  C   UNL     1     -39.894  51.942 -52.136  1.00  0.00     0.080 A 
HETATM   27  C   UNL     1     -39.683  50.658 -51.613  1.00  0.00     0.037 A 
HETATM   28  C   UNL     1     -39.568  49.545 -52.450  1.00  0.00     0.003 A 
HETATM   29  C   UNL     1     -39.636  49.705 -53.830  1.00  0.00     0.001 A 
HETATM   30  C   UNL     1     -39.826  50.976 -54.372  1.00  0.00     0.016 A 
BRANCH  26  31
HETATM   31  O   UNL     1     -39.846  52.925 -51.182  1.00  0.00    -0.346 OA
BRANCH  31  32
HETATM   32  C   UNL     1     -41.084  53.285 -50.573  1.00  0.00     0.219 C 
BRANCH  32  33
HETATM   33  C   UNL     1     -41.412  54.720 -50.897  1.00  0.00     0.026 A 
HETATM   34  C   UNL     1     -42.424  55.093 -51.791  1.00  0.00     0.045 A 
HETATM   35 CL   UNL     1     -43.401  53.924 -52.605  1.00  0.00    -0.084 Cl
HETATM   36  C   UNL     1     -42.667  56.444 -52.070  1.00  0.00     0.024 A 
HETATM   37  C   UNL     1     -41.917  57.443 -51.448  1.00  0.00     0.005 A 
HETATM   38  C   UNL     1     -40.920  57.088 -50.547  1.00  0.00     0.043 A 
HETATM   39  C   UNL     1     -40.676  55.741 -50.283  1.00  0.00     0.126 A 
HETATM   40  F   UNL     1     -39.677  55.435 -49.441  1.00  0.00    -0.205 F 
ENDBRANCH  32  33
ENDBRANCH  31  32
ENDBRANCH  26  31
ENDBRANCH  24  25
ENDBRANCH   2  23
TORSDOF 10
ENDMDL
MODEL 2
REMARK VINA RESULT:      -8.3      1.667      2.733
REMARK  10 active torsions:
REMARK  status: ('A' for Active; 'I' for Inactive)
REMARK    1  A    between atoms: N_2  and  C_4 
REMARK    2  A    between atoms: C_4  and  C_5 
REMARK    3  A    between atoms: N_6  and  C_7 
REMARK    4  A    between atoms: C_11  and  N_12 
REMARK    5  A    between atoms: C_15  and  C_16 
REMARK       I    between atoms: C_16  and  N_17 
REMARK    6  A    between atoms: N_17  and  N_18 
REMARK    7  A    between atoms: C_19  and  C_20 
REMARK    8  A    between atoms: C_21  and  O_22 
REMARK    9  A    between atoms: O_22  and  C_23 
REMARK   10  A    between atoms: C_23  and  C_24 
ROOT
HETATM    1  C   UNL     1     -42.599  55.178 -55.718  1.00  0.00     0.293 C 
HETATM    2  N   UNL     1     -41.329  54.698 -55.451  1.00  0.00    -0.242 N 
HETATM    3  O   UNL     1     -43.634  54.769 -55.194  1.00  0.00    -0.264 OA
HETATM    4  H   UNL     1     -40.503  55.146 -55.842  1.00  0.00     0.192 HD
ENDROOT
BRANCH   1   5
HETATM    5  C   UNL     1     -42.647  56.299 -56.643  1.00  0.00     0.170 A 
HETATM    6  C   UNL     1     -42.388  57.628 -56.342  1.00  0.00     0.096 A 
HETATM    7  N   UNL     1     -42.499  58.286 -57.564  1.00  0.00    -0.215 N 
HETATM    8  N   UNL     1     -42.892  57.389 -58.507  1.00  0.00     0.012 NA
HETATM    9  N   UNL     1     -42.948  56.183 -57.967  1.00  0.00    -0.152 NA
BRANCH   6  10
HETATM   10  C   UNL     1     -42.132  58.281 -55.035  1.00  0.00     0.295 C 
BRANCH  10  11
HETATM   11  N   UNL     1     -43.096  59.389 -54.680  1.00  0.00    -0.073 N 
HETATM   12  C   UNL     1     -42.547  60.371 -53.681  1.00  0.00     0.269 C 
HETATM   13  H   UNL     1     -43.307  59.894 -55.552  1.00  0.00     0.279 HD
HETATM   14  C   UNL     1     -44.409  58.828 -54.203  1.00  0.00     0.269 C 
ENDBRANCH  10  11
ENDBRANCH   6  10
BRANCH   7  15
HETATM   15  C   UNL     1     -42.211  59.637 -57.871  1.00  0.00     0.225 A 
HETATM   16  N   UNL     1     -41.218  60.267 -57.236  1.00  0.00    -0.081 NA
HETATM   17  O   UNL     1     -41.225  61.546 -57.804  1.00  0.00    -0.103 OA
HETATM   18  N   UNL     1     -42.198  61.654 -58.787  1.00  0.00    -0.083 NA
HETATM   19  C   UNL     1     -42.808  60.470 -58.831  1.00  0.00     0.201 A 
BRANCH  19  20
HETATM   20  N   UNL     1     -43.820  60.165 -59.657  1.00  0.00    -0.379 N 
HETATM   21  H   UNL     1     -43.633  59.820 -60.595  1.00  0.00     0.158 HD
HETATM   22  H   UNL     1     -44.794  60.106 -59.367  1.00  0.00     0.158 HD
ENDBRANCH  19  20
ENDBRANCH   7  15
ENDBRANCH   1   5
BRANCH   2  23
HETATM   23  N   UNL     1     -41.212  53.701 -54.541  1.00  0.00    -0.183 NA
HETATM   24  C   UNL     1     -40.143  52.978 -54.564  1.00  0.00     0.153 C 
BRANCH  24  25
HETATM   25  C   UNL     1     -39.959  51.891 -53.587  1.00  0.00     0.016 A 
HETATM   26  C   UNL     1     -39.898  52.050 -52.190  1.00  0.00     0.080 A 
HETATM   27  C   UNL     1     -39.684  50.914 -51.397  1.00  0.00     0.037 A 
HETATM   28  C   UNL     1     -39.558  49.645 -51.968  1.00  0.00     0.003 A 
HETATM   29  C   UNL     1     -39.617  49.497 -53.350  1.00  0.00     0.001 A 
HETATM   30  C   UNL     1     -39.809  50.617 -54.159  1.00  0.00     0.016 A 
BRANCH  26  31
HETATM   31  O   UNL     1     -39.861  53.219 -51.475  1.00  0.00    -0.346 OA
BRANCH  31  32
HETATM   32  C   UNL     1     -40.951  53.460 -50.589  1.00  0.00     0.219 C 
BRANCH  32  33
HETATM   33  C   UNL     1     -41.489  54.850 -50.811  1.00  0.00     0.026 A 
HETATM   34  C   UNL     1     -42.709  55.109 -51.449  1.00  0.00     0.045 A 
HETATM   35 CL   UNL     1     -43.719  53.838 -52.040  1.00  0.00    -0.084 Cl
HETATM   36  C   UNL     1     -43.146  56.426 -51.648  1.00  0.00     0.024 A 
HETATM   37  C   UNL     1     -42.381  57.501 -51.194  1.00  0.00     0.005 A 
HETATM   38  C   UNL     1     -41.176  57.260 -50.545  1.00  0.00     0.043 A 
HETATM   39  C   UNL     1     -40.743  55.948 -50.363  1.00  0.00     0.126 A 
HETATM   40  F   UNL     1     -39.554  55.753 -49.771  1.00  0.00    -0.205 F 
ENDBRANCH  32  33
ENDBRANCH  31  32
ENDBRANCH  26  31
ENDBRANCH  24  25
ENDBRANCH   2  23
TORSDOF 10
ENDMDL
MODEL 3
REMARK VINA RESULT:      -8.2      1.982      2.709
REMARK  10 active torsions:
REMARK  status: ('A' for Active; 'I' for Inactive)
REMARK    1  A    between atoms: N_2  and  C_4 
REMARK    2  A    between atoms: C_4  and  C_5 
REMARK    3  A    between atoms: N_6  and  C_7 
REMARK    4  A    between atoms: C_11  and  N_12 
REMARK    5  A    between atoms: C_15  and  C_16 
REMARK       I    between atoms: C_16  and  N_17 
REMARK    6  A    between atoms: N_17  and  N_18 
REMARK    7  A    between atoms: C_19  and  C_20 
REMARK    8  A    between atoms: C_21  and  O_22 
REMARK    9  A    between atoms: O_22  and  C_23 
REMARK   10  A    between atoms: C_23  and  C_24 
ROOT
HETATM    1  C   UNL     1     -43.426  56.600 -54.949  1.00  0.00     0.293 C 
HETATM    2  N   UNL     1     -43.799  55.276 -54.798  1.00  0.00    -0.242 N 
HETATM    3  O   UNL     1     -42.442  57.122 -54.427  1.00  0.00    -0.264 OA
HETATM    4  H   UNL     1     -44.566  54.880 -55.336  1.00  0.00     0.192 HD
ENDROOT
BRANCH   1   5
HETATM    5  C   UNL     1     -44.256  57.369 -55.863  1.00  0.00     0.170 A 
HETATM    6  C   UNL     1     -44.210  57.331 -57.249  1.00  0.00     0.096 A 
HETATM    7  N   UNL     1     -45.235  58.185 -57.650  1.00  0.00    -0.215 N 
HETATM    8  N   UNL     1     -45.785  58.754 -56.546  1.00  0.00     0.012 NA
HETATM    9  N   UNL     1     -45.225  58.240 -55.463  1.00  0.00    -0.152 NA
BRANCH   6  10
HETATM   10  C   UNL     1     -43.263  56.638 -58.156  1.00  0.00     0.295 C 
BRANCH  10  11
HETATM   11  N   UNL     1     -42.051  57.450 -58.547  1.00  0.00    -0.073 N 
HETATM   12  C   UNL     1     -42.028  58.830 -57.947  1.00  0.00     0.269 C 
HETATM   13  H   UNL     1     -41.224  56.935 -58.213  1.00  0.00     0.279 HD
HETATM   14  C   UNL     1     -41.911  57.523 -60.045  1.00  0.00     0.269 C 
ENDBRANCH  10  11
ENDBRANCH   6  10
BRANCH   7  15
HETATM   15  C   UNL     1     -45.724  58.426 -58.956  1.00  0.00     0.225 A 
HETATM   16  N   UNL     1     -45.389  59.550 -59.596  1.00  0.00    -0.081 NA
HETATM   17  O   UNL     1     -46.032  59.428 -60.833  1.00  0.00    -0.103 OA
HETATM   18  N   UNL     1     -46.714  58.224 -60.927  1.00  0.00    -0.083 NA
HETATM   19  C   UNL     1     -46.522  57.600 -59.766  1.00  0.00     0.201 A 
BRANCH  19  20
HETATM   20  N   UNL     1     -47.026  56.397 -59.454  1.00  0.00    -0.379 N 
HETATM   21  H   UNL     1     -47.935  56.320 -59.005  1.00  0.00     0.158 HD
HETATM   22  H   UNL     1     -46.630  55.514 -59.772  1.00  0.00     0.158 HD
ENDBRANCH  19  20
ENDBRANCH   7  15
ENDBRANCH   1   5
BRANCH   2  23
HETATM   23  N   UNL     1     -43.022  54.489 -54.015  1.00  0.00    -0.183 NA
HETATM   24  C   UNL     1     -41.966  53.962 -54.539  1.00  0.00     0.153 C 
BRANCH  24  25
HETATM   25  C   UNL     1     -41.079  53.112 -53.727  1.00  0.00     0.016 A 
HETATM   26  C   UNL     1     -40.465  53.490 -52.519  1.00  0.00     0.080 A 
HETATM   27  C   UNL     1     -39.619  52.572 -51.882  1.00  0.00     0.037 A 
HETATM   28  C   UNL     1     -39.401  51.298 -52.414  1.00  0.00     0.003 A 
HETATM   29  C   UNL     1     -40.009  50.933 -53.611  1.00  0.00     0.001 A 
HETATM   30  C   UNL     1     -40.839  51.839 -54.271  1.00  0.00     0.016 A 
BRANCH  26  31
HETATM   31  O   UNL     1     -40.453  54.728 -51.931  1.00  0.00    -0.346 OA
BRANCH  31  32
HETATM   32  C   UNL     1     -41.204  54.872 -50.727  1.00  0.00     0.219 C 
BRANCH  32  33
HETATM   33  C   UNL     1     -42.209  55.984 -50.884  1.00  0.00     0.026 A 
HETATM   34  C   UNL     1     -43.594  55.773 -50.881  1.00  0.00     0.045 A 
HETATM   35 CL   UNL     1     -44.279  54.198 -50.688  1.00  0.00    -0.084 Cl
HETATM   36  C   UNL     1     -44.480  56.845 -51.054  1.00  0.00     0.024 A 
HETATM   37  C   UNL     1     -43.996  58.144 -51.213  1.00  0.00     0.005 A 
HETATM   38  C   UNL     1     -42.625  58.371 -51.203  1.00  0.00     0.043 A 
HETATM   39  C   UNL     1     -41.750  57.298 -51.042  1.00  0.00     0.126 A 
HETATM   40  F   UNL     1     -40.433  57.548 -51.080  1.00  0.00    -0.205 F 
ENDBRANCH  32  33
ENDBRANCH  31  32
ENDBRANCH  26  31
ENDBRANCH  24  25
ENDBRANCH   2  23
TORSDOF 10
ENDMDL
MODEL 4
REMARK VINA RESULT:      -8.0      2.096      3.303
REMARK  10 active torsions:
REMARK  status: ('A' for Active; 'I' for Inactive)
REMARK    1  A    between atoms: N_2  and  C_4 
REMARK    2  A    between atoms: C_4  and  C_5 
REMARK    3  A    between atoms: N_6  and  C_7 
REMARK    4  A    between atoms: C_11  and  N_12 
REMARK    5  A    between atoms: C_15  and  C_16 
REMARK       I    between atoms: C_16  and  N_17 
REMARK    6  A    between atoms: N_17  and  N_18 
REMARK    7  A    between atoms: C_19  and  C_20 
REMARK    8  A    between atoms: C_21  and  O_22 
REMARK    9  A    between atoms: O_22  and  C_23 
REMARK   10  A    between atoms: C_23  and  C_24 
ROOT
HETATM    1  C   UNL     1     -42.891  56.018 -56.833  1.00  0.00     0.293 C 
HETATM    2  N   UNL     1     -41.856  55.121 -56.637  1.00  0.00    -0.242 N 
HETATM    3  O   UNL     1     -43.691  56.375 -55.970  1.00  0.00    -0.264 OA
HETATM    4  H   UNL     1     -41.168  54.942 -57.364  1.00  0.00     0.192 HD
ENDROOT
BRANCH   1   5
HETATM    5  C   UNL     1     -42.947  56.606 -58.162  1.00  0.00     0.170 A 
HETATM    6  C   UNL     1     -43.084  57.953 -58.463  1.00  0.00     0.096 A 
HETATM    7  N   UNL     1     -43.015  58.004 -59.853  1.00  0.00    -0.215 N 
HETATM    8  N   UNL     1     -42.932  56.735 -60.332  1.00  0.00     0.012 NA
HETATM    9  N   UNL     1     -42.854  55.889 -59.317  1.00  0.00    -0.152 NA
BRANCH   6  10
HETATM   10  C   UNL     1     -43.336  59.112 -57.571  1.00  0.00     0.295 C 
BRANCH  10  11
HETATM   11  N   UNL     1     -42.099  59.709 -56.943  1.00  0.00    -0.073 N 
HETATM   12  C   UNL     1     -42.118  59.696 -55.438  1.00  0.00     0.269 C 
HETATM   13  H   UNL     1     -41.298  59.147 -57.264  1.00  0.00     0.279 HD
HETATM   14  C   UNL     1     -41.853  61.103 -57.456  1.00  0.00     0.269 C 
ENDBRANCH  10  11
ENDBRANCH   6  10
BRANCH   7  15
HETATM   15  C   UNL     1     -42.970  59.141 -60.694  1.00  0.00     0.225 A 
HETATM   16  N   UNL     1     -41.792  59.646 -61.070  1.00  0.00    -0.081 NA
HETATM   17  O   UNL     1     -42.143  60.725 -61.889  1.00  0.00    -0.103 OA
HETATM   18  N   UNL     1     -43.520  60.832 -62.016  1.00  0.00    -0.083 NA
HETATM   19  C   UNL     1     -44.034  59.849 -61.278  1.00  0.00     0.201 A 
BRANCH  19  20
HETATM   20  N   UNL     1     -45.347  59.612 -61.133  1.00  0.00    -0.379 N 
HETATM   21  H   UNL     1     -45.848  59.969 -60.323  1.00  0.00     0.158 HD
HETATM   22  H   UNL     1     -45.938  59.217 -61.861  1.00  0.00     0.158 HD
ENDBRANCH  19  20
ENDBRANCH   7  15
ENDBRANCH   1   5
BRANCH   2  23
HETATM   23  N   UNL     1     -41.708  54.593 -55.397  1.00  0.00    -0.183 NA
HETATM   24  C   UNL     1     -40.614  53.963 -55.131  1.00  0.00     0.153 C 
BRANCH  24  25
HETATM   25  C   UNL     1     -40.396  53.384 -53.794  1.00  0.00     0.016 A 
HETATM   26  C   UNL     1     -40.618  54.045 -52.572  1.00  0.00     0.080 A 
HETATM   27  C   UNL     1     -40.329  53.363 -51.381  1.00  0.00     0.037 A 
HETATM   28  C   UNL     1     -39.854  52.049 -51.396  1.00  0.00     0.003 A 
HETATM   29  C   UNL     1     -39.634  51.404 -52.609  1.00  0.00     0.001 A 
HETATM   30  C   UNL     1     -39.896  52.071 -53.805  1.00  0.00     0.016 A 
BRANCH  26  31
HETATM   31  O   UNL     1     -40.941  55.361 -52.372  1.00  0.00    -0.346 OA
BRANCH  31  32
HETATM   32  C   UNL     1     -41.418  55.712 -51.074  1.00  0.00     0.219 C 
BRANCH  32  33
HETATM   33  C   UNL     1     -42.432  56.821 -51.187  1.00  0.00     0.026 A 
HETATM   34  C   UNL     1     -42.085  58.157 -51.426  1.00  0.00     0.045 A 
HETATM   35 CL   UNL     1     -40.442  58.655 -51.620  1.00  0.00    -0.084 Cl
HETATM   36  C   UNL     1     -43.073  59.149 -51.498  1.00  0.00     0.024 A 
HETATM   37  C   UNL     1     -44.420  58.818 -51.352  1.00  0.00     0.005 A 
HETATM   38  C   UNL     1     -44.781  57.494 -51.130  1.00  0.00     0.043 A 
HETATM   39  C   UNL     1     -43.792  56.516 -51.048  1.00  0.00     0.126 A 
HETATM   40  F   UNL     1     -44.173  55.255 -50.790  1.00  0.00    -0.205 F 
ENDBRANCH  32  33
ENDBRANCH  31  32
ENDBRANCH  26  31
ENDBRANCH  24  25
ENDBRANCH   2  23
TORSDOF 10
ENDMDL
MODEL 5
REMARK VINA RESULT:      -7.8      1.822      2.987
REMARK  10 active torsions:
REMARK  status: ('A' for Active; 'I' for Inactive)
REMARK    1  A    between atoms: N_2  and  C_4 
REMARK    2  A    between atoms: C_4  and  C_5 
REMARK    3  A    between atoms: N_6  and  C_7 
REMARK    4  A    between atoms: C_11  and  N_12 
REMARK    5  A    between atoms: C_15  and  C_16 
REMARK       I    between atoms: C_16  and  N_17 
REMARK    6  A    between atoms: N_17  and  N_18 
REMARK    7  A    between atoms: C_19  and  C_20 
REMARK    8  A    between atoms: C_21  and  O_22 
REMARK    9  A    between atoms: O_22  and  C_23 
REMARK   10  A    between atoms: C_23  and  C_24 
ROOT
HETATM    1  C   UNL     1     -43.092  56.237 -56.428  1.00  0.00     0.293 C 
HETATM    2  N   UNL     1     -41.932  55.482 -56.405  1.00  0.00    -0.242 N 
HETATM    3  O   UNL     1     -43.736  56.575 -55.437  1.00  0.00    -0.264 OA
HETATM    4  H   UNL     1     -41.390  55.321 -57.251  1.00  0.00     0.192 HD
ENDROOT
BRANCH   1   5
HETATM    5  C   UNL     1     -43.493  56.700 -57.747  1.00  0.00     0.170 A 
HETATM    6  C   UNL     1     -43.661  58.019 -58.143  1.00  0.00     0.096 A 
HETATM    7  N   UNL     1     -43.979  57.935 -59.496  1.00  0.00    -0.215 N 
HETATM    8  N   UNL     1     -44.076  56.623 -59.840  1.00  0.00     0.012 NA
HETATM    9  N   UNL     1     -43.749  55.873 -58.800  1.00  0.00    -0.152 NA
BRANCH   6  10
HETATM   10  C   UNL     1     -43.616  59.270 -57.347  1.00  0.00     0.295 C 
BRANCH  10  11
HETATM   11  N   UNL     1     -42.236  59.682 -56.893  1.00  0.00    -0.073 N 
HETATM   12  C   UNL     1     -42.123  59.887 -55.406  1.00  0.00     0.269 C 
HETATM   13  H   UNL     1     -41.591  58.928 -57.168  1.00  0.00     0.279 HD
HETATM   14  C   UNL     1     -41.770  60.909 -57.631  1.00  0.00     0.269 C 
ENDBRANCH  10  11
ENDBRANCH   6  10
BRANCH   7  15
HETATM   15  C   UNL     1     -44.130  58.982 -60.436  1.00  0.00     0.225 A 
HETATM   16  N   UNL     1     -45.352  59.424 -60.750  1.00  0.00    -0.081 NA
HETATM   17  O   UNL     1     -45.103  60.446 -61.673  1.00  0.00    -0.103 OA
HETATM   18  N   UNL     1     -43.742  60.621 -61.874  1.00  0.00    -0.083 NA
HETATM   19  C   UNL     1     -43.138  59.716 -61.106  1.00  0.00     0.201 A 
BRANCH  19  20
HETATM   20  N   UNL     1     -41.809  59.555 -61.019  1.00  0.00    -0.379 N 
HETATM   21  H   UNL     1     -41.327  58.907 -61.637  1.00  0.00     0.158 HD
HETATM   22  H   UNL     1     -41.197  60.155 -60.468  1.00  0.00     0.158 HD
ENDBRANCH  19  20
ENDBRANCH   7  15
ENDBRANCH   1   5
BRANCH   2  23
HETATM   23  N   UNL     1     -41.467  55.082 -55.197  1.00  0.00    -0.183 NA
HETATM   24  C   UNL     1     -41.867  53.945 -54.736  1.00  0.00     0.153 C 
BRANCH  24  25
HETATM   25  C   UNL     1     -41.379  53.457 -53.435  1.00  0.00     0.016 A 
HETATM   26  C   UNL     1     -41.934  53.775 -52.182  1.00  0.00     0.080 A 
HETATM   27  C   UNL     1     -41.329  53.252 -51.030  1.00  0.00     0.037 A 
HETATM   28  C   UNL     1     -40.215  52.413 -51.115  1.00  0.00     0.003 A 
HETATM   29  C   UNL     1     -39.670  52.106 -52.357  1.00  0.00     0.001 A 
HETATM   30  C   UNL     1     -40.244  52.631 -53.514  1.00  0.00     0.016 A 
BRANCH  26  31
HETATM   31  O   UNL     1     -42.925  54.681 -51.904  1.00  0.00    -0.346 OA
BRANCH  31  32
HETATM   32  C   UNL     1     -42.820  55.383 -50.668  1.00  0.00     0.219 C 
BRANCH  32  33
HETATM   33  C   UNL     1     -42.323  56.784 -50.918  1.00  0.00     0.026 A 
HETATM   34  C   UNL     1     -43.130  57.801 -51.444  1.00  0.00     0.045 A 
HETATM   35 CL   UNL     1     -44.787  57.536 -51.851  1.00  0.00    -0.084 Cl
HETATM   36  C   UNL     1     -42.605  59.079 -51.678  1.00  0.00     0.024 A 
HETATM   37  C   UNL     1     -41.274  59.365 -51.371  1.00  0.00     0.005 A 
HETATM   38  C   UNL     1     -40.466  58.370 -50.834  1.00  0.00     0.043 A 
HETATM   39  C   UNL     1     -40.992  57.098 -50.616  1.00  0.00     0.126 A 
HETATM   40  F   UNL     1     -40.172  56.150 -50.137  1.00  0.00    -0.205 F 
ENDBRANCH  32  33
ENDBRANCH  31  32
ENDBRANCH  26  31
ENDBRANCH  24  25
ENDBRANCH   2  23
TORSDOF 10
ENDMDL
MODEL 6
REMARK VINA RESULT:      -7.8      6.441      9.198
REMARK  10 active torsions:
REMARK  status: ('A' for Active; 'I' for Inactive)
REMARK    1  A    between atoms: N_2  and  C_4 
REMARK    2  A    between atoms: C_4  and  C_5 
REMARK    3  A    between atoms: N_6  and  C_7 
REMARK    4  A    between atoms: C_11  and  N_12 
REMARK    5  A    between atoms: C_15  and  C_16 
REMARK       I    between atoms: C_16  and  N_17 
REMARK    6  A    between atoms: N_17  and  N_18 
REMARK    7  A    between atoms: C_19  and  C_20 
REMARK    8  A    between atoms: C_21  and  O_22 
REMARK    9  A    between atoms: O_22  and  C_23 
REMARK   10  A    between atoms: C_23  and  C_24 
ROOT
HETATM    1  C   UNL     1     -45.279  59.594 -51.061  1.00  0.00     0.293 C 
HETATM    2  N   UNL     1     -44.571  58.407 -50.995  1.00  0.00    -0.242 N 
HETATM    3  O   UNL     1     -45.694  60.114 -52.095  1.00  0.00    -0.264 OA
HETATM    4  H   UNL     1     -44.344  57.977 -50.101  1.00  0.00     0.192 HD
ENDROOT
BRANCH   1   5
HETATM    5  C   UNL     1     -45.591  60.192 -49.773  1.00  0.00     0.170 A 
HETATM    6  C   UNL     1     -45.615  61.548 -49.476  1.00  0.00     0.096 A 
HETATM    7  N   UNL     1     -46.030  61.603 -48.149  1.00  0.00    -0.215 N 
HETATM    8  N   UNL     1     -46.154  60.334 -47.678  1.00  0.00     0.012 NA
HETATM    9  N   UNL     1     -45.927  59.478 -48.662  1.00  0.00    -0.152 NA
BRANCH   6  10
HETATM   10  C   UNL     1     -45.218  62.714 -50.303  1.00  0.00     0.295 C 
BRANCH  10  11
HETATM   11  N   UNL     1     -43.728  62.947 -50.396  1.00  0.00    -0.073 N 
HETATM   12  C   UNL     1     -43.224  64.019 -49.468  1.00  0.00     0.269 C 
HETATM   13  H   UNL     1     -43.270  62.059 -50.149  1.00  0.00     0.279 HD
HETATM   14  C   UNL     1     -43.316  63.240 -51.815  1.00  0.00     0.269 C 
ENDBRANCH  10  11
ENDBRANCH   6  10
BRANCH   7  15
HETATM   15  C   UNL     1     -46.351  62.740 -47.369  1.00  0.00     0.225 A 
HETATM   16  N   UNL     1     -45.429  63.278 -46.565  1.00  0.00    -0.081 NA
HETATM   17  O   UNL     1     -46.093  64.365 -45.987  1.00  0.00    -0.103 OA
HETATM   18  N   UNL     1     -47.387  64.480 -46.473  1.00  0.00    -0.083 NA
HETATM   19  C   UNL     1     -47.547  63.474 -47.332  1.00  0.00     0.201 A 
BRANCH  19  20
HETATM   20  N   UNL     1     -48.674  63.231 -48.019  1.00  0.00    -0.379 N 
HETATM   21  H   UNL     1     -48.665  62.593 -48.811  1.00  0.00     0.158 HD
HETATM   22  H   UNL     1     -49.600  63.524 -47.715  1.00  0.00     0.158 HD
ENDBRANCH  19  20
ENDBRANCH   7  15
ENDBRANCH   1   5
BRANCH   2  23
HETATM   23  N   UNL     1     -44.313  57.763 -52.159  1.00  0.00    -0.183 NA
HETATM   24  C   UNL     1     -43.479  56.778 -52.138  1.00  0.00     0.153 C 
BRANCH  24  25
HETATM   25  C   UNL     1     -43.175  56.035 -53.373  1.00  0.00     0.016 A 
HETATM   26  C   UNL     1     -42.476  54.816 -53.442  1.00  0.00     0.080 A 
HETATM   27  C   UNL     1     -42.240  54.251 -54.703  1.00  0.00     0.037 A 
HETATM   28  C   UNL     1     -42.704  54.865 -55.870  1.00  0.00     0.003 A 
HETATM   29  C   UNL     1     -43.391  56.071 -55.793  1.00  0.00     0.001 A 
HETATM   30  C   UNL     1     -43.620  56.660 -54.550  1.00  0.00     0.016 A 
BRANCH  26  31
HETATM   31  O   UNL     1     -41.835  54.153 -52.428  1.00  0.00    -0.346 OA
BRANCH  31  32
HETATM   32  C   UNL     1     -40.446  53.890 -52.615  1.00  0.00     0.219 C 
BRANCH  32  33
HETATM   33  C   UNL     1     -40.155  52.446 -52.297  1.00  0.00     0.026 A 
HETATM   34  C   UNL     1     -40.130  51.937 -50.993  1.00  0.00     0.045 A 
HETATM   35 CL   UNL     1     -40.442  52.932 -49.616  1.00  0.00    -0.084 Cl
HETATM   36  C   UNL     1     -39.829  50.588 -50.759  1.00  0.00     0.024 A 
HETATM   37  C   UNL     1     -39.568  49.725 -51.824  1.00  0.00     0.005 A 
HETATM   38  C   UNL     1     -39.605  50.213 -53.125  1.00  0.00     0.043 A 
HETATM   39  C   UNL     1     -39.893  51.559 -53.349  1.00  0.00     0.126 A 
HETATM   40  F   UNL     1     -39.876  52.005 -54.614  1.00  0.00    -0.205 F 
ENDBRANCH  32  33
ENDBRANCH  31  32
ENDBRANCH  26  31
ENDBRANCH  24  25
ENDBRANCH   2  23
TORSDOF 10
ENDMDL
MODEL 7
REMARK VINA RESULT:      -7.8      2.579      3.790
REMARK  10 active torsions:
REMARK  status: ('A' for Active; 'I' for Inactive)
REMARK    1  A    between atoms: N_2  and  C_4 
REMARK    2  A    between atoms: C_4  and  C_5 
REMARK    3  A    between atoms: N_6  and  C_7 
REMARK    4  A    between atoms: C_11  and  N_12 
REMARK    5  A    between atoms: C_15  and  C_16 
REMARK       I    between atoms: C_16  and  N_17 
REMARK    6  A    between atoms: N_17  and  N_18 
REMARK    7  A    between atoms: C_19  and  C_20 
REMARK    8  A    between atoms: C_21  and  O_22 
REMARK    9  A    between atoms: O_22  and  C_23 
REMARK   10  A    between atoms: C_23  and  C_24 
ROOT
HETATM    1  C   UNL     1     -43.065  56.357 -57.519  1.00  0.00     0.293 C 
HETATM    2  N   UNL     1     -43.284  55.154 -56.871  1.00  0.00    -0.242 N 
HETATM    3  O   UNL     1     -42.152  57.141 -57.266  1.00  0.00    -0.264 OA
HETATM    4  H   UNL     1     -43.997  54.504 -57.193  1.00  0.00     0.192 HD
ENDROOT
BRANCH   1   5
HETATM    5  C   UNL     1     -43.971  56.631 -58.623  1.00  0.00     0.170 A 
HETATM    6  C   UNL     1     -45.019  57.540 -58.625  1.00  0.00     0.096 A 
HETATM    7  N   UNL     1     -45.528  57.477 -59.919  1.00  0.00    -0.215 N 
HETATM    8  N   UNL     1     -44.859  56.512 -60.603  1.00  0.00     0.012 NA
HETATM    9  N   UNL     1     -43.895  56.023 -59.840  1.00  0.00    -0.152 NA
BRANCH   6  10
HETATM   10  C   UNL     1     -45.579  58.356 -57.520  1.00  0.00     0.295 C 
BRANCH  10  11
HETATM   11  N   UNL     1     -45.324  59.841 -57.636  1.00  0.00    -0.073 N 
HETATM   12  C   UNL     1     -43.870  60.193 -57.806  1.00  0.00     0.269 C 
HETATM   13  H   UNL     1     -45.838  60.170 -58.465  1.00  0.00     0.279 HD
HETATM   14  C   UNL     1     -45.914  60.583 -56.467  1.00  0.00     0.269 C 
ENDBRANCH  10  11
ENDBRANCH   6  10
BRANCH   7  15
HETATM   15  C   UNL     1     -46.524  58.285 -60.518  1.00  0.00     0.225 A 
HETATM   16  N   UNL     1     -46.436  59.616 -60.444  1.00  0.00    -0.081 NA
HETATM   17  O   UNL     1     -47.561  60.059 -61.147  1.00  0.00    -0.103 OA
HETATM   18  N   UNL     1     -48.287  58.993 -61.656  1.00  0.00    -0.083 NA
HETATM   19  C   UNL     1     -47.644  57.892 -61.269  1.00  0.00     0.201 A 
BRANCH  19  20
HETATM   20  N   UNL     1     -48.032  56.641 -61.558  1.00  0.00    -0.379 N 
HETATM   21  H   UNL     1     -49.021  56.409 -61.615  1.00  0.00     0.158 HD
HETATM   22  H   UNL     1     -47.402  55.909 -61.882  1.00  0.00     0.158 HD
ENDBRANCH  19  20
ENDBRANCH   7  15
ENDBRANCH   1   5
BRANCH   2  23
HETATM   23  N   UNL     1     -42.428  54.809 -55.879  1.00  0.00    -0.183 NA
HETATM   24  C   UNL     1     -42.833  53.965 -54.992  1.00  0.00     0.153 C 
BRANCH  24  25
HETATM   25  C   UNL     1     -41.935  53.544 -53.902  1.00  0.00     0.016 A 
HETATM   26  C   UNL     1     -42.066  53.907 -52.549  1.00  0.00     0.080 A 
HETATM   27  C   UNL     1     -41.105  53.447 -51.637  1.00  0.00     0.037 A 
HETATM   28  C   UNL     1     -40.051  52.627 -52.048  1.00  0.00     0.003 A 
HETATM   29  C   UNL     1     -39.927  52.275 -53.388  1.00  0.00     0.001 A 
HETATM   30  C   UNL     1     -40.861  52.738 -54.315  1.00  0.00     0.016 A 
BRANCH  26  31
HETATM   31  O   UNL     1     -42.942  54.805 -51.998  1.00  0.00    -0.346 OA
BRANCH  31  32
HETATM   32  C   UNL     1     -42.382  56.011 -51.483  1.00  0.00     0.219 C 
BRANCH  32  33
HETATM   33  C   UNL     1     -42.671  57.150 -52.427  1.00  0.00     0.026 A 
HETATM   34  C   UNL     1     -43.842  57.915 -52.371  1.00  0.00     0.045 A 
HETATM   35 CL   UNL     1     -45.073  57.620 -51.196  1.00  0.00    -0.084 Cl
HETATM   36  C   UNL     1     -44.065  58.948 -53.292  1.00  0.00     0.024 A 
HETATM   37  C   UNL     1     -43.113  59.244 -54.269  1.00  0.00     0.005 A 
HETATM   38  C   UNL     1     -41.939  58.503 -54.327  1.00  0.00     0.043 A 
HETATM   39  C   UNL     1     -41.730  57.470 -53.415  1.00  0.00     0.126 A 
HETATM   40  F   UNL     1     -40.605  56.748 -53.527  1.00  0.00    -0.205 F 
ENDBRANCH  32  33
ENDBRANCH  31  32
ENDBRANCH  26  31
ENDBRANCH  24  25
ENDBRANCH   2  23
TORSDOF 10
ENDMDL
MODEL 8
REMARK VINA RESULT:      -7.7      5.935      9.052
REMARK  10 active torsions:
REMARK  status: ('A' for Active; 'I' for Inactive)
REMARK    1  A    between atoms: N_2  and  C_4 
REMARK    2  A    between atoms: C_4  and  C_5 
REMARK    3  A    between atoms: N_6  and  C_7 
REMARK    4  A    between atoms: C_11  and  N_12 
REMARK    5  A    between atoms: C_15  and  C_16 
REMARK       I    between atoms: C_16  and  N_17 
REMARK    6  A    between atoms: N_17  and  N_18 
REMARK    7  A    between atoms: C_19  and  C_20 
REMARK    8  A    between atoms: C_21  and  O_22 
REMARK    9  A    between atoms: O_22  and  C_23 
REMARK   10  A    between atoms: C_23  and  C_24 
ROOT
HETATM    1  C   UNL     1     -44.891  59.588 -51.857  1.00  0.00     0.293 C 
HETATM    2  N   UNL     1     -44.019  58.533 -52.061  1.00  0.00    -0.242 N 
HETATM    3  O   UNL     1     -45.433  60.241 -52.747  1.00  0.00    -0.264 OA
HETATM    4  H   UNL     1     -43.682  57.969 -51.284  1.00  0.00     0.192 HD
ENDROOT
BRANCH   1   5
HETATM    5  C   UNL     1     -45.209  59.857 -50.464  1.00  0.00     0.170 A 
HETATM    6  C   UNL     1     -44.794  60.952 -49.718  1.00  0.00     0.096 A 
HETATM    7  N   UNL     1     -45.412  60.782 -48.483  1.00  0.00    -0.215 N 
HETATM    8  N   UNL     1     -46.080  59.599 -48.489  1.00  0.00     0.012 NA
HETATM    9  N   UNL     1     -45.993  59.053 -49.692  1.00  0.00    -0.152 NA
BRANCH   6  10
HETATM   10  C   UNL     1     -43.845  62.039 -50.063  1.00  0.00     0.295 C 
BRANCH  10  11
HETATM   11  N   UNL     1     -44.414  63.434 -49.957  1.00  0.00    -0.073 N 
HETATM   12  C   UNL     1     -44.952  63.968 -51.257  1.00  0.00     0.269 C 
HETATM   13  H   UNL     1     -45.185  63.392 -49.276  1.00  0.00     0.279 HD
HETATM   14  C   UNL     1     -43.403  64.385 -49.373  1.00  0.00     0.269 C 
ENDBRANCH  10  11
ENDBRANCH   6  10
BRANCH   7  15
HETATM   15  C   UNL     1     -45.442  61.668 -47.380  1.00  0.00     0.225 A 
HETATM   16  N   UNL     1     -46.111  62.821 -47.470  1.00  0.00    -0.081 NA
HETATM   17  O   UNL     1     -45.931  63.404 -46.211  1.00  0.00    -0.103 OA
HETATM   18  N   UNL     1     -45.186  62.582 -45.379  1.00  0.00    -0.083 NA
HETATM   19  C   UNL     1     -44.884  61.504 -46.101  1.00  0.00     0.201 A 
BRANCH  19  20
HETATM   20  N   UNL     1     -44.163  60.465 -45.655  1.00  0.00    -0.379 N 
HETATM   21  H   UNL     1     -43.870  60.421 -44.682  1.00  0.00     0.158 HD
HETATM   22  H   UNL     1     -44.002  59.612 -46.188  1.00  0.00     0.158 HD
ENDBRANCH  19  20
ENDBRANCH   7  15
ENDBRANCH   1   5
BRANCH   2  23
HETATM   23  N   UNL     1     -43.740  58.187 -53.341  1.00  0.00    -0.183 NA
HETATM   24  C   UNL     1     -43.827  56.942 -53.668  1.00  0.00     0.153 C 
BRANCH  24  25
HETATM   25  C   UNL     1     -43.549  56.515 -55.051  1.00  0.00     0.016 A 
HETATM   26  C   UNL     1     -43.039  55.261 -55.432  1.00  0.00     0.080 A 
HETATM   27  C   UNL     1     -42.799  55.021 -56.792  1.00  0.00     0.037 A 
HETATM   28  C   UNL     1     -43.080  55.991 -57.759  1.00  0.00     0.003 A 
HETATM   29  C   UNL     1     -43.581  57.230 -57.373  1.00  0.00     0.001 A 
HETATM   30  C   UNL     1     -43.809  57.496 -56.023  1.00  0.00     0.016 A 
BRANCH  26  31
HETATM   31  O   UNL     1     -42.580  54.255 -54.621  1.00  0.00    -0.346 OA
BRANCH  31  32
HETATM   32  C   UNL     1     -41.186  53.964 -54.692  1.00  0.00     0.219 C 
BRANCH  32  33
HETATM   33  C   UNL     1     -40.703  53.460 -53.356  1.00  0.00     0.026 A 
HETATM   34  C   UNL     1     -40.229  52.158 -53.152  1.00  0.00     0.045 A 
HETATM   35 CL   UNL     1     -40.151  51.002 -54.434  1.00  0.00    -0.084 Cl
HETATM   36  C   UNL     1     -39.815  51.739 -51.880  1.00  0.00     0.024 A 
HETATM   37  C   UNL     1     -39.850  52.620 -50.799  1.00  0.00     0.005 A 
HETATM   38  C   UNL     1     -40.304  53.920 -50.989  1.00  0.00     0.043 A 
HETATM   39  C   UNL     1     -40.725  54.325 -52.255  1.00  0.00     0.126 A 
HETATM   40  F   UNL     1     -41.197  55.573 -52.392  1.00  0.00    -0.205 F 
ENDBRANCH  32  33
ENDBRANCH  31  32
ENDBRANCH  26  31
ENDBRANCH  24  25
ENDBRANCH   2  23
TORSDOF 10
ENDMDL
MODEL 9
REMARK VINA RESULT:      -7.6      3.725      9.442
REMARK  10 active torsions:
REMARK  status: ('A' for Active; 'I' for Inactive)
REMARK    1  A    between atoms: N_2  and  C_4 
REMARK    2  A    between atoms: C_4  and  C_5 
REMARK    3  A    between atoms: N_6  and  C_7 
REMARK    4  A    between atoms: C_11  and  N_12 
REMARK    5  A    between atoms: C_15  and  C_16 
REMARK       I    between atoms: C_16  and  N_17 
REMARK    6  A    between atoms: N_17  and  N_18 
REMARK    7  A    between atoms: C_19  and  C_20 
REMARK    8  A    between atoms: C_21  and  O_22 
REMARK    9  A    between atoms: O_22  and  C_23 
REMARK   10  A    between atoms: C_23  and  C_24 
ROOT
HETATM    1  C   UNL     1     -43.068  58.094 -55.656  1.00  0.00     0.293 C 
HETATM    2  N   UNL     1     -42.087  59.062 -55.780  1.00  0.00    -0.242 N 
HETATM    3  O   UNL     1     -43.730  57.634 -56.585  1.00  0.00    -0.264 OA
HETATM    4  H   UNL     1     -41.505  59.328 -54.989  1.00  0.00     0.192 HD
ENDROOT
BRANCH   1   5
HETATM    5  C   UNL     1     -43.237  57.563 -54.313  1.00  0.00     0.170 A 
HETATM    6  C   UNL     1     -42.391  56.674 -53.664  1.00  0.00     0.096 A 
HETATM    7  N   UNL     1     -42.947  56.534 -52.395  1.00  0.00    -0.215 N 
HETATM    8  N   UNL     1     -44.107  57.240 -52.347  1.00  0.00     0.012 NA
HETATM    9  N   UNL     1     -44.270  57.892 -53.487  1.00  0.00    -0.152 NA
BRANCH   6  10
HETATM   10  C   UNL     1     -41.206  55.939 -54.170  1.00  0.00     0.295 C 
BRANCH  10  11
HETATM   11  N   UNL     1     -41.405  54.450 -54.330  1.00  0.00    -0.073 N 
HETATM   12  C   UNL     1     -40.215  53.742 -54.920  1.00  0.00     0.269 C 
HETATM   13  H   UNL     1     -41.579  54.068 -53.390  1.00  0.00     0.279 HD
HETATM   14  C   UNL     1     -42.646  54.155 -55.129  1.00  0.00     0.269 C 
ENDBRANCH  10  11
ENDBRANCH   6  10
BRANCH   7  15
HETATM   15  C   UNL     1     -42.428  55.845 -51.274  1.00  0.00     0.225 A 
HETATM   16  N   UNL     1     -42.589  54.523 -51.170  1.00  0.00    -0.081 NA
HETATM   17  O   UNL     1     -41.943  54.206 -49.970  1.00  0.00    -0.103 OA
HETATM   18  N   UNL     1     -41.381  55.333 -49.389  1.00  0.00    -0.083 NA
HETATM   19  C   UNL     1     -41.679  56.350 -50.198  1.00  0.00     0.201 A 
BRANCH  19  20
HETATM   20  N   UNL     1     -41.317  57.624 -49.985  1.00  0.00    -0.379 N 
HETATM   21  H   UNL     1     -40.417  57.840 -49.563  1.00  0.00     0.158 HD
HETATM   22  H   UNL     1     -41.817  58.429 -50.358  1.00  0.00     0.158 HD
ENDBRANCH  19  20
ENDBRANCH   7  15
ENDBRANCH   1   5
BRANCH   2  23
HETATM   23  N   UNL     1     -41.833  59.544 -57.021  1.00  0.00    -0.183 NA
HETATM   24  C   UNL     1     -41.946  60.814 -57.215  1.00  0.00     0.153 C 
BRANCH  24  25
HETATM   25  C   UNL     1     -41.665  61.392 -58.541  1.00  0.00     0.016 A 
HETATM   26  C   UNL     1     -42.503  61.297 -59.667  1.00  0.00     0.080 A 
HETATM   27  C   UNL     1     -42.074  61.876 -60.871  1.00  0.00     0.037 A 
HETATM   28  C   UNL     1     -40.855  62.554 -60.954  1.00  0.00     0.003 A 
HETATM   29  C   UNL     1     -40.031  62.640 -59.837  1.00  0.00     0.001 A 
HETATM   30  C   UNL     1     -40.430  62.055 -58.635  1.00  0.00     0.016 A 
BRANCH  26  31
HETATM   31  O   UNL     1     -43.651  60.561 -59.805  1.00  0.00    -0.346 OA
BRANCH  31  32
HETATM   32  C   UNL     1     -43.709  59.669 -60.916  1.00  0.00     0.219 C 
BRANCH  32  33
HETATM   33  C   UNL     1     -43.735  58.245 -60.425  1.00  0.00     0.026 A 
HETATM   34  C   UNL     1     -44.919  57.550 -60.147  1.00  0.00     0.045 A 
HETATM   35 CL   UNL     1     -46.474  58.274 -60.353  1.00  0.00    -0.084 Cl
HETATM   36  C   UNL     1     -44.879  56.233 -59.670  1.00  0.00     0.024 A 
HETATM   37  C   UNL     1     -43.657  55.585 -59.482  1.00  0.00     0.005 A 
HETATM   38  C   UNL     1     -42.474  56.256 -59.768  1.00  0.00     0.043 A 
HETATM   39  C   UNL     1     -42.522  57.570 -60.231  1.00  0.00     0.126 A 
HETATM   40  F   UNL     1     -41.360  58.202 -60.455  1.00  0.00    -0.205 F 
ENDBRANCH  32  33
ENDBRANCH  31  32
ENDBRANCH  26  31
ENDBRANCH  24  25
ENDBRANCH   2  23
TORSDOF 10
ENDMDL
MODEL 10
REMARK VINA RESULT:      -7.4      3.964      8.866
REMARK  10 active torsions:
REMARK  status: ('A' for Active; 'I' for Inactive)
REMARK    1  A    between atoms: N_2  and  C_4 
REMARK    2  A    between atoms: C_4  and  C_5 
REMARK    3  A    between atoms: N_6  and  C_7 
REMARK    4  A    between atoms: C_11  and  N_12 
REMARK    5  A    between atoms: C_15  and  C_16 
REMARK       I    between atoms: C_16  and  N_17 
REMARK    6  A    between atoms: N_17  and  N_18 
REMARK    7  A    between atoms: C_19  and  C_20 
REMARK    8  A    between atoms: C_21  and  O_22 
REMARK    9  A    between atoms: O_22  and  C_23 
REMARK   10  A    between atoms: C_23  and  C_24 
ROOT
HETATM    1  C   UNL     1     -41.496  55.689 -51.502  1.00  0.00     0.293 C 
HETATM    2  N   UNL     1     -42.854  55.711 -51.769  1.00  0.00    -0.242 N 
HETATM    3  O   UNL     1     -40.824  56.664 -51.171  1.00  0.00    -0.264 OA
HETATM    4  H   UNL     1     -43.372  54.853 -51.941  1.00  0.00     0.192 HD
ENDROOT
BRANCH   1   5
HETATM    5  C   UNL     1     -40.882  54.372 -51.565  1.00  0.00     0.170 A 
HETATM    6  C   UNL     1     -41.079  53.416 -52.550  1.00  0.00     0.096 A 
HETATM    7  N   UNL     1     -40.226  52.374 -52.195  1.00  0.00    -0.215 N 
HETATM    8  N   UNL     1     -39.633  52.682 -51.011  1.00  0.00     0.012 NA
HETATM    9  N   UNL     1     -39.996  53.900 -50.644  1.00  0.00    -0.152 NA
BRANCH   6  10
HETATM   10  C   UNL     1     -42.024  53.401 -53.694  1.00  0.00     0.295 C 
BRANCH  10  11
HETATM   11  N   UNL     1     -41.483  54.001 -54.970  1.00  0.00    -0.073 N 
HETATM   12  C   UNL     1     -40.134  54.649 -54.810  1.00  0.00     0.269 C 
HETATM   13  H   UNL     1     -41.397  53.233 -55.650  1.00  0.00     0.279 HD
HETATM   14  C   UNL     1     -42.467  54.971 -55.569  1.00  0.00     0.269 C 
ENDBRANCH  10  11
ENDBRANCH   6  10
BRANCH   7  15
HETATM   15  C   UNL     1     -39.924  51.194 -52.915  1.00  0.00     0.225 A 
HETATM   16  N   UNL     1     -39.849  51.228 -54.248  1.00  0.00    -0.081 NA
HETATM   17  O   UNL     1     -39.523  49.911 -54.592  1.00  0.00    -0.103 OA
HETATM   18  N   UNL     1     -39.378  49.119 -53.464  1.00  0.00    -0.083 NA
HETATM   19  C   UNL     1     -39.624  49.913 -52.423  1.00  0.00     0.201 A 
BRANCH  19  20
HETATM   20  N   UNL     1     -39.591  49.521 -51.140  1.00  0.00    -0.379 N 
HETATM   21  H   UNL     1     -39.917  50.142 -50.404  1.00  0.00     0.158 HD
HETATM   22  H   UNL     1     -39.398  48.567 -50.841  1.00  0.00     0.158 HD
ENDBRANCH  19  20
ENDBRANCH   7  15
ENDBRANCH   1   5
BRANCH   2  23
HETATM   23  N   UNL     1     -43.497  56.898 -51.656  1.00  0.00    -0.183 NA
HETATM   24  C   UNL     1     -43.823  57.519 -52.739  1.00  0.00     0.153 C 
BRANCH  24  25
HETATM   25  C   UNL     1     -44.538  58.806 -52.672  1.00  0.00     0.016 A 
HETATM   26  C   UNL     1     -44.326  59.904 -53.526  1.00  0.00     0.080 A 
HETATM   27  C   UNL     1     -45.069  61.073 -53.309  1.00  0.00     0.037 A 
HETATM   28  C   UNL     1     -46.018  61.149 -52.286  1.00  0.00     0.003 A 
HETATM   29  C   UNL     1     -46.219  60.060 -51.444  1.00  0.00     0.001 A 
HETATM   30  C   UNL     1     -45.477  58.894 -51.630  1.00  0.00     0.016 A 
BRANCH  26  31
HETATM   31  O   UNL     1     -43.352  60.055 -54.479  1.00  0.00    -0.346 OA
BRANCH  31  32
HETATM   32  C   UNL     1     -43.785  60.464 -55.775  1.00  0.00     0.219 C 
BRANCH  32  33
HETATM   33  C   UNL     1     -43.467  59.387 -56.780  1.00  0.00     0.026 A 
HETATM   34  C   UNL     1     -44.305  58.292 -57.023  1.00  0.00     0.045 A 
HETATM   35 CL   UNL     1     -45.801  58.081 -56.184  1.00  0.00    -0.084 Cl
HETATM   36  C   UNL     1     -43.944  57.309 -57.955  1.00  0.00     0.024 A 
HETATM   37  C   UNL     1     -42.751  57.415 -58.670  1.00  0.00     0.005 A 
HETATM   38  C   UNL     1     -41.916  58.505 -58.451  1.00  0.00     0.043 A 
HETATM   39  C   UNL     1     -42.277  59.472 -57.514  1.00  0.00     0.126 A 
HETATM   40  F   UNL     1     -41.426  60.487 -57.297  1.00  0.00    -0.205 F 
ENDBRANCH  32  33
ENDBRANCH  31  32
ENDBRANCH  26  31
ENDBRANCH  24  25
ENDBRANCH   2  23
TORSDOF 10
ENDMDL
