MODEL 1
REMARK VINA RESULT:      -7.5      0.000      0.000
REMARK  2 active torsions:
REMARK  status: ('A' for Active; 'I' for Inactive)
REMARK    1  A    between atoms: C_8  and  S_9 
REMARK    2  A    between atoms: S_9  and  C_10 
ROOT
HETATM    1  C   UNL     1     -39.491  50.164 -54.053  1.00  0.00     0.002 A 
HETATM    2  C   UNL     1     -39.894  51.496 -53.953  1.00  0.00     0.034 A 
HETATM    3  C   UNL     1     -40.126  52.088 -52.718  1.00  0.00     0.087 A 
HETATM    4  C   UNL     1     -39.944  51.320 -51.537  1.00  0.00     0.087 A 
HETATM    5  N   UNL     1     -40.156  51.849 -50.318  1.00  0.00    -0.232 NA
HETATM    6  C   UNL     1     -40.515  53.152 -50.268  1.00  0.00     0.164 A 
HETATM    7 CL   UNL     1     -40.826  53.709 -48.678  1.00  0.00    -0.059 Cl
HETATM    8  C   UNL     1     -40.692  53.898 -51.419  1.00  0.00     0.165 A 
HETATM    9  N   UNL     1     -40.523  53.376 -52.662  1.00  0.00    -0.234 NA
HETATM   10  C   UNL     1     -39.546  49.994 -51.652  1.00  0.00     0.034 A 
HETATM   11  C   UNL     1     -39.318  49.411 -52.899  1.00  0.00     0.002 A 
ENDROOT
BRANCH   8  12
HETATM   12  S   UNL     1     -41.196  55.601 -51.560  1.00  0.00     0.076 S 
HETATM   13  O   UNL     1     -40.653  56.355 -50.388  1.00  0.00    -0.251 OA
BRANCH  12  14
HETATM   14  C   UNL     1     -43.000  55.388 -51.276  1.00  0.00     0.089 C 
HETATM   15  C   UNL     1     -43.605  54.365 -52.244  1.00  0.00     0.045 C 
HETATM   16  C   UNL     1     -43.636  54.864 -53.683  1.00  0.00     0.233 C 
HETATM   17  N   UNL     1     -44.331  56.184 -53.736  1.00  0.00    -0.075 N 
HETATM   18  H   UNL     1     -45.328  56.065 -53.504  1.00  0.00     0.277 HD
HETATM   19  H   UNL     1     -44.323  56.523 -54.711  1.00  0.00     0.277 HD
HETATM   20  C   UNL     1     -43.735  57.239 -52.862  1.00  0.00     0.233 C 
HETATM   21  C   UNL     1     -43.711  56.742 -51.424  1.00  0.00     0.045 C 
ENDBRANCH  12  14
ENDBRANCH   8  12
TORSDOF 2
ENDMDL
MODEL 2
REMARK VINA RESULT:      -7.3      1.756      2.324
REMARK  2 active torsions:
REMARK  status: ('A' for Active; 'I' for Inactive)
REMARK    1  A    between atoms: C_8  and  S_9 
REMARK    2  A    between atoms: S_9  and  C_10 
ROOT
HETATM    1  C   UNL     1     -39.582  49.702 -51.294  1.00  0.00     0.002 A 
HETATM    2  C   UNL     1     -40.005  50.981 -50.935  1.00  0.00     0.034 A 
HETATM    3  C   UNL     1     -40.165  51.981 -51.885  1.00  0.00     0.087 A 
HETATM    4  C   UNL     1     -39.894  51.691 -53.248  1.00  0.00     0.087 A 
HETATM    5  N   UNL     1     -40.034  52.627 -54.205  1.00  0.00    -0.232 NA
HETATM    6  C   UNL     1     -40.477  53.843 -53.814  1.00  0.00     0.164 A 
HETATM    7 CL   UNL     1     -40.556  54.979 -55.095  1.00  0.00    -0.059 Cl
HETATM    8  C   UNL     1     -40.740  54.125 -52.486  1.00  0.00     0.165 A 
HETATM    9  N   UNL     1     -40.568  53.209 -51.497  1.00  0.00    -0.234 NA
HETATM   10  C   UNL     1     -39.470  50.413 -53.591  1.00  0.00     0.034 A 
HETATM   11  C   UNL     1     -39.311  49.418 -52.627  1.00  0.00     0.002 A 
ENDROOT
BRANCH   8  12
HETATM   12  S   UNL     1     -41.287  55.664 -51.775  1.00  0.00     0.076 S 
HETATM   13  O   UNL     1     -40.675  55.803 -50.417  1.00  0.00    -0.251 OA
BRANCH  12  14
HETATM   14  C   UNL     1     -43.061  55.247 -51.528  1.00  0.00     0.089 C 
HETATM   15  C   UNL     1     -43.694  54.696 -52.810  1.00  0.00     0.045 C 
HETATM   16  C   UNL     1     -43.835  55.754 -53.897  1.00  0.00     0.233 C 
HETATM   17  N   UNL     1     -44.575  56.930 -53.353  1.00  0.00    -0.075 N 
HETATM   18  H   UNL     1     -45.550  56.667 -53.149  1.00  0.00     0.277 HD
HETATM   19  H   UNL     1     -44.642  57.649 -54.090  1.00  0.00     0.277 HD
HETATM   20  C   UNL     1     -43.958  57.549 -52.141  1.00  0.00     0.233 C 
HETATM   21  C   UNL     1     -43.824  56.493 -51.053  1.00  0.00     0.045 C 
ENDBRANCH  12  14
ENDBRANCH   8  12
TORSDOF 2
ENDMDL
MODEL 3
REMARK VINA RESULT:      -7.3      2.422      2.922
REMARK  2 active torsions:
REMARK  status: ('A' for Active; 'I' for Inactive)
REMARK    1  A    between atoms: C_8  and  S_9 
REMARK    2  A    between atoms: S_9  and  C_10 
ROOT
HETATM    1  C   UNL     1     -40.179  51.783 -54.342  1.00  0.00     0.002 A 
HETATM    2  C   UNL     1     -40.880  52.941 -54.007  1.00  0.00     0.034 A 
HETATM    3  C   UNL     1     -40.899  53.421 -52.704  1.00  0.00     0.087 A 
HETATM    4  C   UNL     1     -40.185  52.719 -51.697  1.00  0.00     0.087 A 
HETATM    5  N   UNL     1     -40.174  53.145 -50.420  1.00  0.00    -0.232 NA
HETATM    6  C   UNL     1     -40.841  54.289 -50.148  1.00  0.00     0.164 A 
HETATM    7 CL   UNL     1     -40.821  54.707 -48.487  1.00  0.00    -0.059 Cl
HETATM    8  C   UNL     1     -41.536  54.972 -51.130  1.00  0.00     0.165 A 
HETATM    9  N   UNL     1     -41.596  54.541 -52.417  1.00  0.00    -0.234 NA
HETATM   10  C   UNL     1     -39.494  51.565 -52.044  1.00  0.00     0.034 A 
HETATM   11  C   UNL     1     -39.485  51.092 -53.357  1.00  0.00     0.002 A 
ENDROOT
BRANCH   8  12
HETATM   12  S   UNL     1     -42.500  56.461 -50.963  1.00  0.00     0.076 S 
HETATM   13  O   UNL     1     -43.751  56.308 -51.769  1.00  0.00    -0.251 OA
BRANCH  12  14
HETATM   14  C   UNL     1     -41.402  57.614 -51.882  1.00  0.00     0.089 C 
HETATM   15  C   UNL     1     -40.363  58.258 -50.958  1.00  0.00     0.045 C 
HETATM   16  C   UNL     1     -40.982  59.237 -49.969  1.00  0.00     0.233 C 
HETATM   17  N   UNL     1     -41.792  60.247 -50.710  1.00  0.00    -0.075 N 
HETATM   18  H   UNL     1     -41.174  60.843 -51.279  1.00  0.00     0.277 HD
HETATM   19  H   UNL     1     -42.226  60.888 -50.028  1.00  0.00     0.277 HD
HETATM   20  C   UNL     1     -42.869  59.672 -51.572  1.00  0.00     0.233 C 
HETATM   21  C   UNL     1     -42.249  58.700 -52.565  1.00  0.00     0.045 C 
ENDBRANCH  12  14
ENDBRANCH   8  12
TORSDOF 2
ENDMDL
MODEL 4
REMARK VINA RESULT:      -6.9      3.016      3.897
REMARK  2 active torsions:
REMARK  status: ('A' for Active; 'I' for Inactive)
REMARK    1  A    between atoms: C_8  and  S_9 
REMARK    2  A    between atoms: S_9  and  C_10 
ROOT
HETATM    1  C   UNL     1     -39.448  51.659 -52.320  1.00  0.00     0.002 A 
HETATM    2  C   UNL     1     -39.966  52.784 -51.678  1.00  0.00     0.034 A 
HETATM    3  C   UNL     1     -40.921  53.586 -52.288  1.00  0.00     0.087 A 
HETATM    4  C   UNL     1     -41.380  53.250 -53.588  1.00  0.00     0.087 A 
HETATM    5  N   UNL     1     -42.305  53.997 -54.221  1.00  0.00    -0.232 NA
HETATM    6  C   UNL     1     -42.801  55.059 -53.547  1.00  0.00     0.164 A 
HETATM    7 CL   UNL     1     -43.918  55.980 -54.463  1.00  0.00    -0.059 Cl
HETATM    8  C   UNL     1     -42.353  55.386 -52.280  1.00  0.00     0.165 A 
HETATM    9  N   UNL     1     -41.392  54.671 -51.638  1.00  0.00    -0.234 NA
HETATM   10  C   UNL     1     -40.853  52.129 -54.217  1.00  0.00     0.034 A 
HETATM   11  C   UNL     1     -39.892  51.332 -53.595  1.00  0.00     0.002 A 
ENDROOT
BRANCH   8  12
HETATM   12  S   UNL     1     -42.850  56.756 -51.257  1.00  0.00     0.076 S 
HETATM   13  O   UNL     1     -44.345  56.814 -51.236  1.00  0.00    -0.251 OA
BRANCH  12  14
HETATM   14  C   UNL     1     -42.271  58.135 -52.326  1.00  0.00     0.089 C 
HETATM   15  C   UNL     1     -40.743  58.260 -52.305  1.00  0.00     0.045 C 
HETATM   16  C   UNL     1     -40.212  58.745 -50.962  1.00  0.00     0.233 C 
HETATM   17  N   UNL     1     -40.895  60.017 -50.587  1.00  0.00    -0.075 N 
HETATM   18  H   UNL     1     -40.620  60.768 -51.237  1.00  0.00     0.277 HD
HETATM   19  H   UNL     1     -40.545  60.322 -49.666  1.00  0.00     0.277 HD
HETATM   20  C   UNL     1     -42.386  59.930 -50.524  1.00  0.00     0.233 C 
HETATM   21  C   UNL     1     -42.916  59.452 -51.868  1.00  0.00     0.045 C 
ENDBRANCH  12  14
ENDBRANCH   8  12
TORSDOF 2
ENDMDL
MODEL 5
REMARK VINA RESULT:      -6.9      2.780      3.570
REMARK  2 active torsions:
REMARK  status: ('A' for Active; 'I' for Inactive)
REMARK    1  A    between atoms: C_8  and  S_9 
REMARK    2  A    between atoms: S_9  and  C_10 
ROOT
HETATM    1  C   UNL     1     -39.507  51.660 -51.813  1.00  0.00     0.002 A 
HETATM    2  C   UNL     1     -39.961  52.976 -51.720  1.00  0.00     0.034 A 
HETATM    3  C   UNL     1     -40.564  53.609 -52.799  1.00  0.00     0.087 A 
HETATM    4  C   UNL     1     -40.724  52.898 -54.017  1.00  0.00     0.087 A 
HETATM    5  N   UNL     1     -41.303  53.468 -55.091  1.00  0.00    -0.232 NA
HETATM    6  C   UNL     1     -41.755  54.734 -54.944  1.00  0.00     0.164 A 
HETATM    7 CL   UNL     1     -42.411  55.389 -56.385  1.00  0.00    -0.059 Cl
HETATM    8  C   UNL     1     -41.598  55.425 -53.757  1.00  0.00     0.165 A 
HETATM    9  N   UNL     1     -40.982  54.886 -52.673  1.00  0.00    -0.234 NA
HETATM   10  C   UNL     1     -40.265  51.589 -54.097  1.00  0.00     0.034 A 
HETATM   11  C   UNL     1     -39.659  50.965 -53.006  1.00  0.00     0.002 A 
ENDROOT
BRANCH   8  12
HETATM   12  S   UNL     1     -42.086  57.098 -53.385  1.00  0.00     0.076 S 
HETATM   13  O   UNL     1     -40.932  58.004 -53.675  1.00  0.00    -0.251 OA
BRANCH  12  14
HETATM   14  C   UNL     1     -42.215  56.955 -51.556  1.00  0.00     0.089 C 
HETATM   15  C   UNL     1     -43.639  56.592 -51.120  1.00  0.00     0.045 C 
HETATM   16  C   UNL     1     -44.632  57.722 -51.353  1.00  0.00     0.233 C 
HETATM   17  N   UNL     1     -44.133  58.966 -50.697  1.00  0.00    -0.075 N 
HETATM   18  H   UNL     1     -44.140  58.850 -49.674  1.00  0.00     0.277 HD
HETATM   19  H   UNL     1     -44.801  59.730 -50.883  1.00  0.00     0.277 HD
HETATM   20  C   UNL     1     -42.775  59.404 -51.143  1.00  0.00     0.233 C 
HETATM   21  C   UNL     1     -41.782  58.276 -50.902  1.00  0.00     0.045 C 
ENDBRANCH  12  14
ENDBRANCH   8  12
TORSDOF 2
ENDMDL
MODEL 6
REMARK VINA RESULT:      -6.8      1.852      2.373
REMARK  2 active torsions:
REMARK  status: ('A' for Active; 'I' for Inactive)
REMARK    1  A    between atoms: C_8  and  S_9 
REMARK    2  A    between atoms: S_9  and  C_10 
ROOT
HETATM    1  C   UNL     1     -40.145  51.379 -54.240  1.00  0.00     0.002 A 
HETATM    2  C   UNL     1     -40.843  52.585 -54.198  1.00  0.00     0.034 A 
HETATM    3  C   UNL     1     -40.946  53.317 -53.022  1.00  0.00     0.087 A 
HETATM    4  C   UNL     1     -40.323  52.827 -51.845  1.00  0.00     0.087 A 
HETATM    5  N   UNL     1     -40.395  53.501 -50.681  1.00  0.00    -0.232 NA
HETATM    6  C   UNL     1     -41.055  54.681 -50.695  1.00  0.00     0.164 A 
HETATM    7 CL   UNL     1     -41.147  55.424 -49.154  1.00  0.00    -0.059 Cl
HETATM    8  C   UNL     1     -41.662  55.157 -51.843  1.00  0.00     0.165 A 
HETATM    9  N   UNL     1     -41.638  54.476 -53.019  1.00  0.00    -0.234 NA
HETATM   10  C   UNL     1     -39.634  51.623 -51.901  1.00  0.00     0.034 A 
HETATM   11  C   UNL     1     -39.539  50.895 -53.087  1.00  0.00     0.002 A 
ENDROOT
BRANCH   8  12
HETATM   12  S   UNL     1     -42.603  56.655 -52.051  1.00  0.00     0.076 S 
HETATM   13  O   UNL     1     -43.886  56.519 -51.293  1.00  0.00    -0.251 OA
BRANCH  12  14
HETATM   14  C   UNL     1     -43.010  56.490 -53.836  1.00  0.00     0.089 C 
HETATM   15  C   UNL     1     -42.097  57.362 -54.705  1.00  0.00     0.045 C 
HETATM   16  C   UNL     1     -42.360  58.851 -54.525  1.00  0.00     0.233 C 
HETATM   17  N   UNL     1     -43.808  59.131 -54.757  1.00  0.00    -0.075 N 
HETATM   18  H   UNL     1     -44.043  58.965 -55.746  1.00  0.00     0.277 HD
HETATM   19  H   UNL     1     -43.978  60.138 -54.608  1.00  0.00     0.277 HD
HETATM   20  C   UNL     1     -44.741  58.357 -53.883  1.00  0.00     0.233 C 
HETATM   21  C   UNL     1     -44.481  56.869 -54.069  1.00  0.00     0.045 C 
ENDBRANCH  12  14
ENDBRANCH   8  12
TORSDOF 2
ENDMDL
MODEL 7
REMARK VINA RESULT:      -6.7      2.009      2.474
REMARK  2 active torsions:
REMARK  status: ('A' for Active; 'I' for Inactive)
REMARK    1  A    between atoms: C_8  and  S_9 
REMARK    2  A    between atoms: S_9  and  C_10 
ROOT
HETATM    1  C   UNL     1     -39.860  51.547 -54.070  1.00  0.00     0.002 A 
HETATM    2  C   UNL     1     -40.391  52.799 -54.376  1.00  0.00     0.034 A 
HETATM    3  C   UNL     1     -40.661  53.731 -53.382  1.00  0.00     0.087 A 
HETATM    4  C   UNL     1     -40.385  53.399 -52.030  1.00  0.00     0.087 A 
HETATM    5  N   UNL     1     -40.630  54.268 -51.031  1.00  0.00    -0.232 NA
HETATM    6  C   UNL     1     -41.115  55.482 -51.378  1.00  0.00     0.164 A 
HETATM    7 CL   UNL     1     -41.455  56.486 -50.032  1.00  0.00    -0.059 Cl
HETATM    8  C   UNL     1     -41.384  55.803 -52.696  1.00  0.00     0.165 A 
HETATM    9  N   UNL     1     -41.183  54.929 -53.717  1.00  0.00    -0.234 NA
HETATM   10  C   UNL     1     -39.859  52.147 -51.738  1.00  0.00     0.034 A 
HETATM   11  C   UNL     1     -39.594  51.219 -52.746  1.00  0.00     0.002 A 
ENDROOT
BRANCH   8  12
HETATM   12  S   UNL     1     -42.057  57.320 -53.344  1.00  0.00     0.076 S 
HETATM   13  O   UNL     1     -41.601  58.450 -52.476  1.00  0.00    -0.251 OA
BRANCH  12  14
HETATM   14  C   UNL     1     -43.832  57.028 -52.963  1.00  0.00     0.089 C 
HETATM   15  C   UNL     1     -44.602  56.551 -54.200  1.00  0.00     0.045 C 
HETATM   16  C   UNL     1     -44.748  57.638 -55.257  1.00  0.00     0.233 C 
HETATM   17  N   UNL     1     -45.354  58.854 -54.640  1.00  0.00    -0.075 N 
HETATM   18  H   UNL     1     -46.327  58.658 -54.363  1.00  0.00     0.277 HD
HETATM   19  H   UNL     1     -45.425  59.590 -55.359  1.00  0.00     0.277 HD
HETATM   20  C   UNL     1     -44.601  59.402 -53.471  1.00  0.00     0.233 C 
HETATM   21  C   UNL     1     -44.462  58.317 -52.413  1.00  0.00     0.045 C 
ENDBRANCH  12  14
ENDBRANCH   8  12
TORSDOF 2
ENDMDL
MODEL 8
REMARK VINA RESULT:      -6.6     13.791     15.552
REMARK  2 active torsions:
REMARK  status: ('A' for Active; 'I' for Inactive)
REMARK    1  A    between atoms: C_8  and  S_9 
REMARK    2  A    between atoms: S_9  and  C_10 
ROOT
HETATM    1  C   UNL     1     -33.881  39.991 -50.253  1.00  0.00     0.002 A 
HETATM    2  C   UNL     1     -34.561  39.849 -51.463  1.00  0.00     0.034 A 
HETATM    3  C   UNL     1     -33.893  39.920 -52.678  1.00  0.00     0.087 A 
HETATM    4  C   UNL     1     -32.490  40.138 -52.686  1.00  0.00     0.087 A 
HETATM    5  N   UNL     1     -31.799  40.215 -53.839  1.00  0.00    -0.232 NA
HETATM    6  C   UNL     1     -32.495  40.039 -54.984  1.00  0.00     0.164 A 
HETATM    7 CL   UNL     1     -31.538  40.223 -56.393  1.00  0.00    -0.059 Cl
HETATM    8  C   UNL     1     -33.862  39.828 -54.976  1.00  0.00     0.165 A 
HETATM    9  N   UNL     1     -34.588  39.786 -53.827  1.00  0.00    -0.234 NA
HETATM   10  C   UNL     1     -31.826  40.281 -51.474  1.00  0.00     0.034 A 
HETATM   11  C   UNL     1     -32.509  40.210 -50.260  1.00  0.00     0.002 A 
ENDROOT
BRANCH   8  12
HETATM   12  S   UNL     1     -34.952  39.616 -56.369  1.00  0.00     0.076 S 
HETATM   13  O   UNL     1     -34.254  38.779 -57.394  1.00  0.00    -0.251 OA
BRANCH  12  14
HETATM   14  C   UNL     1     -34.953  41.346 -56.994  1.00  0.00     0.089 C 
HETATM   15  C   UNL     1     -35.104  42.357 -55.852  1.00  0.00     0.045 C 
HETATM   16  C   UNL     1     -36.486  42.321 -55.213  1.00  0.00     0.233 C 
HETATM   17  N   UNL     1     -37.526  42.492 -56.270  1.00  0.00    -0.075 N 
HETATM   18  H   UNL     1     -37.471  43.441 -56.666  1.00  0.00     0.277 HD
HETATM   19  H   UNL     1     -38.457  42.441 -55.829  1.00  0.00     0.277 HD
HETATM   20  C   UNL     1     -37.467  41.485 -57.373  1.00  0.00     0.233 C 
HETATM   21  C   UNL     1     -36.087  41.526 -58.014  1.00  0.00     0.045 C 
ENDBRANCH  12  14
ENDBRANCH   8  12
TORSDOF 2
ENDMDL
MODEL 9
REMARK VINA RESULT:      -6.4      4.258      6.993
REMARK  2 active torsions:
REMARK  status: ('A' for Active; 'I' for Inactive)
REMARK    1  A    between atoms: C_8  and  S_9 
REMARK    2  A    between atoms: S_9  and  C_10 
ROOT
HETATM    1  C   UNL     1     -43.769  55.873 -60.253  1.00  0.00     0.002 A 
HETATM    2  C   UNL     1     -43.655  55.185 -59.045  1.00  0.00     0.034 A 
HETATM    3  C   UNL     1     -43.216  55.820 -57.891  1.00  0.00     0.087 A 
HETATM    4  C   UNL     1     -42.881  57.199 -57.945  1.00  0.00     0.087 A 
HETATM    5  N   UNL     1     -42.450  57.859 -56.854  1.00  0.00    -0.232 NA
HETATM    6  C   UNL     1     -42.386  57.159 -55.699  1.00  0.00     0.164 A 
HETATM    7 CL   UNL     1     -41.764  58.070 -54.388  1.00  0.00    -0.059 Cl
HETATM    8  C   UNL     1     -42.713  55.816 -55.648  1.00  0.00     0.165 A 
HETATM    9  N   UNL     1     -43.112  55.118 -56.744  1.00  0.00    -0.234 NA
HETATM   10  C   UNL     1     -42.995  57.871 -59.156  1.00  0.00     0.034 A 
HETATM   11  C   UNL     1     -43.435  57.221 -60.308  1.00  0.00     0.002 A 
ENDROOT
BRANCH   8  12
HETATM   12  S   UNL     1     -42.656  54.722 -54.243  1.00  0.00     0.076 S 
HETATM   13  O   UNL     1     -43.347  55.387 -53.095  1.00  0.00    -0.251 OA
BRANCH  12  14
HETATM   14  C   UNL     1     -40.850  54.793 -53.901  1.00  0.00     0.089 C 
HETATM   15  C   UNL     1     -40.075  53.789 -54.761  1.00  0.00     0.045 C 
HETATM   16  C   UNL     1     -40.347  52.343 -54.367  1.00  0.00     0.233 C 
HETATM   17  N   UNL     1     -40.086  52.168 -52.908  1.00  0.00    -0.075 N 
HETATM   18  H   UNL     1     -39.081  52.282 -52.716  1.00  0.00     0.277 HD
HETATM   19  H   UNL     1     -40.298  51.192 -52.649  1.00  0.00     0.277 HD
HETATM   20  C   UNL     1     -40.873  53.077 -52.020  1.00  0.00     0.233 C 
HETATM   21  C   UNL     1     -40.595  54.521 -52.410  1.00  0.00     0.045 C 
ENDBRANCH  12  14
ENDBRANCH   8  12
TORSDOF 2
ENDMDL
MODEL 10
REMARK VINA RESULT:      -6.4      2.428      6.864
REMARK  2 active torsions:
REMARK  status: ('A' for Active; 'I' for Inactive)
REMARK    1  A    between atoms: C_8  and  S_9 
REMARK    2  A    between atoms: S_9  and  C_10 
ROOT
HETATM    1  C   UNL     1     -44.997  59.574 -51.999  1.00  0.00     0.002 A 
HETATM    2  C   UNL     1     -44.428  58.382 -51.553  1.00  0.00     0.034 A 
HETATM    3  C   UNL     1     -44.140  57.346 -52.432  1.00  0.00     0.087 A 
HETATM    4  C   UNL     1     -44.427  57.511 -53.813  1.00  0.00     0.087 A 
HETATM    5  N   UNL     1     -44.165  56.537 -54.705  1.00  0.00    -0.232 NA
HETATM    6  C   UNL     1     -43.585  55.411 -54.231  1.00  0.00     0.164 A 
HETATM    7 CL   UNL     1     -43.357  54.210 -55.431  1.00  0.00    -0.059 Cl
HETATM    8  C   UNL     1     -43.307  55.252 -52.886  1.00  0.00     0.165 A 
HETATM    9  N   UNL     1     -43.598  56.204 -51.961  1.00  0.00    -0.234 NA
HETATM   10  C   UNL     1     -44.996  58.703 -54.243  1.00  0.00     0.034 A 
HETATM   11  C   UNL     1     -45.283  59.735 -53.349  1.00  0.00     0.002 A 
ENDROOT
BRANCH   8  12
HETATM   12  S   UNL     1     -42.589  53.840 -52.070  1.00  0.00     0.076 S 
HETATM   13  O   UNL     1     -42.774  54.000 -50.594  1.00  0.00    -0.251 OA
BRANCH  12  14
HETATM   14  C   UNL     1     -40.817  54.174 -52.432  1.00  0.00     0.089 C 
HETATM   15  C   UNL     1     -40.405  53.610 -53.796  1.00  0.00     0.045 C 
HETATM   16  C   UNL     1     -40.382  52.088 -53.820  1.00  0.00     0.233 C 
HETATM   17  N   UNL     1     -39.521  51.586 -52.710  1.00  0.00    -0.075 N 
HETATM   18  H   UNL     1     -38.538  51.842 -52.886  1.00  0.00     0.277 HD
HETATM   19  H   UNL     1     -39.533  50.554 -52.722  1.00  0.00     0.277 HD
HETATM   20  C   UNL     1     -39.925  52.050 -51.348  1.00  0.00     0.233 C 
HETATM   21  C   UNL     1     -39.940  53.572 -51.323  1.00  0.00     0.045 C 
ENDBRANCH  12  14
ENDBRANCH   8  12
TORSDOF 2
ENDMDL
