MODEL 1
REMARK VINA RESULT:      -9.0      0.000      0.000
REMARK  6 active torsions:
REMARK  status: ('A' for Active; 'I' for Inactive)
REMARK    1  A    between atoms: C_3  and  O_4 
REMARK    2  A    between atoms: O_4  and  C_5 
REMARK    3  A    between atoms: C_5  and  C_6 
REMARK       I    between atoms: C_6  and  N_7 
REMARK    4  A    between atoms: N_7  and  C_8 
REMARK    5  A    between atoms: C_15  and  C_16 
REMARK       I    between atoms: C_16  and  N_17 
REMARK    6  A    between atoms: C_23  and  C_24 
ROOT
HETATM    1  C   UNL     1     -41.895  55.515 -55.228  1.00  0.00     0.246 C 
HETATM    2  N   UNL     1     -41.797  56.492 -56.210  1.00  0.00    -0.325 N 
HETATM    3  O   UNL     1     -42.856  54.784 -55.021  1.00  0.00    -0.271 OA
HETATM    4  H   UNL     1     -40.896  56.944 -56.305  1.00  0.00     0.169 HD
ENDROOT
BRANCH   2   5
HETATM    5  C   UNL     1     -42.811  56.935 -57.087  1.00  0.00     0.035 A 
HETATM    6  C   UNL     1     -43.356  56.146 -58.110  1.00  0.00     0.046 A 
HETATM    7  C   UNL     1     -44.393  56.664 -58.918  1.00  0.00     0.030 A 
HETATM    8  C   UNL     1     -44.855  57.951 -58.672  1.00  0.00     0.063 A 
HETATM    9  C   UNL     1     -45.176  56.194 -60.015  1.00  0.00     0.156 A 
HETATM   10  N   UNL     1     -45.846  58.162 -59.590  1.00  0.00    -0.277 N 
HETATM   11  C   UNL     1     -44.335  58.767 -57.667  1.00  0.00     0.034 A 
HETATM   12  H   UNL     1     -46.411  58.996 -59.702  1.00  0.00     0.189 HD
HETATM   13  N   UNL     1     -46.066  57.129 -60.419  1.00  0.00    -0.168 NA
HETATM   14  C   UNL     1     -43.302  58.233 -56.885  1.00  0.00     0.032 A 
BRANCH   9  15
HETATM   15  C   UNL     1     -45.092  54.886 -60.682  1.00  0.00     0.270 C 
HETATM   16  N   UNL     1     -45.221  53.818 -59.837  1.00  0.00    -0.365 N 
HETATM   17  H   UNL     1     -45.365  53.995 -58.849  1.00  0.00     0.159 HD
HETATM   18  H   UNL     1     -45.188  52.882 -60.207  1.00  0.00     0.159 HD
HETATM   19  O   UNL     1     -44.925  54.722 -61.886  1.00  0.00    -0.266 OA
ENDBRANCH   9  15
ENDBRANCH   2   5
BRANCH   1  20
HETATM   20  C   UNL     1     -40.656  55.450 -54.335  1.00  0.00     0.278 C 
BRANCH  20  21
HETATM   21  O   UNL     1     -41.039  55.351 -52.968  1.00  0.00    -0.342 OA
BRANCH  21  22
HETATM   22  C   UNL     1     -40.646  54.189 -52.348  1.00  0.00     0.075 A 
HETATM   23  C   UNL     1     -40.665  54.178 -50.946  1.00  0.00    -0.029 A 
HETATM   24  C   UNL     1     -41.067  55.393 -50.160  1.00  0.00     0.051 C 
HETATM   25  C   UNL     1     -40.313  53.000 -50.269  1.00  0.00     0.010 A 
HETATM   26  C   UNL     1     -39.940  51.855 -50.976  1.00  0.00     0.008 A 
HETATM   27  C   UNL     1     -39.923  51.854 -52.376  1.00  0.00    -0.052 A 
HETATM   28  C   UNL     1     -40.284  53.033 -53.051  1.00  0.00     0.044 A 
BRANCH  27  29
HETATM   29  C   UNL     1     -39.513  50.600 -53.128  1.00  0.00     0.010 C 
HETATM   30  C   UNL     1     -39.620  49.345 -52.257  1.00  0.00     0.015 C 
HETATM   31  C   UNL     1     -40.328  50.440 -54.414  1.00  0.00     0.015 C 
ENDBRANCH  27  29
ENDBRANCH  21  22
ENDBRANCH  20  21
ENDBRANCH   1  20
TORSDOF 6
ENDMDL
MODEL 2
REMARK VINA RESULT:      -8.9      0.868      2.653
REMARK  6 active torsions:
REMARK  status: ('A' for Active; 'I' for Inactive)
REMARK    1  A    between atoms: C_3  and  O_4 
REMARK    2  A    between atoms: O_4  and  C_5 
REMARK    3  A    between atoms: C_5  and  C_6 
REMARK       I    between atoms: C_6  and  N_7 
REMARK    4  A    between atoms: N_7  and  C_8 
REMARK    5  A    between atoms: C_15  and  C_16 
REMARK       I    between atoms: C_16  and  N_17 
REMARK    6  A    between atoms: C_23  and  C_24 
ROOT
HETATM    1  C   UNL     1     -41.829  54.797 -55.396  1.00  0.00     0.246 C 
HETATM    2  N   UNL     1     -41.735  55.926 -56.199  1.00  0.00    -0.325 N 
HETATM    3  O   UNL     1     -42.763  54.004 -55.360  1.00  0.00    -0.271 OA
HETATM    4  H   UNL     1     -40.853  56.423 -56.172  1.00  0.00     0.169 HD
ENDROOT
BRANCH   2   5
HETATM    5  C   UNL     1     -42.731  56.468 -57.042  1.00  0.00     0.035 A 
HETATM    6  C   UNL     1     -43.313  55.769 -58.109  1.00  0.00     0.046 A 
HETATM    7  C   UNL     1     -44.327  56.382 -58.877  1.00  0.00     0.030 A 
HETATM    8  C   UNL     1     -44.729  57.671 -58.550  1.00  0.00     0.063 A 
HETATM    9  C   UNL     1     -45.132  56.017 -59.998  1.00  0.00     0.156 A 
HETATM   10  N   UNL     1     -45.712  57.983 -59.449  1.00  0.00    -0.277 N 
HETATM   11  C   UNL     1     -44.171  58.399 -57.499  1.00  0.00     0.034 A 
HETATM   12  H   UNL     1     -46.239  58.847 -59.506  1.00  0.00     0.189 HD
HETATM   13  N   UNL     1     -45.980  57.014 -60.339  1.00  0.00    -0.168 NA
HETATM   14  C   UNL     1     -43.162  57.772 -56.756  1.00  0.00     0.032 A 
BRANCH   9  15
HETATM   15  C   UNL     1     -45.110  54.750 -60.745  1.00  0.00     0.270 C 
HETATM   16  N   UNL     1     -45.109  53.635 -59.954  1.00  0.00    -0.365 N 
HETATM   17  H   UNL     1     -45.130  53.753 -58.947  1.00  0.00     0.159 HD
HETATM   18  H   UNL     1     -45.106  52.722 -60.379  1.00  0.00     0.159 HD
HETATM   19  O   UNL     1     -45.094  54.658 -61.968  1.00  0.00    -0.266 OA
ENDBRANCH   9  15
ENDBRANCH   2   5
BRANCH   1  20
HETATM   20  C   UNL     1     -40.629  54.634 -54.464  1.00  0.00     0.278 C 
BRANCH  20  21
HETATM   21  O   UNL     1     -40.340  53.254 -54.268  1.00  0.00    -0.342 OA
BRANCH  21  22
HETATM   22  C   UNL     1     -40.344  52.852 -52.954  1.00  0.00     0.075 A 
HETATM   23  C   UNL     1     -39.906  51.547 -52.686  1.00  0.00    -0.029 A 
HETATM   24  C   UNL     1     -39.482  50.623 -53.792  1.00  0.00     0.051 C 
HETATM   25  C   UNL     1     -39.851  51.105 -51.355  1.00  0.00     0.010 A 
HETATM   26  C   UNL     1     -40.234  51.946 -50.309  1.00  0.00     0.008 A 
HETATM   27  C   UNL     1     -40.668  53.252 -50.564  1.00  0.00    -0.052 A 
HETATM   28  C   UNL     1     -40.713  53.695 -51.897  1.00  0.00     0.044 A 
BRANCH  27  29
HETATM   29  C   UNL     1     -41.082  54.152 -49.413  1.00  0.00     0.010 C 
HETATM   30  C   UNL     1     -40.236  53.910 -48.160  1.00  0.00     0.015 C 
HETATM   31  C   UNL     1     -41.038  55.626 -49.824  1.00  0.00     0.015 C 
ENDBRANCH  27  29
ENDBRANCH  21  22
ENDBRANCH  20  21
ENDBRANCH   1  20
TORSDOF 6
ENDMDL
MODEL 3
REMARK VINA RESULT:      -8.6      1.704      2.597
REMARK  6 active torsions:
REMARK  status: ('A' for Active; 'I' for Inactive)
REMARK    1  A    between atoms: C_3  and  O_4 
REMARK    2  A    between atoms: O_4  and  C_5 
REMARK    3  A    between atoms: C_5  and  C_6 
REMARK       I    between atoms: C_6  and  N_7 
REMARK    4  A    between atoms: N_7  and  C_8 
REMARK    5  A    between atoms: C_15  and  C_16 
REMARK       I    between atoms: C_16  and  N_17 
REMARK    6  A    between atoms: C_23  and  C_24 
ROOT
HETATM    1  C   UNL     1     -42.260  55.072 -56.015  1.00  0.00     0.246 C 
HETATM    2  N   UNL     1     -42.167  55.978 -57.064  1.00  0.00    -0.325 N 
HETATM    3  O   UNL     1     -43.209  54.336 -55.770  1.00  0.00    -0.271 OA
HETATM    4  H   UNL     1     -41.275  56.443 -57.177  1.00  0.00     0.169 HD
ENDROOT
BRANCH   2   5
HETATM    5  C   UNL     1     -43.176  56.332 -57.986  1.00  0.00     0.035 A 
HETATM    6  C   UNL     1     -44.150  57.310 -57.739  1.00  0.00     0.046 A 
HETATM    7  C   UNL     1     -45.100  57.621 -58.736  1.00  0.00     0.030 A 
HETATM    8  C   UNL     1     -45.042  56.948 -59.950  1.00  0.00     0.063 A 
HETATM    9  C   UNL     1     -46.205  58.517 -58.862  1.00  0.00     0.156 A 
HETATM   10  N   UNL     1     -46.064  57.463 -60.699  1.00  0.00    -0.277 N 
HETATM   11  C   UNL     1     -44.091  55.967 -60.232  1.00  0.00     0.034 A 
HETATM   12  H   UNL     1     -46.318  57.208 -61.647  1.00  0.00     0.189 HD
HETATM   13  N   UNL     1     -46.789  58.406 -60.077  1.00  0.00    -0.168 NA
HETATM   14  C   UNL     1     -43.164  55.671 -59.223  1.00  0.00     0.032 A 
BRANCH   9  15
HETATM   15  C   UNL     1     -46.712  59.464 -57.858  1.00  0.00     0.270 C 
HETATM   16  N   UNL     1     -48.052  59.348 -57.609  1.00  0.00    -0.365 N 
HETATM   17  H   UNL     1     -48.580  58.642 -58.107  1.00  0.00     0.159 HD
HETATM   18  H   UNL     1     -48.485  59.949 -56.926  1.00  0.00     0.159 HD
HETATM   19  O   UNL     1     -46.029  60.298 -57.274  1.00  0.00    -0.266 OA
ENDBRANCH   9  15
ENDBRANCH   2   5
BRANCH   1  20
HETATM   20  C   UNL     1     -41.036  55.101 -55.100  1.00  0.00     0.278 C 
BRANCH  20  21
HETATM   21  O   UNL     1     -41.440  55.082 -53.735  1.00  0.00    -0.342 OA
BRANCH  21  22
HETATM   22  C   UNL     1     -40.883  54.071 -52.990  1.00  0.00     0.075 A 
HETATM   23  C   UNL     1     -40.752  54.294 -51.611  1.00  0.00    -0.029 A 
HETATM   24  C   UNL     1     -41.175  55.593 -50.986  1.00  0.00     0.051 C 
HETATM   25  C   UNL     1     -40.230  53.274 -50.802  1.00  0.00     0.010 A 
HETATM   26  C   UNL     1     -39.835  52.055 -51.357  1.00  0.00     0.008 A 
HETATM   27  C   UNL     1     -39.965  51.820 -52.731  1.00  0.00    -0.052 A 
HETATM   28  C   UNL     1     -40.498  52.840 -53.538  1.00  0.00     0.044 A 
BRANCH  27  29
HETATM   29  C   UNL     1     -39.529  50.488 -53.317  1.00  0.00     0.010 C 
HETATM   30  C   UNL     1     -39.564  49.363 -52.279  1.00  0.00     0.015 C 
HETATM   31  C   UNL     1     -40.372  50.125 -54.543  1.00  0.00     0.015 C 
ENDBRANCH  27  29
ENDBRANCH  21  22
ENDBRANCH  20  21
ENDBRANCH   1  20
TORSDOF 6
ENDMDL
MODEL 4
REMARK VINA RESULT:      -8.4      1.825      3.654
REMARK  6 active torsions:
REMARK  status: ('A' for Active; 'I' for Inactive)
REMARK    1  A    between atoms: C_3  and  O_4 
REMARK    2  A    between atoms: O_4  and  C_5 
REMARK    3  A    between atoms: C_5  and  C_6 
REMARK       I    between atoms: C_6  and  N_7 
REMARK    4  A    between atoms: N_7  and  C_8 
REMARK    5  A    between atoms: C_15  and  C_16 
REMARK       I    between atoms: C_16  and  N_17 
REMARK    6  A    between atoms: C_23  and  C_24 
ROOT
HETATM    1  C   UNL     1     -42.312  54.904 -55.898  1.00  0.00     0.246 C 
HETATM    2  N   UNL     1     -42.150  55.803 -56.944  1.00  0.00    -0.325 N 
HETATM    3  O   UNL     1     -43.293  54.200 -55.688  1.00  0.00    -0.271 OA
HETATM    4  H   UNL     1     -41.240  56.239 -57.024  1.00  0.00     0.169 HD
ENDROOT
BRANCH   2   5
HETATM    5  C   UNL     1     -43.112  56.187 -57.904  1.00  0.00     0.035 A 
HETATM    6  C   UNL     1     -44.086  57.170 -57.682  1.00  0.00     0.046 A 
HETATM    7  C   UNL     1     -44.986  57.512 -58.715  1.00  0.00     0.030 A 
HETATM    8  C   UNL     1     -44.878  56.864 -59.939  1.00  0.00     0.063 A 
HETATM    9  C   UNL     1     -46.075  58.422 -58.874  1.00  0.00     0.156 A 
HETATM   10  N   UNL     1     -45.859  57.404 -60.724  1.00  0.00    -0.277 N 
HETATM   11  C   UNL     1     -43.924  55.878 -60.198  1.00  0.00     0.034 A 
HETATM   12  H   UNL     1     -46.071  57.172 -61.687  1.00  0.00     0.189 HD
HETATM   13  N   UNL     1     -46.603  58.343 -60.117  1.00  0.00    -0.168 NA
HETATM   14  C   UNL     1     -43.048  55.552 -59.153  1.00  0.00     0.032 A 
BRANCH   9  15
HETATM   15  C   UNL     1     -46.619  59.354 -57.875  1.00  0.00     0.270 C 
HETATM   16  N   UNL     1     -47.839  58.989 -57.377  1.00  0.00    -0.365 N 
HETATM   17  H   UNL     1     -48.264  58.132 -57.713  1.00  0.00     0.159 HD
HETATM   18  H   UNL     1     -48.284  59.562 -56.679  1.00  0.00     0.159 HD
HETATM   19  O   UNL     1     -46.060  60.377 -57.493  1.00  0.00    -0.266 OA
ENDBRANCH   9  15
ENDBRANCH   2   5
BRANCH   1  20
HETATM   20  C   UNL     1     -41.123  54.896 -54.937  1.00  0.00     0.278 C 
BRANCH  20  21
HETATM   21  O   UNL     1     -40.711  53.560 -54.674  1.00  0.00    -0.342 OA
BRANCH  21  22
HETATM   22  C   UNL     1     -40.594  53.252 -53.340  1.00  0.00     0.075 A 
HETATM   23  C   UNL     1     -39.995  52.024 -53.020  1.00  0.00    -0.029 A 
HETATM   24  C   UNL     1     -39.533  51.078 -54.091  1.00  0.00     0.051 C 
HETATM   25  C   UNL     1     -39.814  51.684 -51.671  1.00  0.00     0.010 A 
HETATM   26  C   UNL     1     -40.230  52.548 -50.656  1.00  0.00     0.008 A 
HETATM   27  C   UNL     1     -40.823  53.778 -50.964  1.00  0.00    -0.052 A 
HETATM   28  C   UNL     1     -40.995  54.120 -52.316  1.00  0.00     0.044 A 
BRANCH  27  29
HETATM   29  C   UNL     1     -41.271  54.705 -49.846  1.00  0.00     0.010 C 
HETATM   30  C   UNL     1     -40.598  54.366 -48.513  1.00  0.00     0.015 C 
HETATM   31  C   UNL     1     -41.033  56.170 -50.219  1.00  0.00     0.015 C 
ENDBRANCH  27  29
ENDBRANCH  21  22
ENDBRANCH  20  21
ENDBRANCH   1  20
TORSDOF 6
ENDMDL
MODEL 5
REMARK VINA RESULT:      -8.2      2.306      3.136
REMARK  6 active torsions:
REMARK  status: ('A' for Active; 'I' for Inactive)
REMARK    1  A    between atoms: C_3  and  O_4 
REMARK    2  A    between atoms: O_4  and  C_5 
REMARK    3  A    between atoms: C_5  and  C_6 
REMARK       I    between atoms: C_6  and  N_7 
REMARK    4  A    between atoms: N_7  and  C_8 
REMARK    5  A    between atoms: C_15  and  C_16 
REMARK       I    between atoms: C_16  and  N_17 
REMARK    6  A    between atoms: C_23  and  C_24 
ROOT
HETATM    1  C   UNL     1     -42.528  57.414 -52.038  1.00  0.00     0.246 C 
HETATM    2  N   UNL     1     -41.639  57.582 -53.091  1.00  0.00    -0.325 N 
HETATM    3  O   UNL     1     -43.733  57.634 -52.060  1.00  0.00    -0.271 OA
HETATM    4  H   UNL     1     -40.690  57.266 -52.932  1.00  0.00     0.169 HD
ENDROOT
BRANCH   2   5
HETATM    5  C   UNL     1     -41.902  58.152 -54.356  1.00  0.00     0.035 A 
HETATM    6  C   UNL     1     -42.153  57.401 -55.513  1.00  0.00     0.046 A 
HETATM    7  C   UNL     1     -42.440  58.059 -56.728  1.00  0.00     0.030 A 
HETATM    8  C   UNL     1     -42.471  59.448 -56.746  1.00  0.00     0.063 A 
HETATM    9  C   UNL     1     -42.737  57.666 -58.068  1.00  0.00     0.156 A 
HETATM   10  N   UNL     1     -42.779  59.787 -58.035  1.00  0.00    -0.277 N 
HETATM   11  C   UNL     1     -42.223  60.231 -55.618  1.00  0.00     0.034 A 
HETATM   12  H   UNL     1     -42.891  60.721 -58.414  1.00  0.00     0.189 HD
HETATM   13  N   UNL     1     -42.942  58.742 -58.862  1.00  0.00    -0.168 NA
HETATM   14  C   UNL     1     -41.933  59.553 -54.426  1.00  0.00     0.032 A 
BRANCH   9  15
HETATM   15  C   UNL     1     -42.825  56.299 -58.603  1.00  0.00     0.270 C 
HETATM   16  N   UNL     1     -42.092  56.096 -59.740  1.00  0.00    -0.365 N 
HETATM   17  H   UNL     1     -41.555  56.868 -60.116  1.00  0.00     0.159 HD
HETATM   18  H   UNL     1     -42.083  55.185 -60.171  1.00  0.00     0.159 HD
HETATM   19  O   UNL     1     -43.485  55.393 -58.106  1.00  0.00    -0.266 OA
ENDBRANCH   9  15
ENDBRANCH   2   5
BRANCH   1  20
HETATM   20  C   UNL     1     -41.840  56.955 -50.752  1.00  0.00     0.278 C 
BRANCH  20  21
HETATM   21  O   UNL     1     -42.297  55.659 -50.383  1.00  0.00    -0.342 OA
BRANCH  21  22
HETATM   22  C   UNL     1     -41.543  54.625 -50.884  1.00  0.00     0.075 A 
HETATM   23  C   UNL     1     -40.739  53.924 -49.972  1.00  0.00    -0.029 A 
HETATM   24  C   UNL     1     -40.684  54.311 -48.521  1.00  0.00     0.051 C 
HETATM   25  C   UNL     1     -39.984  52.833 -50.427  1.00  0.00     0.010 A 
HETATM   26  C   UNL     1     -40.021  52.450 -51.770  1.00  0.00     0.008 A 
HETATM   27  C   UNL     1     -40.824  53.139 -52.687  1.00  0.00    -0.052 A 
HETATM   28  C   UNL     1     -41.586  54.226 -52.226  1.00  0.00     0.044 A 
BRANCH  27  29
HETATM   29  C   UNL     1     -40.851  52.710 -54.144  1.00  0.00     0.010 C 
HETATM   30  C   UNL     1     -40.195  53.746 -55.061  1.00  0.00     0.015 C 
HETATM   31  C   UNL     1     -40.201  51.335 -54.323  1.00  0.00     0.015 C 
ENDBRANCH  27  29
ENDBRANCH  21  22
ENDBRANCH  20  21
ENDBRANCH   1  20
TORSDOF 6
ENDMDL
MODEL 6
REMARK VINA RESULT:      -8.1      2.410      3.439
REMARK  6 active torsions:
REMARK  status: ('A' for Active; 'I' for Inactive)
REMARK    1  A    between atoms: C_3  and  O_4 
REMARK    2  A    between atoms: O_4  and  C_5 
REMARK    3  A    between atoms: C_5  and  C_6 
REMARK       I    between atoms: C_6  and  N_7 
REMARK    4  A    between atoms: N_7  and  C_8 
REMARK    5  A    between atoms: C_15  and  C_16 
REMARK       I    between atoms: C_16  and  N_17 
REMARK    6  A    between atoms: C_23  and  C_24 
ROOT
HETATM    1  C   UNL     1     -43.322  55.776 -54.970  1.00  0.00     0.246 C 
HETATM    2  N   UNL     1     -42.757  55.499 -56.209  1.00  0.00    -0.325 N 
HETATM    3  O   UNL     1     -44.003  56.753 -54.683  1.00  0.00    -0.271 OA
HETATM    4  H   UNL     1     -42.300  54.600 -56.302  1.00  0.00     0.169 HD
ENDROOT
BRANCH   2   5
HETATM    5  C   UNL     1     -42.739  56.328 -57.351  1.00  0.00     0.035 A 
HETATM    6  C   UNL     1     -42.387  57.685 -57.324  1.00  0.00     0.046 A 
HETATM    7  C   UNL     1     -42.366  58.428 -58.524  1.00  0.00     0.030 A 
HETATM    8  C   UNL     1     -42.692  57.789 -59.714  1.00  0.00     0.063 A 
HETATM    9  C   UNL     1     -42.075  59.776 -58.897  1.00  0.00     0.156 A 
HETATM   10  N   UNL     1     -42.575  58.746 -60.684  1.00  0.00    -0.277 N 
HETATM   11  C   UNL     1     -43.051  56.442 -59.781  1.00  0.00     0.034 A 
HETATM   12  H   UNL     1     -42.732  58.633 -61.679  1.00  0.00     0.189 HD
HETATM   13  N   UNL     1     -42.209  59.956 -60.231  1.00  0.00    -0.168 NA
HETATM   14  C   UNL     1     -43.072  55.729 -58.575  1.00  0.00     0.032 A 
BRANCH   9  15
HETATM   15  C   UNL     1     -41.678  60.885 -58.016  1.00  0.00     0.270 C 
HETATM   16  N   UNL     1     -42.723  61.489 -57.374  1.00  0.00    -0.365 N 
HETATM   17  H   UNL     1     -43.660  61.141 -57.537  1.00  0.00     0.159 HD
HETATM   18  H   UNL     1     -42.545  62.251 -56.740  1.00  0.00     0.159 HD
HETATM   19  O   UNL     1     -40.524  61.264 -57.844  1.00  0.00    -0.266 OA
ENDBRANCH   9  15
ENDBRANCH   2   5
BRANCH   1  20
HETATM   20  C   UNL     1     -42.964  54.733 -53.912  1.00  0.00     0.278 C 
BRANCH  20  21
HETATM   21  O   UNL     1     -41.931  55.223 -53.065  1.00  0.00    -0.342 OA
BRANCH  21  22
HETATM   22  C   UNL     1     -41.166  54.246 -52.475  1.00  0.00     0.075 A 
HETATM   23  C   UNL     1     -40.807  54.441 -51.133  1.00  0.00    -0.029 A 
HETATM   24  C   UNL     1     -41.217  55.679 -50.387  1.00  0.00     0.051 C 
HETATM   25  C   UNL     1     -40.063  53.451 -50.475  1.00  0.00     0.010 A 
HETATM   26  C   UNL     1     -39.673  52.289 -51.144  1.00  0.00     0.008 A 
HETATM   27  C   UNL     1     -40.030  52.081 -52.482  1.00  0.00    -0.052 A 
HETATM   28  C   UNL     1     -40.783  53.071 -53.136  1.00  0.00     0.044 A 
BRANCH  27  29
HETATM   29  C   UNL     1     -39.596  50.811 -53.194  1.00  0.00     0.010 C 
HETATM   30  C   UNL     1     -39.617  49.595 -52.265  1.00  0.00     0.015 C 
HETATM   31  C   UNL     1     -40.451  50.561 -54.439  1.00  0.00     0.015 C 
ENDBRANCH  27  29
ENDBRANCH  21  22
ENDBRANCH  20  21
ENDBRANCH   1  20
TORSDOF 6
ENDMDL
MODEL 7
REMARK VINA RESULT:      -8.1      3.396      5.689
REMARK  6 active torsions:
REMARK  status: ('A' for Active; 'I' for Inactive)
REMARK    1  A    between atoms: C_3  and  O_4 
REMARK    2  A    between atoms: O_4  and  C_5 
REMARK    3  A    between atoms: C_5  and  C_6 
REMARK       I    between atoms: C_6  and  N_7 
REMARK    4  A    between atoms: N_7  and  C_8 
REMARK    5  A    between atoms: C_15  and  C_16 
REMARK       I    between atoms: C_16  and  N_17 
REMARK    6  A    between atoms: C_23  and  C_24 
ROOT
HETATM    1  C   UNL     1     -42.658  55.225 -55.046  1.00  0.00     0.246 C 
HETATM    2  N   UNL     1     -42.454  56.599 -55.062  1.00  0.00    -0.325 N 
HETATM    3  O   UNL     1     -43.731  54.649 -54.913  1.00  0.00    -0.271 OA
HETATM    4  H   UNL     1     -41.515  56.911 -55.274  1.00  0.00     0.169 HD
ENDROOT
BRANCH   2   5
HETATM    5  C   UNL     1     -43.405  57.612 -54.807  1.00  0.00     0.035 A 
HETATM    6  C   UNL     1     -43.846  57.962 -53.523  1.00  0.00     0.046 A 
HETATM    7  C   UNL     1     -44.776  59.013 -53.363  1.00  0.00     0.030 A 
HETATM    8  C   UNL     1     -45.230  59.683 -54.493  1.00  0.00     0.063 A 
HETATM    9  C   UNL     1     -45.441  59.642 -52.268  1.00  0.00     0.156 A 
HETATM   10  N   UNL     1     -46.095  60.634 -54.027  1.00  0.00    -0.277 N 
HETATM   11  C   UNL     1     -44.818  59.361 -55.787  1.00  0.00     0.034 A 
HETATM   12  H   UNL     1     -46.612  61.313 -54.573  1.00  0.00     0.189 HD
HETATM   13  N   UNL     1     -46.251  60.638 -52.693  1.00  0.00    -0.168 NA
HETATM   14  C   UNL     1     -43.900  58.309 -55.918  1.00  0.00     0.032 A 
BRANCH   9  15
HETATM   15  C   UNL     1     -45.324  59.315 -50.839  1.00  0.00     0.270 C 
HETATM   16  N   UNL     1     -44.120  59.653 -50.286  1.00  0.00    -0.365 N 
HETATM   17  H   UNL     1     -43.422  60.093 -50.873  1.00  0.00     0.159 HD
HETATM   18  H   UNL     1     -43.954  59.477 -49.308  1.00  0.00     0.159 HD
HETATM   19  O   UNL     1     -46.204  58.788 -50.167  1.00  0.00    -0.266 OA
ENDBRANCH   9  15
ENDBRANCH   2   5
BRANCH   1  20
HETATM   20  C   UNL     1     -41.354  54.434 -55.161  1.00  0.00     0.278 C 
BRANCH  20  21
HETATM   21  O   UNL     1     -41.510  53.141 -54.589  1.00  0.00    -0.342 OA
BRANCH  21  22
HETATM   22  C   UNL     1     -40.892  52.977 -53.373  1.00  0.00     0.075 A 
HETATM   23  C   UNL     1     -40.105  51.827 -53.208  1.00  0.00    -0.029 A 
HETATM   24  C   UNL     1     -39.972  50.808 -54.304  1.00  0.00     0.051 C 
HETATM   25  C   UNL     1     -39.419  51.638 -51.999  1.00  0.00     0.010 A 
HETATM   26  C   UNL     1     -39.522  52.573 -50.967  1.00  0.00     0.008 A 
HETATM   27  C   UNL     1     -40.300  53.726 -51.123  1.00  0.00    -0.052 A 
HETATM   28  C   UNL     1     -40.979  53.917 -52.338  1.00  0.00     0.044 A 
BRANCH  27  29
HETATM   29  C   UNL     1     -40.401  54.731 -49.988  1.00  0.00     0.010 C 
HETATM   30  C   UNL     1     -41.711  55.522 -50.036  1.00  0.00     0.015 C 
HETATM   31  C   UNL     1     -40.227  54.047 -48.630  1.00  0.00     0.015 C 
ENDBRANCH  27  29
ENDBRANCH  21  22
ENDBRANCH  20  21
ENDBRANCH   1  20
TORSDOF 6
ENDMDL
MODEL 8
REMARK VINA RESULT:      -8.0      4.662      6.556
REMARK  6 active torsions:
REMARK  status: ('A' for Active; 'I' for Inactive)
REMARK    1  A    between atoms: C_3  and  O_4 
REMARK    2  A    between atoms: O_4  and  C_5 
REMARK    3  A    between atoms: C_5  and  C_6 
REMARK       I    between atoms: C_6  and  N_7 
REMARK    4  A    between atoms: N_7  and  C_8 
REMARK    5  A    between atoms: C_15  and  C_16 
REMARK       I    between atoms: C_16  and  N_17 
REMARK    6  A    between atoms: C_23  and  C_24 
ROOT
HETATM    1  C   UNL     1     -43.344  55.906 -50.884  1.00  0.00     0.246 C 
HETATM    2  N   UNL     1     -43.079  56.963 -51.745  1.00  0.00    -0.325 N 
HETATM    3  O   UNL     1     -44.431  55.621 -50.394  1.00  0.00    -0.271 OA
HETATM    4  H   UNL     1     -42.145  57.002 -52.132  1.00  0.00     0.169 HD
ENDROOT
BRANCH   2   5
HETATM    5  C   UNL     1     -43.960  57.996 -52.136  1.00  0.00     0.035 A 
HETATM    6  C   UNL     1     -44.425  58.994 -51.267  1.00  0.00     0.046 A 
HETATM    7  C   UNL     1     -45.278  60.007 -51.757  1.00  0.00     0.030 A 
HETATM    8  C   UNL     1     -45.634  59.992 -53.100  1.00  0.00     0.063 A 
HETATM    9  C   UNL     1     -45.938  61.149 -51.212  1.00  0.00     0.156 A 
HETATM   10  N   UNL     1     -46.442  61.081 -53.273  1.00  0.00    -0.277 N 
HETATM   11  C   UNL     1     -45.195  59.014 -53.994  1.00  0.00     0.034 A 
HETATM   12  H   UNL     1     -46.884  61.387 -54.133  1.00  0.00     0.189 HD
HETATM   13  N   UNL     1     -46.652  61.801 -52.159  1.00  0.00    -0.168 NA
HETATM   14  C   UNL     1     -44.355  58.016 -53.481  1.00  0.00     0.032 A 
BRANCH   9  15
HETATM   15  C   UNL     1     -45.905  61.628 -49.822  1.00  0.00     0.270 C 
HETATM   16  N   UNL     1     -45.433  62.904 -49.682  1.00  0.00    -0.365 N 
HETATM   17  H   UNL     1     -45.155  63.413 -50.513  1.00  0.00     0.159 HD
HETATM   18  H   UNL     1     -45.385  63.320 -48.766  1.00  0.00     0.159 HD
HETATM   19  O   UNL     1     -46.261  60.974 -48.848  1.00  0.00    -0.266 OA
ENDBRANCH   9  15
ENDBRANCH   2   5
BRANCH   1  20
HETATM   20  C   UNL     1     -42.091  55.104 -50.530  1.00  0.00     0.278 C 
BRANCH  20  21
HETATM   21  O   UNL     1     -41.074  55.326 -51.500  1.00  0.00    -0.342 OA
BRANCH  21  22
HETATM   22  C   UNL     1     -40.703  54.205 -52.203  1.00  0.00     0.075 A 
HETATM   23  C   UNL     1     -40.715  54.298 -53.602  1.00  0.00    -0.029 A 
HETATM   24  C   UNL     1     -41.146  55.558 -54.298  1.00  0.00     0.051 C 
HETATM   25  C   UNL     1     -40.303  53.193 -54.363  1.00  0.00     0.010 A 
HETATM   26  C   UNL     1     -39.893  52.012 -53.741  1.00  0.00     0.008 A 
HETATM   27  C   UNL     1     -39.872  51.910 -52.345  1.00  0.00    -0.052 A 
HETATM   28  C   UNL     1     -40.277  53.021 -51.586  1.00  0.00     0.044 A 
BRANCH  27  29
HETATM   29  C   UNL     1     -39.424  50.617 -51.686  1.00  0.00     0.010 C 
HETATM   30  C   UNL     1     -40.110  50.393 -50.335  1.00  0.00     0.015 C 
HETATM   31  C   UNL     1     -39.648  49.421 -52.615  1.00  0.00     0.015 C 
ENDBRANCH  27  29
ENDBRANCH  21  22
ENDBRANCH  20  21
ENDBRANCH   1  20
TORSDOF 6
ENDMDL
MODEL 9
REMARK VINA RESULT:      -7.9      3.021      8.806
REMARK  6 active torsions:
REMARK  status: ('A' for Active; 'I' for Inactive)
REMARK    1  A    between atoms: C_3  and  O_4 
REMARK    2  A    between atoms: O_4  and  C_5 
REMARK    3  A    between atoms: C_5  and  C_6 
REMARK       I    between atoms: C_6  and  N_7 
REMARK    4  A    between atoms: N_7  and  C_8 
REMARK    5  A    between atoms: C_15  and  C_16 
REMARK       I    between atoms: C_16  and  N_17 
REMARK    6  A    between atoms: C_23  and  C_24 
ROOT
HETATM    1  C   UNL     1     -42.954  57.044 -54.996  1.00  0.00     0.246 C 
HETATM    2  N   UNL     1     -43.093  55.672 -54.830  1.00  0.00    -0.325 N 
HETATM    3  O   UNL     1     -41.978  57.719 -54.693  1.00  0.00    -0.271 OA
HETATM    4  H   UNL     1     -43.929  55.255 -55.220  1.00  0.00     0.169 HD
ENDROOT
BRANCH   2   5
HETATM    5  C   UNL     1     -42.206  54.791 -54.173  1.00  0.00     0.035 A 
HETATM    6  C   UNL     1     -42.039  54.747 -52.781  1.00  0.00     0.046 A 
HETATM    7  C   UNL     1     -41.152  53.808 -52.211  1.00  0.00     0.030 A 
HETATM    8  C   UNL     1     -40.465  52.940 -53.050  1.00  0.00     0.063 A 
HETATM    9  C   UNL     1     -40.724  53.465 -50.893  1.00  0.00     0.156 A 
HETATM   10  N   UNL     1     -39.706  52.160 -52.222  1.00  0.00    -0.277 N 
HETATM   11  C   UNL     1     -40.600  52.956 -54.439  1.00  0.00     0.034 A 
HETATM   12  H   UNL     1     -39.079  51.410 -52.490  1.00  0.00     0.189 HD
HETATM   13  N   UNL     1     -39.832  52.448 -50.916  1.00  0.00    -0.168 NA
HETATM   14  C   UNL     1     -41.481  53.903 -54.980  1.00  0.00     0.032 A 
BRANCH   9  15
HETATM   15  C   UNL     1     -41.141  54.081 -49.624  1.00  0.00     0.270 C 
HETATM   16  N   UNL     1     -40.139  54.185 -48.699  1.00  0.00    -0.365 N 
HETATM   17  H   UNL     1     -39.214  53.851 -48.944  1.00  0.00     0.159 HD
HETATM   18  H   UNL     1     -40.329  54.606 -47.804  1.00  0.00     0.159 HD
HETATM   19  O   UNL     1     -42.274  54.480 -49.378  1.00  0.00    -0.266 OA
ENDBRANCH   9  15
ENDBRANCH   2   5
BRANCH   1  20
HETATM   20  C   UNL     1     -44.210  57.699 -55.573  1.00  0.00     0.278 C 
BRANCH  20  21
HETATM   21  O   UNL     1     -43.853  58.692 -56.527  1.00  0.00    -0.342 OA
BRANCH  21  22
HETATM   22  C   UNL     1     -43.549  58.202 -57.774  1.00  0.00     0.075 A 
HETATM   23  C   UNL     1     -42.422  58.740 -58.412  1.00  0.00    -0.029 A 
HETATM   24  C   UNL     1     -41.606  59.827 -57.771  1.00  0.00     0.051 C 
HETATM   25  C   UNL     1     -42.045  58.241 -59.668  1.00  0.00     0.010 A 
HETATM   26  C   UNL     1     -42.784  57.228 -60.284  1.00  0.00     0.008 A 
HETATM   27  C   UNL     1     -43.907  56.680 -59.653  1.00  0.00    -0.052 A 
HETATM   28  C   UNL     1     -44.276  57.176 -58.391  1.00  0.00     0.044 A 
BRANCH  27  29
HETATM   29  C   UNL     1     -44.699  55.579 -60.338  1.00  0.00     0.010 C 
HETATM   30  C   UNL     1     -44.528  54.227 -59.640  1.00  0.00     0.015 C 
HETATM   31  C   UNL     1     -46.179  55.953 -60.446  1.00  0.00     0.015 C 
ENDBRANCH  27  29
ENDBRANCH  21  22
ENDBRANCH  20  21
ENDBRANCH   1  20
TORSDOF 6
ENDMDL
MODEL 10
REMARK VINA RESULT:      -7.8      6.261      8.292
REMARK  6 active torsions:
REMARK  status: ('A' for Active; 'I' for Inactive)
REMARK    1  A    between atoms: C_3  and  O_4 
REMARK    2  A    between atoms: O_4  and  C_5 
REMARK    3  A    between atoms: C_5  and  C_6 
REMARK       I    between atoms: C_6  and  N_7 
REMARK    4  A    between atoms: N_7  and  C_8 
REMARK    5  A    between atoms: C_15  and  C_16 
REMARK       I    between atoms: C_16  and  N_17 
REMARK    6  A    between atoms: C_23  and  C_24 
ROOT
HETATM    1  C   UNL     1     -43.675  57.890 -51.249  1.00  0.00     0.246 C 
HETATM    2  N   UNL     1     -43.497  59.261 -51.112  1.00  0.00    -0.325 N 
HETATM    3  O   UNL     1     -44.745  57.293 -51.271  1.00  0.00    -0.271 OA
HETATM    4  H   UNL     1     -42.548  59.601 -51.206  1.00  0.00     0.169 HD
ENDROOT
BRANCH   2   5
HETATM    5  C   UNL     1     -44.485  60.234 -50.848  1.00  0.00     0.035 A 
HETATM    6  C   UNL     1     -44.917  60.577 -49.559  1.00  0.00     0.046 A 
HETATM    7  C   UNL     1     -45.889  61.588 -49.390  1.00  0.00     0.030 A 
HETATM    8  C   UNL     1     -46.392  62.227 -50.517  1.00  0.00     0.063 A 
HETATM    9  C   UNL     1     -46.560  62.198 -48.288  1.00  0.00     0.156 A 
HETATM   10  N   UNL     1     -47.289  63.145 -50.042  1.00  0.00    -0.277 N 
HETATM   11  C   UNL     1     -45.990  61.912 -51.815  1.00  0.00     0.034 A 
HETATM   12  H   UNL     1     -47.844  63.796 -50.584  1.00  0.00     0.189 HD
HETATM   13  N   UNL     1     -47.420  63.154 -48.706  1.00  0.00    -0.168 NA
HETATM   14  C   UNL     1     -45.031  60.900 -51.955  1.00  0.00     0.032 A 
BRANCH   9  15
HETATM   15  C   UNL     1     -46.403  61.889 -46.859  1.00  0.00     0.270 C 
HETATM   16  N   UNL     1     -47.585  61.742 -46.186  1.00  0.00    -0.365 N 
HETATM   17  H   UNL     1     -48.452  61.846 -46.700  1.00  0.00     0.159 HD
HETATM   18  H   UNL     1     -47.575  61.518 -45.204  1.00  0.00     0.159 HD
HETATM   19  O   UNL     1     -45.328  61.765 -46.283  1.00  0.00    -0.266 OA
ENDBRANCH   9  15
ENDBRANCH   2   5
BRANCH   1  20
HETATM   20  C   UNL     1     -42.351  57.127 -51.321  1.00  0.00     0.278 C 
BRANCH  20  21
HETATM   21  O   UNL     1     -42.414  55.955 -50.517  1.00  0.00    -0.342 OA
BRANCH  21  22
HETATM   22  C   UNL     1     -41.658  54.905 -50.981  1.00  0.00     0.075 A 
HETATM   23  C   UNL     1     -40.883  54.213 -50.039  1.00  0.00    -0.029 A 
HETATM   24  C   UNL     1     -40.860  54.623 -48.594  1.00  0.00     0.051 C 
HETATM   25  C   UNL     1     -40.128  53.107 -50.457  1.00  0.00     0.010 A 
HETATM   26  C   UNL     1     -40.137  52.702 -51.794  1.00  0.00     0.008 A 
HETATM   27  C   UNL     1     -40.910  53.382 -52.741  1.00  0.00    -0.052 A 
HETATM   28  C   UNL     1     -41.673  54.484 -52.318  1.00  0.00     0.044 A 
BRANCH  27  29
HETATM   29  C   UNL     1     -40.906  52.928 -54.191  1.00  0.00     0.010 C 
HETATM   30  C   UNL     1     -40.212  53.939 -55.108  1.00  0.00     0.015 C 
HETATM   31  C   UNL     1     -40.273  51.541 -54.330  1.00  0.00     0.015 C 
ENDBRANCH  27  29
ENDBRANCH  21  22
ENDBRANCH  20  21
ENDBRANCH   1  20
TORSDOF 6
ENDMDL
