MODEL 1
REMARK VINA RESULT:     -10.3      0.000      0.000
REMARK  5 active torsions:
REMARK  status: ('A' for Active; 'I' for Inactive)
REMARK    1  A    between atoms: C_2  and  N_3 
REMARK    2  A    between atoms: C_5  and  C_6 
REMARK    3  A    between atoms: C_6  and  C_7 
REMARK       I    between atoms: C_7  and  N_8 
REMARK    4  A    between atoms: N_8  and  C_9 
REMARK    5  A    between atoms: C_16  and  O_17 
ROOT
HETATM    1  C   UNL     1     -42.125  55.060 -55.614  1.00  0.00     0.224 C 
HETATM    2  N   UNL     1     -41.864  55.978 -56.594  1.00  0.00    -0.351 N 
HETATM    3  O   UNL     1     -43.244  54.952 -55.107  1.00  0.00    -0.273 OA
HETATM    4  H   UNL     1     -40.943  55.980 -57.026  1.00  0.00     0.163 HD
ENDROOT
BRANCH   2   5
HETATM    5  C   UNL     1     -42.951  56.691 -57.226  1.00  0.00     0.135 C 
HETATM    6  C   UNL     1     -42.426  57.931 -57.859  1.00  0.00     0.040 A 
HETATM    7  C   UNL     1     -42.333  58.189 -59.212  1.00  0.00    -0.021 A 
HETATM    8  N   UNL     1     -42.033  59.054 -57.182  1.00  0.00    -0.357 N 
HETATM    9  C   UNL     1     -41.969  59.556 -59.361  1.00  0.00     0.002 A 
HETATM   10  C   UNL     1     -42.703  57.184 -60.250  1.00  0.00     0.042 C 
HETATM   11  C   UNL     1     -41.791  60.075 -58.076  1.00  0.00     0.043 A 
HETATM   12  C   UNL     1     -41.815  60.418 -60.465  1.00  0.00     0.051 A 
HETATM   13  C   UNL     1     -41.452  61.413 -57.850  1.00  0.00     0.033 A 
HETATM   14  C   UNL     1     -41.329  62.254 -58.965  1.00  0.00     0.039 A 
HETATM   15  C   UNL     1     -41.525  61.772 -60.258  1.00  0.00     0.069 A 
HETATM   16  C   UNL     1     -42.858  55.782 -59.632  1.00  0.00     0.007 C 
HETATM   17  C   UNL     1     -43.645  55.820 -58.306  1.00  0.00     0.032 C 
HETATM   18  H   UNL     1     -41.999  59.145 -56.175  1.00  0.00     0.166 HD
BRANCH  15  19
HETATM   19  O   UNL     1     -41.450  62.520 -61.404  1.00  0.00    -0.356 OA
HETATM   20  C   UNL     1     -40.154  62.970 -61.778  1.00  0.00     0.210 C 
ENDBRANCH  15  19
ENDBRANCH   2   5
BRANCH   1  21
HETATM   21  C   UNL     1     -41.041  54.106 -55.190  1.00  0.00     0.164 C 
BRANCH  21  22
HETATM   22  C   UNL     1     -40.770  53.750 -53.745  1.00  0.00     0.075 A 
HETATM   23  N   UNL     1     -40.941  54.634 -52.810  1.00  0.00    -0.172 NA
HETATM   24  N   UNL     1     -40.703  54.291 -51.496  1.00  0.00    -0.230 N 
HETATM   25  C   UNL     1     -40.361  53.002 -51.079  1.00  0.00     0.275 A 
HETATM   26  C   UNL     1     -40.121  52.009 -52.136  1.00  0.00     0.046 A 
HETATM   27  O   UNL     1     -40.247  52.660 -49.905  1.00  0.00    -0.266 OA
HETATM   28  C   UNL     1     -40.314  52.364 -53.464  1.00  0.00     0.006 A 
HETATM   29  C   UNL     1     -39.701  50.713 -51.803  1.00  0.00     0.018 A 
HETATM   30  C   UNL     1     -40.082  51.413 -54.471  1.00  0.00     0.014 A 
HETATM   31  C   UNL     1     -39.660  50.123 -54.139  1.00  0.00     0.001 A 
HETATM   32  C   UNL     1     -39.469  49.771 -52.806  1.00  0.00     0.001 A 
BRANCH  24  33
HETATM   33  C   UNL     1     -41.023  55.300 -50.471  1.00  0.00     0.105 C 
HETATM   34  C   UNL     1     -42.432  55.077 -49.924  1.00  0.00     0.034 C 
HETATM   35  C   UNL     1     -40.849  56.729 -50.980  1.00  0.00     0.034 C 
ENDBRANCH  24  33
ENDBRANCH  21  22
ENDBRANCH   1  21
TORSDOF 5
ENDMDL
MODEL 2
REMARK VINA RESULT:      -9.9      4.399      6.090
REMARK  5 active torsions:
REMARK  status: ('A' for Active; 'I' for Inactive)
REMARK    1  A    between atoms: C_2  and  N_3 
REMARK    2  A    between atoms: C_5  and  C_6 
REMARK    3  A    between atoms: C_6  and  C_7 
REMARK       I    between atoms: C_7  and  N_8 
REMARK    4  A    between atoms: N_8  and  C_9 
REMARK    5  A    between atoms: C_16  and  O_17 
ROOT
HETATM    1  C   UNL     1     -41.165  55.945 -54.313  1.00  0.00     0.224 C 
HETATM    2  N   UNL     1     -40.902  56.722 -53.219  1.00  0.00    -0.351 N 
HETATM    3  O   UNL     1     -41.650  56.419 -55.344  1.00  0.00    -0.273 OA
HETATM    4  H   UNL     1     -40.441  56.295 -52.419  1.00  0.00     0.163 HD
ENDROOT
BRANCH   2   5
HETATM    5  C   UNL     1     -40.969  58.163 -53.320  1.00  0.00     0.135 C 
HETATM    6  C   UNL     1     -42.200  58.649 -52.640  1.00  0.00     0.040 A 
HETATM    7  C   UNL     1     -42.259  59.380 -51.470  1.00  0.00    -0.021 A 
HETATM    8  N   UNL     1     -43.472  58.518 -53.128  1.00  0.00    -0.357 N 
HETATM    9  C   UNL     1     -43.609  59.797 -51.298  1.00  0.00     0.002 A 
HETATM   10  C   UNL     1     -41.047  59.729 -50.677  1.00  0.00     0.042 C 
HETATM   11  C   UNL     1     -44.345  59.248 -52.350  1.00  0.00     0.043 A 
HETATM   12  C   UNL     1     -44.270  60.627 -50.371  1.00  0.00     0.051 A 
HETATM   13  C   UNL     1     -45.716  59.482 -52.506  1.00  0.00     0.033 A 
HETATM   14  C   UNL     1     -46.344  60.330 -51.583  1.00  0.00     0.039 A 
HETATM   15  C   UNL     1     -45.631  60.914 -50.537  1.00  0.00     0.069 A 
HETATM   16  C   UNL     1     -39.829  58.904 -51.135  1.00  0.00     0.007 C 
HETATM   17  C   UNL     1     -39.728  58.831 -52.673  1.00  0.00     0.032 C 
HETATM   18  H   UNL     1     -43.724  58.025 -53.974  1.00  0.00     0.166 HD
BRANCH  15  19
HETATM   19  O   UNL     1     -46.150  61.773 -49.604  1.00  0.00    -0.356 OA
HETATM   20  C   UNL     1     -46.449  63.087 -50.058  1.00  0.00     0.210 C 
ENDBRANCH  15  19
ENDBRANCH   2   5
BRANCH   1  21
HETATM   21  C   UNL     1     -40.791  54.487 -54.291  1.00  0.00     0.164 C 
BRANCH  21  22
HETATM   22  C   UNL     1     -40.618  53.697 -53.013  1.00  0.00     0.075 A 
HETATM   23  N   UNL     1     -40.820  54.262 -51.861  1.00  0.00    -0.172 NA
HETATM   24  N   UNL     1     -40.671  53.524 -50.705  1.00  0.00    -0.230 N 
HETATM   25  C   UNL     1     -40.392  52.155 -50.688  1.00  0.00     0.275 A 
HETATM   26  C   UNL     1     -40.116  51.521 -51.985  1.00  0.00     0.046 A 
HETATM   27  O   UNL     1     -40.358  51.467 -49.671  1.00  0.00    -0.266 OA
HETATM   28  C   UNL     1     -40.219  52.272 -53.148  1.00  0.00     0.006 A 
HETATM   29  C   UNL     1     -39.755  50.167 -52.046  1.00  0.00     0.018 A 
HETATM   30  C   UNL     1     -39.954  51.663 -54.386  1.00  0.00     0.014 A 
HETATM   31  C   UNL     1     -39.589  50.315 -54.445  1.00  0.00     0.001 A 
HETATM   32  C   UNL     1     -39.490  49.566 -53.276  1.00  0.00     0.001 A 
BRANCH  24  33
HETATM   33  C   UNL     1     -41.023  54.186 -49.438  1.00  0.00     0.105 C 
HETATM   34  C   UNL     1     -41.483  55.620 -49.694  1.00  0.00     0.034 C 
HETATM   35  C   UNL     1     -39.885  54.147 -48.420  1.00  0.00     0.034 C 
ENDBRANCH  24  33
ENDBRANCH  21  22
ENDBRANCH   1  21
TORSDOF 5
ENDMDL
MODEL 3
REMARK VINA RESULT:      -9.3      2.942      3.475
REMARK  5 active torsions:
REMARK  status: ('A' for Active; 'I' for Inactive)
REMARK    1  A    between atoms: C_2  and  N_3 
REMARK    2  A    between atoms: C_5  and  C_6 
REMARK    3  A    between atoms: C_6  and  C_7 
REMARK       I    between atoms: C_7  and  N_8 
REMARK    4  A    between atoms: N_8  and  C_9 
REMARK    5  A    between atoms: C_16  and  O_17 
ROOT
HETATM    1  C   UNL     1     -42.246  55.265 -56.168  1.00  0.00     0.224 C 
HETATM    2  N   UNL     1     -42.346  56.165 -57.193  1.00  0.00    -0.351 N 
HETATM    3  O   UNL     1     -43.074  54.364 -56.013  1.00  0.00    -0.273 OA
HETATM    4  H   UNL     1     -41.601  56.848 -57.315  1.00  0.00     0.163 HD
ENDROOT
BRANCH   2   5
HETATM    5  C   UNL     1     -43.296  55.946 -58.260  1.00  0.00     0.135 C 
HETATM    6  C   UNL     1     -44.256  57.083 -58.307  1.00  0.00     0.040 A 
HETATM    7  C   UNL     1     -44.351  58.039 -59.298  1.00  0.00    -0.021 A 
HETATM    8  N   UNL     1     -45.262  57.299 -57.405  1.00  0.00    -0.357 N 
HETATM    9  C   UNL     1     -45.524  58.802 -59.041  1.00  0.00     0.002 A 
HETATM   10  C   UNL     1     -43.418  58.090 -60.460  1.00  0.00     0.042 C 
HETATM   11  C   UNL     1     -46.077  58.317 -57.854  1.00  0.00     0.043 A 
HETATM   12  C   UNL     1     -46.196  59.832 -59.728  1.00  0.00     0.051 A 
HETATM   13  C   UNL     1     -47.264  58.827 -57.318  1.00  0.00     0.033 A 
HETATM   14  C   UNL     1     -47.925  59.836 -58.034  1.00  0.00     0.039 A 
HETATM   15  C   UNL     1     -47.411  60.323 -59.235  1.00  0.00     0.069 A 
HETATM   16  C   UNL     1     -42.190  57.191 -60.223  1.00  0.00     0.007 C 
HETATM   17  C   UNL     1     -42.584  55.821 -59.632  1.00  0.00     0.032 C 
HETATM   18  H   UNL     1     -45.429  56.748 -56.574  1.00  0.00     0.166 HD
BRANCH  15  19
HETATM   19  O   UNL     1     -47.996  61.287 -60.015  1.00  0.00    -0.356 OA
HETATM   20  C   UNL     1     -49.352  61.061 -60.381  1.00  0.00     0.210 C 
ENDBRANCH  15  19
ENDBRANCH   2   5
BRANCH   1  21
HETATM   21  C   UNL     1     -41.059  55.327 -55.244  1.00  0.00     0.164 C 
BRANCH  21  22
HETATM   22  C   UNL     1     -41.154  55.070 -53.757  1.00  0.00     0.075 A 
HETATM   23  N   UNL     1     -41.690  55.954 -52.972  1.00  0.00    -0.172 NA
HETATM   24  N   UNL     1     -41.782  55.699 -51.620  1.00  0.00    -0.230 N 
HETATM   25  C   UNL     1     -41.403  54.491 -51.030  1.00  0.00     0.275 A 
HETATM   26  C   UNL     1     -40.753  53.504 -51.905  1.00  0.00     0.046 A 
HETATM   27  O   UNL     1     -41.574  54.213 -49.845  1.00  0.00    -0.266 OA
HETATM   28  C   UNL     1     -40.617  53.777 -53.259  1.00  0.00     0.006 A 
HETATM   29  C   UNL     1     -40.276  52.297 -51.374  1.00  0.00     0.018 A 
HETATM   30  C   UNL     1     -39.994  52.833 -54.091  1.00  0.00     0.014 A 
HETATM   31  C   UNL     1     -39.515  51.632 -53.561  1.00  0.00     0.001 A 
HETATM   32  C   UNL     1     -39.656  51.363 -52.202  1.00  0.00     0.001 A 
BRANCH  24  33
HETATM   33  C   UNL     1     -42.500  56.688 -50.798  1.00  0.00     0.105 C 
HETATM   34  C   UNL     1     -44.009  56.555 -51.001  1.00  0.00     0.034 C 
HETATM   35  C   UNL     1     -42.033  58.119 -51.060  1.00  0.00     0.034 C 
ENDBRANCH  24  33
ENDBRANCH  21  22
ENDBRANCH   1  21
TORSDOF 5
ENDMDL
MODEL 4
REMARK VINA RESULT:      -9.3      3.234      4.099
REMARK  5 active torsions:
REMARK  status: ('A' for Active; 'I' for Inactive)
REMARK    1  A    between atoms: C_2  and  N_3 
REMARK    2  A    between atoms: C_5  and  C_6 
REMARK    3  A    between atoms: C_6  and  C_7 
REMARK       I    between atoms: C_7  and  N_8 
REMARK    4  A    between atoms: N_8  and  C_9 
REMARK    5  A    between atoms: C_16  and  O_17 
ROOT
HETATM    1  C   UNL     1     -43.008  55.272 -56.009  1.00  0.00     0.224 C 
HETATM    2  N   UNL     1     -43.567  56.435 -55.557  1.00  0.00    -0.351 N 
HETATM    3  O   UNL     1     -42.530  55.180 -57.143  1.00  0.00    -0.273 OA
HETATM    4  H   UNL     1     -43.886  56.478 -54.591  1.00  0.00     0.163 HD
ENDROOT
BRANCH   2   5
HETATM    5  C   UNL     1     -43.405  57.658 -56.311  1.00  0.00     0.135 C 
HETATM    6  C   UNL     1     -44.558  57.821 -57.239  1.00  0.00     0.040 A 
HETATM    7  C   UNL     1     -45.554  58.774 -57.153  1.00  0.00    -0.021 A 
HETATM    8  N   UNL     1     -44.755  57.098 -58.383  1.00  0.00    -0.357 N 
HETATM    9  C   UNL     1     -46.325  58.690 -58.346  1.00  0.00     0.002 A 
HETATM   10  C   UNL     1     -45.636  59.754 -56.033  1.00  0.00     0.042 C 
HETATM   11  C   UNL     1     -45.802  57.637 -59.099  1.00  0.00     0.043 A 
HETATM   12  C   UNL     1     -47.393  59.439 -58.880  1.00  0.00     0.051 A 
HETATM   13  C   UNL     1     -46.311  57.291 -60.356  1.00  0.00     0.033 A 
HETATM   14  C   UNL     1     -47.357  58.067 -60.874  1.00  0.00     0.039 A 
HETATM   15  C   UNL     1     -47.884  59.140 -60.157  1.00  0.00     0.069 A 
HETATM   16  C   UNL     1     -44.709  59.348 -54.873  1.00  0.00     0.007 C 
HETATM   17  C   UNL     1     -43.323  58.891 -55.375  1.00  0.00     0.032 C 
HETATM   18  H   UNL     1     -44.174  56.331 -58.695  1.00  0.00     0.166 HD
BRANCH  15  19
HETATM   19  O   UNL     1     -48.886  59.969 -60.590  1.00  0.00    -0.356 OA
HETATM   20  C   UNL     1     -49.388  59.718 -61.897  1.00  0.00     0.210 C 
ENDBRANCH  15  19
ENDBRANCH   2   5
BRANCH   1  21
HETATM   21  C   UNL     1     -42.906  54.092 -55.081  1.00  0.00     0.164 C 
BRANCH  21  22
HETATM   22  C   UNL     1     -42.215  54.154 -53.737  1.00  0.00     0.075 A 
HETATM   23  N   UNL     1     -42.489  55.110 -52.903  1.00  0.00    -0.172 NA
HETATM   24  N   UNL     1     -41.860  55.145 -51.676  1.00  0.00    -0.230 N 
HETATM   25  C   UNL     1     -40.987  54.153 -51.222  1.00  0.00     0.275 A 
HETATM   26  C   UNL     1     -40.637  53.093 -52.178  1.00  0.00     0.046 A 
HETATM   27  O   UNL     1     -40.501  54.120 -50.094  1.00  0.00    -0.266 OA
HETATM   28  C   UNL     1     -41.233  53.081 -53.432  1.00  0.00     0.006 A 
HETATM   29  C   UNL     1     -39.710  52.102 -51.825  1.00  0.00     0.018 A 
HETATM   30  C   UNL     1     -40.895  52.067 -54.344  1.00  0.00     0.014 A 
HETATM   31  C   UNL     1     -39.968  51.082 -53.993  1.00  0.00     0.001 A 
HETATM   32  C   UNL     1     -39.375  51.099 -52.733  1.00  0.00     0.001 A 
BRANCH  24  33
HETATM   33  C   UNL     1     -42.293  56.187 -50.730  1.00  0.00     0.105 C 
HETATM   34  C   UNL     1     -43.745  56.582 -50.999  1.00  0.00     0.034 C 
HETATM   35  C   UNL     1     -41.378  57.410 -50.743  1.00  0.00     0.034 C 
ENDBRANCH  24  33
ENDBRANCH  21  22
ENDBRANCH   1  21
TORSDOF 5
ENDMDL
MODEL 5
REMARK VINA RESULT:      -9.0      5.366      9.718
REMARK  5 active torsions:
REMARK  status: ('A' for Active; 'I' for Inactive)
REMARK    1  A    between atoms: C_2  and  N_3 
REMARK    2  A    between atoms: C_5  and  C_6 
REMARK    3  A    between atoms: C_6  and  C_7 
REMARK       I    between atoms: C_7  and  N_8 
REMARK    4  A    between atoms: N_8  and  C_9 
REMARK    5  A    between atoms: C_16  and  O_17 
ROOT
HETATM    1  C   UNL     1     -43.943  58.029 -51.530  1.00  0.00     0.224 C 
HETATM    2  N   UNL     1     -43.774  57.041 -52.458  1.00  0.00    -0.351 N 
HETATM    3  O   UNL     1     -42.999  58.720 -51.137  1.00  0.00    -0.273 OA
HETATM    4  H   UNL     1     -44.596  56.545 -52.797  1.00  0.00     0.163 HD
ENDROOT
BRANCH   2   5
HETATM    5  C   UNL     1     -42.526  56.930 -53.180  1.00  0.00     0.135 C 
HETATM    6  C   UNL     1     -41.954  55.571 -52.971  1.00  0.00     0.040 A 
HETATM    7  C   UNL     1     -41.838  54.573 -53.919  1.00  0.00    -0.021 A 
HETATM    8  N   UNL     1     -41.369  55.133 -51.815  1.00  0.00    -0.357 N 
HETATM    9  C   UNL     1     -41.060  53.530 -53.344  1.00  0.00     0.002 A 
HETATM   10  C   UNL     1     -42.355  54.720 -55.309  1.00  0.00     0.042 C 
HETATM   11  C   UNL     1     -40.776  53.907 -52.029  1.00  0.00     0.043 A 
HETATM   12  C   UNL     1     -40.530  52.318 -53.829  1.00  0.00     0.051 A 
HETATM   13  C   UNL     1     -39.998  53.117 -51.176  1.00  0.00     0.033 A 
HETATM   14  C   UNL     1     -39.464  51.928 -51.691  1.00  0.00     0.039 A 
HETATM   15  C   UNL     1     -39.708  51.537 -53.007  1.00  0.00     0.069 A 
HETATM   16  C   UNL     1     -43.293  55.936 -55.426  1.00  0.00     0.007 C 
HETATM   17  C   UNL     1     -42.728  57.172 -54.697  1.00  0.00     0.032 C 
HETATM   18  H   UNL     1     -41.312  55.661 -50.953  1.00  0.00     0.166 HD
BRANCH  15  19
HETATM   19  O   UNL     1     -39.210  50.409 -53.606  1.00  0.00    -0.356 OA
HETATM   20  C   UNL     1     -39.991  49.863 -54.662  1.00  0.00     0.210 C 
ENDBRANCH  15  19
ENDBRANCH   2   5
BRANCH   1  21
HETATM   21  C   UNL     1     -45.327  58.335 -51.021  1.00  0.00     0.164 C 
BRANCH  21  22
HETATM   22  C   UNL     1     -45.674  59.609 -50.284  1.00  0.00     0.075 A 
HETATM   23  N   UNL     1     -45.751  59.615 -48.987  1.00  0.00    -0.172 NA
HETATM   24  N   UNL     1     -46.056  60.787 -48.328  1.00  0.00    -0.230 N 
HETATM   25  C   UNL     1     -46.211  62.020 -48.967  1.00  0.00     0.275 A 
HETATM   26  C   UNL     1     -46.171  62.012 -50.437  1.00  0.00     0.046 A 
HETATM   27  O   UNL     1     -46.381  63.088 -48.384  1.00  0.00    -0.266 OA
HETATM   28  C   UNL     1     -45.911  60.824 -51.106  1.00  0.00     0.006 A 
HETATM   29  C   UNL     1     -46.393  63.196 -51.155  1.00  0.00     0.018 A 
HETATM   30  C   UNL     1     -45.875  60.819 -52.510  1.00  0.00     0.014 A 
HETATM   31  C   UNL     1     -46.100  61.998 -53.226  1.00  0.00     0.001 A 
HETATM   32  C   UNL     1     -46.359  63.187 -52.549  1.00  0.00     0.001 A 
BRANCH  24  33
HETATM   33  C   UNL     1     -46.019  60.758 -46.856  1.00  0.00     0.105 C 
HETATM   34  C   UNL     1     -44.597  61.006 -46.354  1.00  0.00     0.034 C 
HETATM   35  C   UNL     1     -46.589  59.464 -46.280  1.00  0.00     0.034 C 
ENDBRANCH  24  33
ENDBRANCH  21  22
ENDBRANCH   1  21
TORSDOF 5
ENDMDL
MODEL 6
REMARK VINA RESULT:      -8.9      6.441     10.985
REMARK  5 active torsions:
REMARK  status: ('A' for Active; 'I' for Inactive)
REMARK    1  A    between atoms: C_2  and  N_3 
REMARK    2  A    between atoms: C_5  and  C_6 
REMARK    3  A    between atoms: C_6  and  C_7 
REMARK       I    between atoms: C_7  and  N_8 
REMARK    4  A    between atoms: N_8  and  C_9 
REMARK    5  A    between atoms: C_16  and  O_17 
ROOT
HETATM    1  C   UNL     1     -43.549  60.297 -50.693  1.00  0.00     0.224 C 
HETATM    2  N   UNL     1     -43.213  59.021 -51.050  1.00  0.00    -0.351 N 
HETATM    3  O   UNL     1     -42.696  61.123 -50.356  1.00  0.00    -0.273 OA
HETATM    4  H   UNL     1     -43.947  58.400 -51.384  1.00  0.00     0.163 HD
ENDROOT
BRANCH   2   5
HETATM    5  C   UNL     1     -41.827  58.670 -51.267  1.00  0.00     0.135 C 
HETATM    6  C   UNL     1     -41.635  57.222 -50.984  1.00  0.00     0.040 A 
HETATM    7  C   UNL     1     -41.351  56.234 -51.906  1.00  0.00    -0.021 A 
HETATM    8  N   UNL     1     -41.621  56.660 -49.736  1.00  0.00    -0.357 N 
HETATM    9  C   UNL     1     -41.053  55.048 -51.179  1.00  0.00     0.002 A 
HETATM   10  C   UNL     1     -41.267  56.500 -53.370  1.00  0.00     0.042 C 
HETATM   11  C   UNL     1     -41.225  55.342 -49.825  1.00  0.00     0.043 A 
HETATM   12  C   UNL     1     -40.608  53.760 -51.540  1.00  0.00     0.051 A 
HETATM   13  C   UNL     1     -40.986  54.401 -48.818  1.00  0.00     0.033 A 
HETATM   14  C   UNL     1     -40.522  53.135 -49.203  1.00  0.00     0.039 A 
HETATM   15  C   UNL     1     -40.316  52.819 -50.545  1.00  0.00     0.069 A 
HETATM   16  C   UNL     1     -41.853  57.881 -53.716  1.00  0.00     0.007 C 
HETATM   17  C   UNL     1     -41.392  58.969 -52.725  1.00  0.00     0.032 C 
HETATM   18  H   UNL     1     -41.800  57.154 -48.872  1.00  0.00     0.166 HD
BRANCH  15  19
HETATM   19  O   UNL     1     -39.843  51.621 -51.015  1.00  0.00    -0.356 OA
HETATM   20  C   UNL     1     -39.516  51.575 -52.399  1.00  0.00     0.210 C 
ENDBRANCH  15  19
ENDBRANCH   2   5
BRANCH   1  21
HETATM   21  C   UNL     1     -44.987  60.733 -50.778  1.00  0.00     0.164 C 
BRANCH  21  22
HETATM   22  C   UNL     1     -45.745  61.320 -49.608  1.00  0.00     0.075 A 
HETATM   23  N   UNL     1     -45.643  60.787 -48.429  1.00  0.00    -0.172 NA
HETATM   24  N   UNL     1     -46.330  61.342 -47.369  1.00  0.00    -0.230 N 
HETATM   25  C   UNL     1     -47.082  62.516 -47.460  1.00  0.00     0.275 A 
HETATM   26  C   UNL     1     -47.239  63.097 -48.801  1.00  0.00     0.046 A 
HETATM   27  O   UNL     1     -47.614  63.075 -46.503  1.00  0.00    -0.266 OA
HETATM   28  C   UNL     1     -46.587  62.514 -49.879  1.00  0.00     0.006 A 
HETATM   29  C   UNL     1     -48.041  64.233 -48.987  1.00  0.00     0.018 A 
HETATM   30  C   UNL     1     -46.741  63.072 -51.158  1.00  0.00     0.014 A 
HETATM   31  C   UNL     1     -47.543  64.201 -51.345  1.00  0.00     0.001 A 
HETATM   32  C   UNL     1     -48.193  64.782 -50.260  1.00  0.00     0.001 A 
BRANCH  24  33
HETATM   33  C   UNL     1     -46.087  60.764 -46.036  1.00  0.00     0.105 C 
HETATM   34  C   UNL     1     -44.618  60.921 -45.646  1.00  0.00     0.034 C 
HETATM   35  C   UNL     1     -46.530  59.305 -45.940  1.00  0.00     0.034 C 
ENDBRANCH  24  33
ENDBRANCH  21  22
ENDBRANCH   1  21
TORSDOF 5
ENDMDL
MODEL 7
REMARK VINA RESULT:      -8.8      1.901     10.114
REMARK  5 active torsions:
REMARK  status: ('A' for Active; 'I' for Inactive)
REMARK    1  A    between atoms: C_2  and  N_3 
REMARK    2  A    between atoms: C_5  and  C_6 
REMARK    3  A    between atoms: C_6  and  C_7 
REMARK       I    between atoms: C_7  and  N_8 
REMARK    4  A    between atoms: N_8  and  C_9 
REMARK    5  A    between atoms: C_16  and  O_17 
ROOT
HETATM    1  C   UNL     1     -42.725  57.431 -55.367  1.00  0.00     0.224 C 
HETATM    2  N   UNL     1     -42.398  57.369 -54.041  1.00  0.00    -0.351 N 
HETATM    3  O   UNL     1     -43.340  56.520 -55.928  1.00  0.00    -0.273 OA
HETATM    4  H   UNL     1     -41.950  58.176 -53.612  1.00  0.00     0.163 HD
ENDROOT
BRANCH   2   5
HETATM    5  C   UNL     1     -42.966  56.337 -53.202  1.00  0.00     0.135 C 
HETATM    6  C   UNL     1     -42.040  55.173 -53.158  1.00  0.00     0.040 A 
HETATM    7  C   UNL     1     -41.308  54.745 -52.068  1.00  0.00    -0.021 A 
HETATM    8  N   UNL     1     -41.843  54.285 -54.180  1.00  0.00    -0.357 N 
HETATM    9  C   UNL     1     -40.726  53.494 -52.412  1.00  0.00     0.002 A 
HETATM   10  C   UNL     1     -41.304  55.471 -50.766  1.00  0.00     0.042 C 
HETATM   11  C   UNL     1     -41.079  53.227 -53.736  1.00  0.00     0.043 A 
HETATM   12  C   UNL     1     -39.967  52.537 -51.708  1.00  0.00     0.051 A 
HETATM   13  C   UNL     1     -40.694  52.052 -54.391  1.00  0.00     0.033 A 
HETATM   14  C   UNL     1     -39.959  51.107 -53.662  1.00  0.00     0.039 A 
HETATM   15  C   UNL     1     -39.613  51.333 -52.330  1.00  0.00     0.069 A 
HETATM   16  C   UNL     1     -41.920  56.875 -50.913  1.00  0.00     0.007 C 
HETATM   17  C   UNL     1     -43.209  56.853 -51.761  1.00  0.00     0.032 C 
HETATM   18  H   UNL     1     -42.256  54.355 -55.101  1.00  0.00     0.166 HD
BRANCH  15  19
HETATM   19  O   UNL     1     -38.921  50.460 -51.531  1.00  0.00    -0.356 OA
HETATM   20  C   UNL     1     -39.693  49.724 -50.590  1.00  0.00     0.210 C 
ENDBRANCH  15  19
ENDBRANCH   2   5
BRANCH   1  21
HETATM   21  C   UNL     1     -42.392  58.672 -56.152  1.00  0.00     0.164 C 
BRANCH  21  22
HETATM   22  C   UNL     1     -42.787  58.867 -57.599  1.00  0.00     0.075 A 
HETATM   23  N   UNL     1     -43.633  58.058 -58.161  1.00  0.00    -0.172 NA
HETATM   24  N   UNL     1     -43.994  58.256 -59.478  1.00  0.00    -0.230 N 
HETATM   25  C   UNL     1     -43.565  59.342 -60.245  1.00  0.00     0.275 A 
HETATM   26  C   UNL     1     -42.572  60.235 -59.630  1.00  0.00     0.046 A 
HETATM   27  O   UNL     1     -43.959  59.586 -61.384  1.00  0.00    -0.266 OA
HETATM   28  C   UNL     1     -42.171  60.011 -58.320  1.00  0.00     0.006 A 
HETATM   29  C   UNL     1     -42.037  61.305 -60.362  1.00  0.00     0.018 A 
HETATM   30  C   UNL     1     -41.222  60.865 -57.736  1.00  0.00     0.014 A 
HETATM   31  C   UNL     1     -40.685  61.928 -58.467  1.00  0.00     0.001 A 
HETATM   32  C   UNL     1     -41.092  62.149 -59.780  1.00  0.00     0.001 A 
BRANCH  24  33
HETATM   33  C   UNL     1     -45.040  57.377 -60.026  1.00  0.00     0.105 C 
HETATM   34  C   UNL     1     -46.379  57.651 -59.344  1.00  0.00     0.034 C 
HETATM   35  C   UNL     1     -44.669  55.898 -59.939  1.00  0.00     0.034 C 
ENDBRANCH  24  33
ENDBRANCH  21  22
ENDBRANCH   1  21
TORSDOF 5
ENDMDL
MODEL 8
REMARK VINA RESULT:      -8.5      2.425      9.670
REMARK  5 active torsions:
REMARK  status: ('A' for Active; 'I' for Inactive)
REMARK    1  A    between atoms: C_2  and  N_3 
REMARK    2  A    between atoms: C_5  and  C_6 
REMARK    3  A    between atoms: C_6  and  C_7 
REMARK       I    between atoms: C_7  and  N_8 
REMARK    4  A    between atoms: N_8  and  C_9 
REMARK    5  A    between atoms: C_16  and  O_17 
ROOT
HETATM    1  C   UNL     1     -43.125  55.900 -56.773  1.00  0.00     0.224 C 
HETATM    2  N   UNL     1     -43.313  56.690 -55.674  1.00  0.00    -0.351 N 
HETATM    3  O   UNL     1     -43.246  54.673 -56.719  1.00  0.00    -0.273 OA
HETATM    4  H   UNL     1     -43.267  57.700 -55.788  1.00  0.00     0.163 HD
ENDROOT
BRANCH   2   5
HETATM    5  C   UNL     1     -43.886  56.133 -54.470  1.00  0.00     0.135 C 
HETATM    6  C   UNL     1     -42.796  55.624 -53.594  1.00  0.00     0.040 A 
HETATM    7  C   UNL     1     -42.401  56.153 -52.381  1.00  0.00    -0.021 A 
HETATM    8  N   UNL     1     -42.071  54.486 -53.821  1.00  0.00    -0.357 N 
HETATM    9  C   UNL     1     -41.473  55.242 -51.802  1.00  0.00     0.002 A 
HETATM   10  C   UNL     1     -43.001  57.392 -51.809  1.00  0.00     0.042 C 
HETATM   11  C   UNL     1     -41.287  54.207 -52.721  1.00  0.00     0.043 A 
HETATM   12  C   UNL     1     -40.805  55.175 -50.564  1.00  0.00     0.051 A 
HETATM   13  C   UNL     1     -40.451  53.116 -52.460  1.00  0.00     0.033 A 
HETATM   14  C   UNL     1     -39.816  53.062 -51.211  1.00  0.00     0.039 A 
HETATM   15  C   UNL     1     -40.002  54.067 -50.263  1.00  0.00     0.069 A 
HETATM   16  C   UNL     1     -43.827  58.146 -52.868  1.00  0.00     0.007 C 
HETATM   17  C   UNL     1     -44.713  57.192 -53.695  1.00  0.00     0.032 C 
HETATM   18  H   UNL     1     -42.152  53.896 -54.638  1.00  0.00     0.166 HD
BRANCH  15  19
HETATM   19  O   UNL     1     -39.446  54.090 -49.010  1.00  0.00    -0.356 OA
HETATM   20  C   UNL     1     -40.353  53.994 -47.919  1.00  0.00     0.210 C 
ENDBRANCH  15  19
ENDBRANCH   2   5
BRANCH   1  21
HETATM   21  C   UNL     1     -42.832  56.542 -58.103  1.00  0.00     0.164 C 
BRANCH  21  22
HETATM   22  C   UNL     1     -43.505  57.811 -58.575  1.00  0.00     0.075 A 
HETATM   23  N   UNL     1     -42.974  58.968 -58.319  1.00  0.00    -0.172 NA
HETATM   24  N   UNL     1     -43.592  60.116 -58.768  1.00  0.00    -0.230 N 
HETATM   25  C   UNL     1     -44.737  60.119 -59.570  1.00  0.00     0.275 A 
HETATM   26  C   UNL     1     -45.369  58.816 -59.823  1.00  0.00     0.046 A 
HETATM   27  O   UNL     1     -45.238  61.129 -60.060  1.00  0.00    -0.266 OA
HETATM   28  C   UNL     1     -44.774  57.662 -59.333  1.00  0.00     0.006 A 
HETATM   29  C   UNL     1     -46.562  58.742 -60.556  1.00  0.00     0.018 A 
HETATM   30  C   UNL     1     -45.382  56.419 -59.576  1.00  0.00     0.014 A 
HETATM   31  C   UNL     1     -46.573  56.346 -60.303  1.00  0.00     0.001 A 
HETATM   32  C   UNL     1     -47.164  57.507 -60.793  1.00  0.00     0.001 A 
BRANCH  24  33
HETATM   33  C   UNL     1     -42.886  61.389 -58.546  1.00  0.00     0.105 C 
HETATM   34  C   UNL     1     -41.374  61.183 -58.636  1.00  0.00     0.034 C 
HETATM   35  C   UNL     1     -43.274  62.054 -57.227  1.00  0.00     0.034 C 
ENDBRANCH  24  33
ENDBRANCH  21  22
ENDBRANCH   1  21
TORSDOF 5
ENDMDL
MODEL 9
REMARK VINA RESULT:      -8.4      4.606      9.998
REMARK  5 active torsions:
REMARK  status: ('A' for Active; 'I' for Inactive)
REMARK    1  A    between atoms: C_2  and  N_3 
REMARK    2  A    between atoms: C_5  and  C_6 
REMARK    3  A    between atoms: C_6  and  C_7 
REMARK       I    between atoms: C_7  and  N_8 
REMARK    4  A    between atoms: N_8  and  C_9 
REMARK    5  A    between atoms: C_16  and  O_17 
ROOT
HETATM    1  C   UNL     1     -42.989  58.298 -51.436  1.00  0.00     0.224 C 
HETATM    2  N   UNL     1     -42.765  57.252 -52.287  1.00  0.00    -0.351 N 
HETATM    3  O   UNL     1     -42.063  58.882 -50.867  1.00  0.00    -0.273 OA
HETATM    4  H   UNL     1     -43.557  56.849 -52.782  1.00  0.00     0.163 HD
ENDROOT
BRANCH   2   5
HETATM    5  C   UNL     1     -41.421  56.949 -52.725  1.00  0.00     0.135 C 
HETATM    6  C   UNL     1     -41.171  55.490 -52.577  1.00  0.00     0.040 A 
HETATM    7  C   UNL     1     -41.010  54.575 -53.599  1.00  0.00    -0.021 A 
HETATM    8  N   UNL     1     -40.970  54.843 -51.389  1.00  0.00    -0.357 N 
HETATM    9  C   UNL     1     -40.595  53.349 -53.010  1.00  0.00     0.002 A 
HETATM   10  C   UNL     1     -41.142  54.944 -55.038  1.00  0.00     0.042 C 
HETATM   11  C   UNL     1     -40.574  53.544 -51.628  1.00  0.00     0.043 A 
HETATM   12  C   UNL     1     -40.190  52.100 -53.523  1.00  0.00     0.051 A 
HETATM   13  C   UNL     1     -40.179  52.540 -50.736  1.00  0.00     0.033 A 
HETATM   14  C   UNL     1     -39.760  51.315 -51.274  1.00  0.00     0.039 A 
HETATM   15  C   UNL     1     -39.746  51.098 -52.651  1.00  0.00     0.069 A 
HETATM   16  C   UNL     1     -41.790  56.332 -55.196  1.00  0.00     0.007 C 
HETATM   17  C   UNL     1     -41.204  57.359 -54.205  1.00  0.00     0.032 C 
HETATM   18  H   UNL     1     -41.029  55.271 -50.474  1.00  0.00     0.166 HD
BRANCH  15  19
HETATM   19  O   UNL     1     -39.330  49.948 -53.269  1.00  0.00    -0.356 OA
HETATM   20  C   UNL     1     -39.766  49.763 -54.610  1.00  0.00     0.210 C 
ENDBRANCH  15  19
ENDBRANCH   2   5
BRANCH   1  21
HETATM   21  C   UNL     1     -44.394  58.801 -51.239  1.00  0.00     0.164 C 
BRANCH  21  22
HETATM   22  C   UNL     1     -45.044  59.820 -52.149  1.00  0.00     0.075 A 
HETATM   23  N   UNL     1     -44.975  59.683 -53.439  1.00  0.00    -0.172 NA
HETATM   24  N   UNL     1     -45.584  60.613 -54.256  1.00  0.00    -0.230 N 
HETATM   25  C   UNL     1     -46.360  61.673 -53.781  1.00  0.00     0.275 A 
HETATM   26  C   UNL     1     -46.404  61.860 -52.324  1.00  0.00     0.046 A 
HETATM   27  O   UNL     1     -46.991  62.447 -54.498  1.00  0.00    -0.266 OA
HETATM   28  C   UNL     1     -45.752  60.953 -51.500  1.00  0.00     0.006 A 
HETATM   29  C   UNL     1     -47.100  62.946 -51.772  1.00  0.00     0.018 A 
HETATM   30  C   UNL     1     -45.795  61.135 -50.108  1.00  0.00     0.014 A 
HETATM   31  C   UNL     1     -46.485  62.219 -49.559  1.00  0.00     0.001 A 
HETATM   32  C   UNL     1     -47.137  63.125 -50.390  1.00  0.00     0.001 A 
BRANCH  24  33
HETATM   33  C   UNL     1     -45.569  60.345 -55.704  1.00  0.00     0.105 C 
HETATM   34  C   UNL     1     -45.398  58.850 -55.968  1.00  0.00     0.034 C 
HETATM   35  C   UNL     1     -44.508  61.160 -56.440  1.00  0.00     0.034 C 
ENDBRANCH  24  33
ENDBRANCH  21  22
ENDBRANCH   1  21
TORSDOF 5
ENDMDL
MODEL 10
REMARK VINA RESULT:      -8.3      5.568     10.105
REMARK  5 active torsions:
REMARK  status: ('A' for Active; 'I' for Inactive)
REMARK    1  A    between atoms: C_2  and  N_3 
REMARK    2  A    between atoms: C_5  and  C_6 
REMARK    3  A    between atoms: C_6  and  C_7 
REMARK       I    between atoms: C_7  and  N_8 
REMARK    4  A    between atoms: N_8  and  C_9 
REMARK    5  A    between atoms: C_16  and  O_17 
ROOT
HETATM    1  C   UNL     1     -43.910  58.626 -51.419  1.00  0.00     0.224 C 
HETATM    2  N   UNL     1     -43.741  57.551 -52.247  1.00  0.00    -0.351 N 
HETATM    3  O   UNL     1     -42.973  59.374 -51.127  1.00  0.00    -0.273 OA
HETATM    4  H   UNL     1     -44.559  57.006 -52.509  1.00  0.00     0.163 HD
ENDROOT
BRANCH   2   5
HETATM    5  C   UNL     1     -42.511  57.395 -52.991  1.00  0.00     0.135 C 
HETATM    6  C   UNL     1     -41.987  56.016 -52.794  1.00  0.00     0.040 A 
HETATM    7  C   UNL     1     -41.925  55.017 -53.745  1.00  0.00    -0.021 A 
HETATM    8  N   UNL     1     -41.397  55.554 -51.649  1.00  0.00    -0.357 N 
HETATM    9  C   UNL     1     -41.176  53.944 -53.186  1.00  0.00     0.002 A 
HETATM   10  C   UNL     1     -42.460  55.185 -55.126  1.00  0.00     0.042 C 
HETATM   11  C   UNL     1     -40.855  54.307 -51.876  1.00  0.00     0.043 A 
HETATM   12  C   UNL     1     -40.700  52.714 -53.682  1.00  0.00     0.051 A 
HETATM   13  C   UNL     1     -40.092  53.488 -51.038  1.00  0.00     0.033 A 
HETATM   14  C   UNL     1     -39.612  52.280 -51.564  1.00  0.00     0.039 A 
HETATM   15  C   UNL     1     -39.893  51.902 -52.876  1.00  0.00     0.069 A 
HETATM   16  C   UNL     1     -43.355  56.435 -55.224  1.00  0.00     0.007 C 
HETATM   17  C   UNL     1     -42.731  57.649 -54.505  1.00  0.00     0.032 C 
HETATM   18  H   UNL     1     -41.306  56.078 -50.789  1.00  0.00     0.166 HD
BRANCH  15  19
HETATM   19  O   UNL     1     -39.449  50.757 -53.485  1.00  0.00    -0.356 OA
HETATM   20  C   UNL     1     -40.360  50.126 -54.378  1.00  0.00     0.210 C 
ENDBRANCH  15  19
ENDBRANCH   2   5
BRANCH   1  21
HETATM   21  C   UNL     1     -45.286  58.951 -50.902  1.00  0.00     0.164 C 
BRANCH  21  22
HETATM   22  C   UNL     1     -45.847  60.355 -50.869  1.00  0.00     0.075 A 
HETATM   23  N   UNL     1     -46.431  60.852 -51.916  1.00  0.00    -0.172 NA
HETATM   24  N   UNL     1     -46.949  62.129 -51.866  1.00  0.00    -0.230 N 
HETATM   25  C   UNL     1     -46.963  62.917 -50.712  1.00  0.00     0.275 A 
HETATM   26  C   UNL     1     -46.263  62.379 -49.536  1.00  0.00     0.046 A 
HETATM   27  O   UNL     1     -47.512  64.013 -50.626  1.00  0.00    -0.266 OA
HETATM   28  C   UNL     1     -45.699  61.112 -49.598  1.00  0.00     0.006 A 
HETATM   29  C   UNL     1     -46.167  63.140 -48.362  1.00  0.00     0.018 A 
HETATM   30  C   UNL     1     -45.029  60.602 -48.474  1.00  0.00     0.014 A 
HETATM   31  C   UNL     1     -44.930  61.362 -47.306  1.00  0.00     0.001 A 
HETATM   32  C   UNL     1     -45.499  62.632 -47.249  1.00  0.00     0.001 A 
BRANCH  24  33
HETATM   33  C   UNL     1     -47.699  62.596 -53.044  1.00  0.00     0.105 C 
HETATM   34  C   UNL     1     -49.127  62.054 -53.017  1.00  0.00     0.034 C 
HETATM   35  C   UNL     1     -47.002  62.247 -54.358  1.00  0.00     0.034 C 
ENDBRANCH  24  33
ENDBRANCH  21  22
ENDBRANCH   1  21
TORSDOF 5
ENDMDL
