MODEL 1
REMARK VINA RESULT:      -9.4      0.000      0.000
REMARK  9 active torsions:
REMARK  status: ('A' for Active; 'I' for Inactive)
REMARK    1  A    between atoms: C_2  and  O_3 
REMARK    2  A    between atoms: O_3  and  C_4 
REMARK    3  A    between atoms: C_4  and  C_5 
REMARK    4  A    between atoms: C_8  and  N_9 
REMARK       I    between atoms: N_9  and  C_10 
REMARK    5  A    between atoms: C_10  and  C_11 
REMARK    6  A    between atoms: C_11  and  C_12 
REMARK    7  A    between atoms: N_13  and  C_14 
REMARK    8  A    between atoms: C_14  and  C_15 
REMARK    9  A    between atoms: N_23  and  C_24 
ROOT
HETATM    1  C   UNL     1     -41.292  56.082 -53.783  1.00  0.00     0.191 C 
HETATM    2  N   UNL     1     -41.921  55.698 -52.533  1.00  0.00    -0.315 N 
HETATM    3  C   UNL     1     -41.762  54.340 -52.274  1.00  0.00     0.333 C 
HETATM    4  O   UNL     1     -42.382  53.769 -51.389  1.00  0.00    -0.246 OA
HETATM    5  N   UNL     1     -40.866  53.819 -53.185  1.00  0.00    -0.232 N 
HETATM    6  C   UNL     1     -40.483  54.814 -54.062  1.00  0.00     0.256 C 
HETATM    7  O   UNL     1     -39.676  54.761 -54.984  1.00  0.00    -0.270 OA
ENDROOT
BRANCH   1   8
HETATM    8  C   UNL     1     -42.225  56.283 -54.974  1.00  0.00     0.138 C 
BRANCH   8   9
HETATM    9  C   UNL     1     -42.228  57.694 -55.482  1.00  0.00     0.224 C 
HETATM   10  N   UNL     1     -42.548  58.058 -56.747  1.00  0.00    -0.327 N 
HETATM   11  H   UNL     1     -42.353  59.048 -56.859  1.00  0.00     0.169 HD
HETATM   12  O   UNL     1     -41.875  58.604 -54.719  1.00  0.00    -0.273 OA
BRANCH  10  13
HETATM   13  C   UNL     1     -43.158  57.453 -57.857  1.00  0.00     0.034 A 
HETATM   14  C   UNL     1     -42.807  56.237 -58.436  1.00  0.00     0.030 A 
HETATM   15  C   UNL     1     -43.596  55.686 -59.463  1.00  0.00     0.020 A 
HETATM   16  C   UNL     1     -44.744  56.344 -59.923  1.00  0.00     0.039 A 
HETATM   17  C   UNL     1     -45.066  57.590 -59.385  1.00  0.00     0.020 A 
HETATM   18  C   UNL     1     -44.278  58.134 -58.365  1.00  0.00     0.030 A 
BRANCH  16  19
HETATM   19  C   UNL     1     -45.608  55.668 -60.931  1.00  0.00     0.293 C 
HETATM   20  O   UNL     1     -45.179  54.938 -61.810  1.00  0.00    -0.259 OA
BRANCH  19  21
HETATM   21  O   UNL     1     -46.915  55.925 -60.667  1.00  0.00    -0.318 OA
BRANCH  21  22
HETATM   22  C   UNL     1     -47.692  56.443 -61.757  1.00  0.00     0.174 C 
HETATM   23  C   UNL     1     -47.966  57.921 -61.562  1.00  0.00     0.034 C 
ENDBRANCH  21  22
ENDBRANCH  19  21
ENDBRANCH  16  19
ENDBRANCH  10  13
ENDBRANCH   8   9
ENDBRANCH   1   8
BRANCH   2  24
HETATM   24  C   UNL     1     -42.929  56.478 -51.826  1.00  0.00     0.168 C 
BRANCH  24  25
HETATM   25  C   UNL     1     -42.456  57.794 -51.278  1.00  0.00    -0.023 A 
HETATM   26  C   UNL     1     -43.197  58.962 -51.419  1.00  0.00     0.125 A 
HETATM   27  N   UNL     1     -42.797  60.174 -50.972  1.00  0.00    -0.273 NA
HETATM   28  C   UNL     1     -41.583  60.239 -50.388  1.00  0.00     0.116 A 
HETATM   29  C   UNL     1     -40.751  59.145 -50.225  1.00  0.00     0.020 A 
HETATM   30  C   UNL     1     -41.195  57.909 -50.682  1.00  0.00     0.012 A 
ENDBRANCH  24  25
ENDBRANCH   2  24
BRANCH   5  31
HETATM   31  C   UNL     1     -40.456  52.449 -53.235  1.00  0.00     0.047 A 
HETATM   32  C   UNL     1     -40.001  51.775 -52.085  1.00  0.00     0.037 A 
HETATM   33  C   UNL     1     -39.646  50.414 -52.104  1.00  0.00    -0.060 A 
HETATM   34  C   UNL     1     -39.148  49.736 -50.860  1.00  0.00     0.048 C 
HETATM   35  C   UNL     1     -39.719  49.709 -53.304  1.00  0.00     0.007 A 
HETATM   36  C   UNL     1     -40.151  50.354 -54.459  1.00  0.00     0.003 A 
HETATM   37  C   UNL     1     -40.513  51.707 -54.423  1.00  0.00     0.030 A 
ENDBRANCH   5  31
TORSDOF 9
ENDMDL
MODEL 2
REMARK VINA RESULT:      -9.0      2.883      5.693
REMARK  9 active torsions:
REMARK  status: ('A' for Active; 'I' for Inactive)
REMARK    1  A    between atoms: C_2  and  O_3 
REMARK    2  A    between atoms: O_3  and  C_4 
REMARK    3  A    between atoms: C_4  and  C_5 
REMARK    4  A    between atoms: C_8  and  N_9 
REMARK       I    between atoms: N_9  and  C_10 
REMARK    5  A    between atoms: C_10  and  C_11 
REMARK    6  A    between atoms: C_11  and  C_12 
REMARK    7  A    between atoms: N_13  and  C_14 
REMARK    8  A    between atoms: C_14  and  C_15 
REMARK    9  A    between atoms: N_23  and  C_24 
ROOT
HETATM    1  C   UNL     1     -43.252  56.031 -53.130  1.00  0.00     0.191 C 
HETATM    2  N   UNL     1     -42.245  56.243 -54.153  1.00  0.00    -0.315 N 
HETATM    3  C   UNL     1     -41.261  55.259 -54.117  1.00  0.00     0.333 C 
HETATM    4  O   UNL     1     -40.218  55.358 -54.747  1.00  0.00    -0.246 OA
HETATM    5  N   UNL     1     -41.666  54.261 -53.255  1.00  0.00    -0.232 N 
HETATM    6  C   UNL     1     -42.877  54.613 -52.694  1.00  0.00     0.256 C 
HETATM    7  O   UNL     1     -43.580  53.978 -51.914  1.00  0.00    -0.270 OA
ENDROOT
BRANCH   1   8
HETATM    8  C   UNL     1     -43.154  56.916 -51.891  1.00  0.00     0.138 C 
BRANCH   8   9
HETATM    9  C   UNL     1     -44.438  57.623 -51.575  1.00  0.00     0.224 C 
HETATM   10  N   UNL     1     -44.837  58.786 -52.143  1.00  0.00    -0.327 N 
HETATM   11  H   UNL     1     -45.674  59.108 -51.668  1.00  0.00     0.169 HD
HETATM   12  O   UNL     1     -45.181  57.150 -50.705  1.00  0.00    -0.273 OA
BRANCH  10  13
HETATM   13  C   UNL     1     -44.457  59.564 -53.248  1.00  0.00     0.034 A 
HETATM   14  C   UNL     1     -45.105  59.628 -54.479  1.00  0.00     0.030 A 
HETATM   15  C   UNL     1     -44.691  60.559 -55.451  1.00  0.00     0.020 A 
HETATM   16  C   UNL     1     -43.626  61.434 -55.203  1.00  0.00     0.039 A 
HETATM   17  C   UNL     1     -42.938  61.334 -53.994  1.00  0.00     0.020 A 
HETATM   18  C   UNL     1     -43.353  60.407 -53.032  1.00  0.00     0.030 A 
BRANCH  16  19
HETATM   19  C   UNL     1     -43.299  62.476 -56.217  1.00  0.00     0.293 C 
HETATM   20  O   UNL     1     -43.083  63.646 -55.941  1.00  0.00    -0.259 OA
BRANCH  19  21
HETATM   21  O   UNL     1     -43.203  61.911 -57.448  1.00  0.00    -0.318 OA
BRANCH  21  22
HETATM   22  C   UNL     1     -42.322  62.559 -58.377  1.00  0.00     0.174 C 
HETATM   23  C   UNL     1     -40.934  61.953 -58.309  1.00  0.00     0.034 C 
ENDBRANCH  21  22
ENDBRANCH  19  21
ENDBRANCH  16  19
ENDBRANCH  10  13
ENDBRANCH   8   9
ENDBRANCH   1   8
BRANCH   2  24
HETATM   24  C   UNL     1     -42.019  57.497 -54.861  1.00  0.00     0.168 C 
BRANCH  24  25
HETATM   25  C   UNL     1     -42.483  57.522 -56.290  1.00  0.00    -0.023 A 
HETATM   26  C   UNL     1     -43.210  56.477 -56.848  1.00  0.00     0.125 A 
HETATM   27  N   UNL     1     -43.620  56.440 -58.136  1.00  0.00    -0.273 NA
HETATM   28  C   UNL     1     -43.258  57.475 -58.922  1.00  0.00     0.116 A 
HETATM   29  C   UNL     1     -42.509  58.550 -58.477  1.00  0.00     0.020 A 
HETATM   30  C   UNL     1     -42.114  58.567 -57.143  1.00  0.00     0.012 A 
ENDBRANCH  24  25
ENDBRANCH   2  24
BRANCH   5  31
HETATM   31  C   UNL     1     -40.911  53.084 -52.957  1.00  0.00     0.047 A 
HETATM   32  C   UNL     1     -40.701  52.080 -53.922  1.00  0.00     0.037 A 
HETATM   33  C   UNL     1     -39.916  50.941 -53.663  1.00  0.00    -0.060 A 
HETATM   34  C   UNL     1     -39.731  49.885 -54.713  1.00  0.00     0.048 C 
HETATM   35  C   UNL     1     -39.345  50.783 -52.402  1.00  0.00     0.007 A 
HETATM   36  C   UNL     1     -39.547  51.752 -51.424  1.00  0.00     0.003 A 
HETATM   37  C   UNL     1     -40.322  52.886 -51.699  1.00  0.00     0.030 A 
ENDBRANCH   5  31
TORSDOF 9
ENDMDL
MODEL 3
REMARK VINA RESULT:      -8.8      3.497      8.301
REMARK  9 active torsions:
REMARK  status: ('A' for Active; 'I' for Inactive)
REMARK    1  A    between atoms: C_2  and  O_3 
REMARK    2  A    between atoms: O_3  and  C_4 
REMARK    3  A    between atoms: C_4  and  C_5 
REMARK    4  A    between atoms: C_8  and  N_9 
REMARK       I    between atoms: N_9  and  C_10 
REMARK    5  A    between atoms: C_10  and  C_11 
REMARK    6  A    between atoms: C_11  and  C_12 
REMARK    7  A    between atoms: N_13  and  C_14 
REMARK    8  A    between atoms: C_14  and  C_15 
REMARK    9  A    between atoms: N_23  and  C_24 
ROOT
HETATM    1  C   UNL     1     -43.849  58.579 -52.618  1.00  0.00     0.191 C 
HETATM    2  N   UNL     1     -42.672  58.408 -51.787  1.00  0.00    -0.315 N 
HETATM    3  C   UNL     1     -42.457  59.511 -50.966  1.00  0.00     0.333 C 
HETATM    4  O   UNL     1     -41.417  59.665 -50.342  1.00  0.00    -0.246 OA
HETATM    5  N   UNL     1     -43.558  60.339 -51.042  1.00  0.00    -0.232 N 
HETATM    6  C   UNL     1     -44.461  59.809 -51.942  1.00  0.00     0.256 C 
HETATM    7  O   UNL     1     -45.572  60.224 -52.256  1.00  0.00    -0.270 OA
ENDROOT
BRANCH   1   8
HETATM    8  C   UNL     1     -43.599  58.954 -54.075  1.00  0.00     0.138 C 
BRANCH   8   9
HETATM    9  C   UNL     1     -44.414  58.141 -55.036  1.00  0.00     0.224 C 
HETATM   10  N   UNL     1     -44.088  56.896 -55.460  1.00  0.00    -0.327 N 
HETATM   11  H   UNL     1     -44.737  56.624 -56.193  1.00  0.00     0.169 HD
HETATM   12  O   UNL     1     -45.439  58.639 -55.520  1.00  0.00    -0.273 OA
BRANCH  10  13
HETATM   13  C   UNL     1     -43.184  55.893 -55.079  1.00  0.00     0.034 A 
HETATM   14  C   UNL     1     -41.842  55.804 -55.441  1.00  0.00     0.030 A 
HETATM   15  C   UNL     1     -41.017  54.817 -54.872  1.00  0.00     0.020 A 
HETATM   16  C   UNL     1     -41.523  53.908 -53.934  1.00  0.00     0.039 A 
HETATM   17  C   UNL     1     -42.879  53.957 -53.611  1.00  0.00     0.020 A 
HETATM   18  C   UNL     1     -43.695  54.940 -54.181  1.00  0.00     0.030 A 
BRANCH  16  19
HETATM   19  C   UNL     1     -40.585  52.955 -53.275  1.00  0.00     0.293 C 
HETATM   20  O   UNL     1     -40.574  52.739 -52.073  1.00  0.00    -0.259 OA
BRANCH  19  21
HETATM   21  O   UNL     1     -39.827  52.329 -54.211  1.00  0.00    -0.318 OA
BRANCH  21  22
HETATM   22  C   UNL     1     -39.332  51.028 -53.860  1.00  0.00     0.174 C 
HETATM   23  C   UNL     1     -40.226  49.945 -54.430  1.00  0.00     0.034 C 
ENDBRANCH  21  22
ENDBRANCH  19  21
ENDBRANCH  16  19
ENDBRANCH  10  13
ENDBRANCH   8   9
ENDBRANCH   1   8
BRANCH   2  24
HETATM   24  C   UNL     1     -41.609  57.440 -52.027  1.00  0.00     0.168 C 
BRANCH  24  25
HETATM   25  C   UNL     1     -41.530  56.312 -51.038  1.00  0.00    -0.023 A 
HETATM   26  C   UNL     1     -42.665  55.668 -50.561  1.00  0.00     0.125 A 
HETATM   27  N   UNL     1     -42.646  54.671 -49.647  1.00  0.00    -0.273 NA
HETATM   28  C   UNL     1     -41.440  54.322 -49.151  1.00  0.00     0.116 A 
HETATM   29  C   UNL     1     -40.252  54.919 -49.533  1.00  0.00     0.020 A 
HETATM   30  C   UNL     1     -40.302  55.931 -50.486  1.00  0.00     0.012 A 
ENDBRANCH  24  25
ENDBRANCH   2  24
BRANCH   5  31
HETATM   31  C   UNL     1     -43.699  61.576 -50.338  1.00  0.00     0.047 A 
HETATM   32  C   UNL     1     -44.457  61.667 -49.155  1.00  0.00     0.037 A 
HETATM   33  C   UNL     1     -44.562  62.863 -48.420  1.00  0.00    -0.060 A 
HETATM   34  C   UNL     1     -45.395  62.923 -47.172  1.00  0.00     0.048 C 
HETATM   35  C   UNL     1     -43.918  64.006 -48.888  1.00  0.00     0.007 A 
HETATM   36  C   UNL     1     -43.174  63.949 -50.063  1.00  0.00     0.003 A 
HETATM   37  C   UNL     1     -43.069  62.750 -50.778  1.00  0.00     0.030 A 
ENDBRANCH   5  31
TORSDOF 9
ENDMDL
MODEL 4
REMARK VINA RESULT:      -8.8      2.768      5.288
REMARK  9 active torsions:
REMARK  status: ('A' for Active; 'I' for Inactive)
REMARK    1  A    between atoms: C_2  and  O_3 
REMARK    2  A    between atoms: O_3  and  C_4 
REMARK    3  A    between atoms: C_4  and  C_5 
REMARK    4  A    between atoms: C_8  and  N_9 
REMARK       I    between atoms: N_9  and  C_10 
REMARK    5  A    between atoms: C_10  and  C_11 
REMARK    6  A    between atoms: C_11  and  C_12 
REMARK    7  A    between atoms: N_13  and  C_14 
REMARK    8  A    between atoms: C_14  and  C_15 
REMARK    9  A    between atoms: N_23  and  C_24 
ROOT
HETATM    1  C   UNL     1     -43.282  56.021 -53.326  1.00  0.00     0.191 C 
HETATM    2  N   UNL     1     -42.297  56.176 -54.380  1.00  0.00    -0.315 N 
HETATM    3  C   UNL     1     -41.310  55.198 -54.310  1.00  0.00     0.333 C 
HETATM    4  O   UNL     1     -40.281  55.262 -54.967  1.00  0.00    -0.246 OA
HETATM    5  N   UNL     1     -41.694  54.250 -53.383  1.00  0.00    -0.232 N 
HETATM    6  C   UNL     1     -42.894  54.631 -52.817  1.00  0.00     0.256 C 
HETATM    7  O   UNL     1     -43.578  54.040 -51.988  1.00  0.00    -0.270 OA
ENDROOT
BRANCH   1   8
HETATM    8  C   UNL     1     -43.160  56.975 -52.142  1.00  0.00     0.138 C 
BRANCH   8   9
HETATM    9  C   UNL     1     -44.455  57.651 -51.801  1.00  0.00     0.224 C 
HETATM   10  N   UNL     1     -44.874  58.826 -52.330  1.00  0.00    -0.327 N 
HETATM   11  H   UNL     1     -45.715  59.118 -51.843  1.00  0.00     0.169 HD
HETATM   12  O   UNL     1     -45.190  57.137 -50.947  1.00  0.00    -0.273 OA
BRANCH  10  13
HETATM   13  C   UNL     1     -44.508  59.646 -53.408  1.00  0.00     0.034 A 
HETATM   14  C   UNL     1     -43.506  60.613 -53.412  1.00  0.00     0.030 A 
HETATM   15  C   UNL     1     -43.155  61.266 -54.609  1.00  0.00     0.020 A 
HETATM   16  C   UNL     1     -43.802  60.961 -55.813  1.00  0.00     0.039 A 
HETATM   17  C   UNL     1     -44.845  60.035 -55.802  1.00  0.00     0.020 A 
HETATM   18  C   UNL     1     -45.190  59.389 -54.610  1.00  0.00     0.030 A 
BRANCH  16  19
HETATM   19  C   UNL     1     -43.318  61.595 -57.072  1.00  0.00     0.293 C 
HETATM   20  O   UNL     1     -42.138  61.733 -57.351  1.00  0.00    -0.259 OA
BRANCH  19  21
HETATM   21  O   UNL     1     -44.373  61.910 -57.867  1.00  0.00    -0.318 OA
BRANCH  21  22
HETATM   22  C   UNL     1     -44.271  61.514 -59.242  1.00  0.00     0.174 C 
HETATM   23  C   UNL     1     -45.183  60.338 -59.528  1.00  0.00     0.034 C 
ENDBRANCH  21  22
ENDBRANCH  19  21
ENDBRANCH  16  19
ENDBRANCH  10  13
ENDBRANCH   8   9
ENDBRANCH   1   8
BRANCH   2  24
HETATM   24  C   UNL     1     -42.090  57.388 -55.164  1.00  0.00     0.168 C 
BRANCH  24  25
HETATM   25  C   UNL     1     -42.453  57.283 -56.618  1.00  0.00    -0.023 A 
HETATM   26  C   UNL     1     -43.160  56.200 -57.127  1.00  0.00     0.125 A 
HETATM   27  N   UNL     1     -43.480  56.047 -58.432  1.00  0.00    -0.273 NA
HETATM   28  C   UNL     1     -43.042  56.997 -59.283  1.00  0.00     0.116 A 
HETATM   29  C   UNL     1     -42.303  58.099 -58.888  1.00  0.00     0.020 A 
HETATM   30  C   UNL     1     -42.002  58.237 -57.537  1.00  0.00     0.012 A 
ENDBRANCH  24  25
ENDBRANCH   2  24
BRANCH   5  31
HETATM   31  C   UNL     1     -40.928  53.093 -53.035  1.00  0.00     0.047 A 
HETATM   32  C   UNL     1     -40.703  52.053 -53.957  1.00  0.00     0.037 A 
HETATM   33  C   UNL     1     -39.908  50.934 -53.650  1.00  0.00    -0.060 A 
HETATM   34  C   UNL     1     -39.707  49.839 -54.656  1.00  0.00     0.048 C 
HETATM   35  C   UNL     1     -39.342  50.832 -52.380  1.00  0.00     0.007 A 
HETATM   36  C   UNL     1     -39.560  51.837 -51.443  1.00  0.00     0.003 A 
HETATM   37  C   UNL     1     -40.344  52.951 -51.767  1.00  0.00     0.030 A 
ENDBRANCH   5  31
TORSDOF 9
ENDMDL
MODEL 5
REMARK VINA RESULT:      -8.6      1.101      1.822
REMARK  9 active torsions:
REMARK  status: ('A' for Active; 'I' for Inactive)
REMARK    1  A    between atoms: C_2  and  O_3 
REMARK    2  A    between atoms: O_3  and  C_4 
REMARK    3  A    between atoms: C_4  and  C_5 
REMARK    4  A    between atoms: C_8  and  N_9 
REMARK       I    between atoms: N_9  and  C_10 
REMARK    5  A    between atoms: C_10  and  C_11 
REMARK    6  A    between atoms: C_11  and  C_12 
REMARK    7  A    between atoms: N_13  and  C_14 
REMARK    8  A    between atoms: C_14  and  C_15 
REMARK    9  A    between atoms: N_23  and  C_24 
ROOT
HETATM    1  C   UNL     1     -41.954  56.704 -53.451  1.00  0.00     0.191 C 
HETATM    2  N   UNL     1     -42.713  56.289 -52.285  1.00  0.00    -0.315 N 
HETATM    3  C   UNL     1     -42.425  54.975 -51.927  1.00  0.00     0.333 C 
HETATM    4  O   UNL     1     -43.097  54.362 -51.110  1.00  0.00    -0.246 OA
HETATM    5  N   UNL     1     -41.344  54.542 -52.665  1.00  0.00    -0.232 N 
HETATM    6  C   UNL     1     -40.960  55.544 -53.534  1.00  0.00     0.256 C 
HETATM    7  O   UNL     1     -40.021  55.563 -54.324  1.00  0.00    -0.270 OA
ENDROOT
BRANCH   1   8
HETATM    8  C   UNL     1     -42.712  56.733 -54.775  1.00  0.00     0.138 C 
BRANCH   8   9
HETATM    9  C   UNL     1     -42.471  57.988 -55.558  1.00  0.00     0.224 C 
HETATM   10  N   UNL     1     -42.889  58.195 -56.830  1.00  0.00    -0.327 N 
HETATM   11  H   UNL     1     -42.492  59.068 -57.164  1.00  0.00     0.169 HD
HETATM   12  O   UNL     1     -41.807  58.897 -55.041  1.00  0.00    -0.273 OA
BRANCH  10  13
HETATM   13  C   UNL     1     -43.782  57.582 -57.722  1.00  0.00     0.034 A 
HETATM   14  C   UNL     1     -45.100  57.960 -57.966  1.00  0.00     0.030 A 
HETATM   15  C   UNL     1     -45.838  57.338 -58.991  1.00  0.00     0.020 A 
HETATM   16  C   UNL     1     -45.268  56.333 -59.782  1.00  0.00     0.039 A 
HETATM   17  C   UNL     1     -43.968  55.912 -59.502  1.00  0.00     0.020 A 
HETATM   18  C   UNL     1     -43.239  56.532 -58.482  1.00  0.00     0.030 A 
BRANCH  16  19
HETATM   19  C   UNL     1     -46.050  55.785 -60.926  1.00  0.00     0.293 C 
HETATM   20  O   UNL     1     -45.564  55.099 -61.811  1.00  0.00    -0.259 OA
BRANCH  19  21
HETATM   21  O   UNL     1     -47.363  56.098 -60.782  1.00  0.00    -0.318 OA
BRANCH  21  22
HETATM   22  C   UNL     1     -48.019  56.631 -61.942  1.00  0.00     0.174 C 
HETATM   23  C   UNL     1     -48.160  58.136 -61.832  1.00  0.00     0.034 C 
ENDBRANCH  21  22
ENDBRANCH  19  21
ENDBRANCH  16  19
ENDBRANCH  10  13
ENDBRANCH   8   9
ENDBRANCH   1   8
BRANCH   2  24
HETATM   24  C   UNL     1     -43.906  56.955 -51.779  1.00  0.00     0.168 C 
BRANCH  24  25
HETATM   25  C   UNL     1     -43.892  58.455 -51.868  1.00  0.00    -0.023 A 
HETATM   26  C   UNL     1     -44.740  59.152 -52.720  1.00  0.00     0.125 A 
HETATM   27  N   UNL     1     -44.741  60.497 -52.858  1.00  0.00    -0.273 NA
HETATM   28  C   UNL     1     -43.827  61.185 -52.142  1.00  0.00     0.116 A 
HETATM   29  C   UNL     1     -42.916  60.588 -51.288  1.00  0.00     0.020 A 
HETATM   30  C   UNL     1     -42.949  59.204 -51.156  1.00  0.00     0.012 A 
ENDBRANCH  24  25
ENDBRANCH   2  24
BRANCH   5  31
HETATM   31  C   UNL     1     -40.763  53.238 -52.575  1.00  0.00     0.047 A 
HETATM   32  C   UNL     1     -40.746  52.362 -53.677  1.00  0.00     0.037 A 
HETATM   33  C   UNL     1     -40.131  51.097 -53.622  1.00  0.00    -0.060 A 
HETATM   34  C   UNL     1     -40.150  50.185 -54.814  1.00  0.00     0.048 C 
HETATM   35  C   UNL     1     -39.541  50.681 -52.430  1.00  0.00     0.007 A 
HETATM   36  C   UNL     1     -39.555  51.520 -51.320  1.00  0.00     0.003 A 
HETATM   37  C   UNL     1     -40.161  52.781 -51.393  1.00  0.00     0.030 A 
ENDBRANCH   5  31
TORSDOF 9
ENDMDL
MODEL 6
REMARK VINA RESULT:      -8.5      1.605      2.477
REMARK  9 active torsions:
REMARK  status: ('A' for Active; 'I' for Inactive)
REMARK    1  A    between atoms: C_2  and  O_3 
REMARK    2  A    between atoms: O_3  and  C_4 
REMARK    3  A    between atoms: C_4  and  C_5 
REMARK    4  A    between atoms: C_8  and  N_9 
REMARK       I    between atoms: N_9  and  C_10 
REMARK    5  A    between atoms: C_10  and  C_11 
REMARK    6  A    between atoms: C_11  and  C_12 
REMARK    7  A    between atoms: N_13  and  C_14 
REMARK    8  A    between atoms: C_14  and  C_15 
REMARK    9  A    between atoms: N_23  and  C_24 
ROOT
HETATM    1  C   UNL     1     -42.621  58.072 -53.459  1.00  0.00     0.191 C 
HETATM    2  N   UNL     1     -43.539  57.621 -52.430  1.00  0.00    -0.315 N 
HETATM    3  C   UNL     1     -43.186  56.368 -51.939  1.00  0.00     0.333 C 
HETATM    4  O   UNL     1     -43.931  55.716 -51.222  1.00  0.00    -0.246 OA
HETATM    5  N   UNL     1     -41.941  56.035 -52.433  1.00  0.00    -0.232 N 
HETATM    6  C   UNL     1     -41.509  57.036 -53.280  1.00  0.00     0.256 C 
HETATM    7  O   UNL     1     -40.444  57.132 -53.881  1.00  0.00    -0.270 OA
ENDROOT
BRANCH   1   8
HETATM    8  C   UNL     1     -43.109  57.952 -54.900  1.00  0.00     0.138 C 
BRANCH   8   9
HETATM    9  C   UNL     1     -42.327  58.805 -55.854  1.00  0.00     0.224 C 
HETATM   10  N   UNL     1     -42.221  58.574 -57.184  1.00  0.00    -0.327 N 
HETATM   11  H   UNL     1     -41.541  59.221 -57.573  1.00  0.00     0.169 HD
HETATM   12  O   UNL     1     -41.690  59.769 -55.409  1.00  0.00    -0.273 OA
BRANCH  10  13
HETATM   13  C   UNL     1     -42.869  57.769 -58.134  1.00  0.00     0.034 A 
HETATM   14  C   UNL     1     -42.903  56.377 -58.157  1.00  0.00     0.030 A 
HETATM   15  C   UNL     1     -43.709  55.703 -59.093  1.00  0.00     0.020 A 
HETATM   16  C   UNL     1     -44.490  56.411 -60.016  1.00  0.00     0.039 A 
HETATM   17  C   UNL     1     -44.414  57.803 -60.033  1.00  0.00     0.020 A 
HETATM   18  C   UNL     1     -43.611  58.470 -59.101  1.00  0.00     0.030 A 
BRANCH  16  19
HETATM   19  C   UNL     1     -45.413  55.656 -60.910  1.00  0.00     0.293 C 
HETATM   20  O   UNL     1     -45.034  54.887 -61.780  1.00  0.00    -0.259 OA
BRANCH  19  21
HETATM   21  O   UNL     1     -46.701  55.894 -60.554  1.00  0.00    -0.318 OA
BRANCH  21  22
HETATM   22  C   UNL     1     -47.557  56.415 -61.581  1.00  0.00     0.174 C 
HETATM   23  C   UNL     1     -47.807  57.894 -61.369  1.00  0.00     0.034 C 
ENDBRANCH  21  22
ENDBRANCH  19  21
ENDBRANCH  16  19
ENDBRANCH  10  13
ENDBRANCH   8   9
ENDBRANCH   1   8
BRANCH   2  24
HETATM   24  C   UNL     1     -44.873  58.162 -52.200  1.00  0.00     0.168 C 
BRANCH  24  25
HETATM   25  C   UNL     1     -44.921  59.443 -51.415  1.00  0.00    -0.023 A 
HETATM   26  C   UNL     1     -46.023  60.288 -51.449  1.00  0.00     0.125 A 
HETATM   27  N   UNL     1     -46.099  61.465 -50.787  1.00  0.00    -0.273 NA
HETATM   28  C   UNL     1     -45.010  61.841 -50.086  1.00  0.00     0.116 A 
HETATM   29  C   UNL     1     -43.850  61.091 -50.010  1.00  0.00     0.020 A 
HETATM   30  C   UNL     1     -43.807  59.878 -50.690  1.00  0.00     0.012 A 
ENDBRANCH  24  25
ENDBRANCH   2  24
BRANCH   5  31
HETATM   31  C   UNL     1     -41.251  54.815 -52.151  1.00  0.00     0.047 A 
HETATM   32  C   UNL     1     -41.081  53.821 -53.133  1.00  0.00     0.037 A 
HETATM   33  C   UNL     1     -40.358  52.638 -52.889  1.00  0.00    -0.060 A 
HETATM   34  C   UNL     1     -40.214  51.595 -53.959  1.00  0.00     0.048 C 
HETATM   35  C   UNL     1     -39.811  52.426 -51.625  1.00  0.00     0.007 A 
HETATM   36  C   UNL     1     -39.976  53.384 -50.630  1.00  0.00     0.003 A 
HETATM   37  C   UNL     1     -40.689  54.562 -50.890  1.00  0.00     0.030 A 
ENDBRANCH   5  31
TORSDOF 9
ENDMDL
MODEL 7
REMARK VINA RESULT:      -8.5      3.959      8.338
REMARK  9 active torsions:
REMARK  status: ('A' for Active; 'I' for Inactive)
REMARK    1  A    between atoms: C_2  and  O_3 
REMARK    2  A    between atoms: O_3  and  C_4 
REMARK    3  A    between atoms: C_4  and  C_5 
REMARK    4  A    between atoms: C_8  and  N_9 
REMARK       I    between atoms: N_9  and  C_10 
REMARK    5  A    between atoms: C_10  and  C_11 
REMARK    6  A    between atoms: C_11  and  C_12 
REMARK    7  A    between atoms: N_13  and  C_14 
REMARK    8  A    between atoms: C_14  and  C_15 
REMARK    9  A    between atoms: N_23  and  C_24 
ROOT
HETATM    1  C   UNL     1     -43.421  57.385 -51.700  1.00  0.00     0.191 C 
HETATM    2  N   UNL     1     -42.005  57.687 -51.595  1.00  0.00    -0.315 N 
HETATM    3  C   UNL     1     -41.759  59.049 -51.738  1.00  0.00     0.333 C 
HETATM    4  O   UNL     1     -40.630  59.494 -51.888  1.00  0.00    -0.246 OA
HETATM    5  N   UNL     1     -42.964  59.720 -51.720  1.00  0.00    -0.232 N 
HETATM    6  C   UNL     1     -43.990  58.803 -51.619  1.00  0.00     0.256 C 
HETATM    7  O   UNL     1     -45.198  59.002 -51.534  1.00  0.00    -0.270 OA
ENDROOT
BRANCH   1   8
HETATM    8  C   UNL     1     -43.889  56.795 -53.027  1.00  0.00     0.138 C 
BRANCH   8   9
HETATM    9  C   UNL     1     -43.085  57.278 -54.197  1.00  0.00     0.224 C 
HETATM   10  N   UNL     1     -42.070  56.590 -54.771  1.00  0.00    -0.327 N 
HETATM   11  H   UNL     1     -41.619  57.188 -55.457  1.00  0.00     0.169 HD
HETATM   12  O   UNL     1     -43.321  58.402 -54.660  1.00  0.00    -0.273 OA
BRANCH  10  13
HETATM   13  C   UNL     1     -41.579  55.275 -54.731  1.00  0.00     0.034 A 
HETATM   14  C   UNL     1     -40.246  54.885 -54.834  1.00  0.00     0.030 A 
HETATM   15  C   UNL     1     -39.884  53.539 -54.638  1.00  0.00     0.020 A 
HETATM   16  C   UNL     1     -40.850  52.569 -54.339  1.00  0.00     0.039 A 
HETATM   17  C   UNL     1     -42.191  52.946 -54.292  1.00  0.00     0.020 A 
HETATM   18  C   UNL     1     -42.546  54.285 -54.488  1.00  0.00     0.030 A 
BRANCH  16  19
HETATM   19  C   UNL     1     -40.405  51.181 -54.028  1.00  0.00     0.293 C 
HETATM   20  O   UNL     1     -40.635  50.220 -54.745  1.00  0.00    -0.259 OA
BRANCH  19  21
HETATM   21  O   UNL     1     -39.656  51.177 -52.896  1.00  0.00    -0.318 OA
BRANCH  21  22
HETATM   22  C   UNL     1     -39.424  49.895 -52.293  1.00  0.00     0.174 C 
HETATM   23  C   UNL     1     -39.715  49.943 -50.807  1.00  0.00     0.034 C 
ENDBRANCH  21  22
ENDBRANCH  19  21
ENDBRANCH  16  19
ENDBRANCH  10  13
ENDBRANCH   8   9
ENDBRANCH   1   8
BRANCH   2  24
HETATM   24  C   UNL     1     -40.927  56.716 -51.736  1.00  0.00     0.168 C 
BRANCH  24  25
HETATM   25  C   UNL     1     -40.925  55.606 -50.723  1.00  0.00    -0.023 A 
HETATM   26  C   UNL     1     -41.116  55.843 -49.367  1.00  0.00     0.125 A 
HETATM   27  N   UNL     1     -41.089  54.881 -48.417  1.00  0.00    -0.273 NA
HETATM   28  C   UNL     1     -40.822  53.625 -48.828  1.00  0.00     0.116 A 
HETATM   29  C   UNL     1     -40.585  53.283 -50.148  1.00  0.00     0.020 A 
HETATM   30  C   UNL     1     -40.634  54.291 -51.105  1.00  0.00     0.012 A 
ENDBRANCH  24  25
ENDBRANCH   2  24
BRANCH   5  31
HETATM   31  C   UNL     1     -43.111  61.137 -51.848  1.00  0.00     0.047 A 
HETATM   32  C   UNL     1     -42.975  61.994 -50.738  1.00  0.00     0.037 A 
HETATM   33  C   UNL     1     -43.063  63.393 -50.854  1.00  0.00    -0.060 A 
HETATM   34  C   UNL     1     -42.930  64.271 -49.644  1.00  0.00     0.048 C 
HETATM   35  C   UNL     1     -43.319  63.956 -52.103  1.00  0.00     0.007 A 
HETATM   36  C   UNL     1     -43.472  63.133 -53.215  1.00  0.00     0.003 A 
HETATM   37  C   UNL     1     -43.371  61.742 -53.086  1.00  0.00     0.030 A 
ENDBRANCH   5  31
TORSDOF 9
ENDMDL
MODEL 8
REMARK VINA RESULT:      -8.3      3.190      7.953
REMARK  9 active torsions:
REMARK  status: ('A' for Active; 'I' for Inactive)
REMARK    1  A    between atoms: C_2  and  O_3 
REMARK    2  A    between atoms: O_3  and  C_4 
REMARK    3  A    between atoms: C_4  and  C_5 
REMARK    4  A    between atoms: C_8  and  N_9 
REMARK       I    between atoms: N_9  and  C_10 
REMARK    5  A    between atoms: C_10  and  C_11 
REMARK    6  A    between atoms: C_11  and  C_12 
REMARK    7  A    between atoms: N_13  and  C_14 
REMARK    8  A    between atoms: C_14  and  C_15 
REMARK    9  A    between atoms: N_23  and  C_24 
ROOT
HETATM    1  C   UNL     1     -43.596  55.878 -54.755  1.00  0.00     0.191 C 
HETATM    2  N   UNL     1     -42.393  56.039 -55.550  1.00  0.00    -0.315 N 
HETATM    3  C   UNL     1     -41.349  55.257 -55.065  1.00  0.00     0.333 C 
HETATM    4  O   UNL     1     -40.198  55.394 -55.454  1.00  0.00    -0.246 OA
HETATM    5  N   UNL     1     -41.846  54.404 -54.101  1.00  0.00    -0.232 N 
HETATM    6  C   UNL     1     -43.191  54.661 -53.922  1.00  0.00     0.256 C 
HETATM    7  O   UNL     1     -43.993  54.092 -53.189  1.00  0.00    -0.270 OA
ENDROOT
BRANCH   1   8
HETATM    8  C   UNL     1     -43.911  57.002 -53.773  1.00  0.00     0.138 C 
BRANCH   8   9
HETATM    9  C   UNL     1     -44.906  57.986 -54.310  1.00  0.00     0.224 C 
HETATM   10  N   UNL     1     -45.480  58.976 -53.585  1.00  0.00    -0.327 N 
HETATM   11  H   UNL     1     -46.200  59.416 -54.150  1.00  0.00     0.169 HD
HETATM   12  O   UNL     1     -45.277  57.878 -55.487  1.00  0.00    -0.273 OA
BRANCH  10  13
HETATM   13  C   UNL     1     -45.259  59.587 -52.341  1.00  0.00     0.034 A 
HETATM   14  C   UNL     1     -44.688  60.838 -52.121  1.00  0.00     0.030 A 
HETATM   15  C   UNL     1     -44.655  61.385 -50.825  1.00  0.00     0.020 A 
HETATM   16  C   UNL     1     -45.193  60.689 -49.735  1.00  0.00     0.039 A 
HETATM   17  C   UNL     1     -45.714  59.412 -49.942  1.00  0.00     0.020 A 
HETATM   18  C   UNL     1     -45.744  58.872 -51.232  1.00  0.00     0.030 A 
BRANCH  16  19
HETATM   19  C   UNL     1     -45.237  61.357 -48.403  1.00  0.00     0.293 C 
HETATM   20  O   UNL     1     -44.511  62.287 -48.088  1.00  0.00    -0.259 OA
BRANCH  19  21
HETATM   21  O   UNL     1     -46.239  60.832 -47.654  1.00  0.00    -0.318 OA
BRANCH  21  22
HETATM   22  C   UNL     1     -45.900  60.462 -46.310  1.00  0.00     0.174 C 
HETATM   23  C   UNL     1     -46.661  59.220 -45.889  1.00  0.00     0.034 C 
ENDBRANCH  21  22
ENDBRANCH  19  21
ENDBRANCH  16  19
ENDBRANCH  10  13
ENDBRANCH   8   9
ENDBRANCH   1   8
BRANCH   2  24
HETATM   24  C   UNL     1     -42.134  57.140 -56.469  1.00  0.00     0.168 C 
BRANCH  24  25
HETATM   25  C   UNL     1     -42.796  57.026 -57.813  1.00  0.00    -0.023 A 
HETATM   26  C   UNL     1     -43.340  58.126 -58.464  1.00  0.00     0.125 A 
HETATM   27  N   UNL     1     -43.973  58.067 -59.658  1.00  0.00    -0.273 NA
HETATM   28  C   UNL     1     -44.107  56.847 -60.217  1.00  0.00     0.116 A 
HETATM   29  C   UNL     1     -43.631  55.682 -59.640  1.00  0.00     0.020 A 
HETATM   30  C   UNL     1     -42.971  55.777 -58.419  1.00  0.00     0.012 A 
ENDBRANCH  24  25
ENDBRANCH   2  24
BRANCH   5  31
HETATM   31  C   UNL     1     -41.066  53.453 -53.372  1.00  0.00     0.047 A 
HETATM   32  C   UNL     1     -40.663  52.233 -53.950  1.00  0.00     0.037 A 
HETATM   33  C   UNL     1     -39.851  51.310 -53.267  1.00  0.00    -0.060 A 
HETATM   34  C   UNL     1     -39.458  50.013 -53.912  1.00  0.00     0.048 C 
HETATM   35  C   UNL     1     -39.448  51.594 -51.963  1.00  0.00     0.007 A 
HETATM   36  C   UNL     1     -39.844  52.785 -51.361  1.00  0.00     0.003 A 
HETATM   37  C   UNL     1     -40.643  53.700 -52.057  1.00  0.00     0.030 A 
ENDBRANCH   5  31
TORSDOF 9
ENDMDL
MODEL 9
REMARK VINA RESULT:      -8.3      2.636      4.949
REMARK  9 active torsions:
REMARK  status: ('A' for Active; 'I' for Inactive)
REMARK    1  A    between atoms: C_2  and  O_3 
REMARK    2  A    between atoms: O_3  and  C_4 
REMARK    3  A    between atoms: C_4  and  C_5 
REMARK    4  A    between atoms: C_8  and  N_9 
REMARK       I    between atoms: N_9  and  C_10 
REMARK    5  A    between atoms: C_10  and  C_11 
REMARK    6  A    between atoms: C_11  and  C_12 
REMARK    7  A    between atoms: N_13  and  C_14 
REMARK    8  A    between atoms: C_14  and  C_15 
REMARK    9  A    between atoms: N_23  and  C_24 
ROOT
HETATM    1  C   UNL     1     -42.201  56.224 -54.614  1.00  0.00     0.191 C 
HETATM    2  N   UNL     1     -42.689  56.208 -53.248  1.00  0.00    -0.315 N 
HETATM    3  C   UNL     1     -42.298  55.055 -52.576  1.00  0.00     0.333 C 
HETATM    4  O   UNL     1     -42.768  54.742 -51.491  1.00  0.00    -0.246 OA
HETATM    5  N   UNL     1     -41.381  54.379 -53.354  1.00  0.00    -0.232 N 
HETATM    6  C   UNL     1     -41.213  55.056 -54.545  1.00  0.00     0.256 C 
HETATM    7  O   UNL     1     -40.460  54.801 -55.479  1.00  0.00    -0.270 OA
ENDROOT
BRANCH   1   8
HETATM    8  C   UNL     1     -43.217  55.879 -55.699  1.00  0.00     0.138 C 
BRANCH   8   9
HETATM    9  C   UNL     1     -43.104  56.761 -56.906  1.00  0.00     0.224 C 
HETATM   10  N   UNL     1     -43.346  58.094 -56.912  1.00  0.00    -0.327 N 
HETATM   11  H   UNL     1     -43.318  58.424 -57.872  1.00  0.00     0.169 HD
HETATM   12  O   UNL     1     -42.811  56.249 -57.995  1.00  0.00    -0.273 OA
BRANCH  10  13
HETATM   13  C   UNL     1     -43.512  59.104 -55.952  1.00  0.00     0.034 A 
HETATM   14  C   UNL     1     -42.521  59.945 -55.454  1.00  0.00     0.030 A 
HETATM   15  C   UNL     1     -42.858  61.008 -54.594  1.00  0.00     0.020 A 
HETATM   16  C   UNL     1     -44.188  61.240 -54.223  1.00  0.00     0.039 A 
HETATM   17  C   UNL     1     -45.176  60.365 -54.673  1.00  0.00     0.020 A 
HETATM   18  C   UNL     1     -44.836  59.311 -55.527  1.00  0.00     0.030 A 
BRANCH  16  19
HETATM   19  C   UNL     1     -44.508  62.443 -53.403  1.00  0.00     0.293 C 
HETATM   20  O   UNL     1     -43.694  63.018 -52.698  1.00  0.00    -0.259 OA
BRANCH  19  21
HETATM   21  O   UNL     1     -45.790  62.829 -53.627  1.00  0.00    -0.318 OA
BRANCH  21  22
HETATM   22  C   UNL     1     -46.564  63.164 -52.466  1.00  0.00     0.174 C 
HETATM   23  C   UNL     1     -46.981  61.910 -51.722  1.00  0.00     0.034 C 
ENDBRANCH  21  22
ENDBRANCH  19  21
ENDBRANCH  16  19
ENDBRANCH  10  13
ENDBRANCH   8   9
ENDBRANCH   1   8
BRANCH   2  24
HETATM   24  C   UNL     1     -43.770  57.040 -52.734  1.00  0.00     0.168 C 
BRANCH  24  25
HETATM   25  C   UNL     1     -43.336  58.279 -52.003  1.00  0.00    -0.023 A 
HETATM   26  C   UNL     1     -42.001  58.652 -51.911  1.00  0.00     0.125 A 
HETATM   27  N   UNL     1     -41.560  59.739 -51.237  1.00  0.00    -0.273 NA
HETATM   28  C   UNL     1     -42.488  60.472 -50.589  1.00  0.00     0.116 A 
HETATM   29  C   UNL     1     -43.839  60.172 -50.588  1.00  0.00     0.020 A 
HETATM   30  C   UNL     1     -44.264  59.057 -51.302  1.00  0.00     0.012 A 
ENDBRANCH  24  25
ENDBRANCH   2  24
BRANCH   5  31
HETATM   31  C   UNL     1     -40.758  53.142 -52.994  1.00  0.00     0.047 A 
HETATM   32  C   UNL     1     -40.622  52.090 -53.919  1.00  0.00     0.037 A 
HETATM   33  C   UNL     1     -39.964  50.888 -53.599  1.00  0.00    -0.060 A 
HETATM   34  C   UNL     1     -39.856  49.783 -54.609  1.00  0.00     0.048 C 
HETATM   35  C   UNL     1     -39.451  50.716 -52.315  1.00  0.00     0.007 A 
HETATM   36  C   UNL     1     -39.585  51.734 -51.375  1.00  0.00     0.003 A 
HETATM   37  C   UNL     1     -40.232  52.930 -51.711  1.00  0.00     0.030 A 
ENDBRANCH   5  31
TORSDOF 9
ENDMDL
MODEL 10
REMARK VINA RESULT:      -8.3      2.948      7.719
REMARK  9 active torsions:
REMARK  status: ('A' for Active; 'I' for Inactive)
REMARK    1  A    between atoms: C_2  and  O_3 
REMARK    2  A    between atoms: O_3  and  C_4 
REMARK    3  A    between atoms: C_4  and  C_5 
REMARK    4  A    between atoms: C_8  and  N_9 
REMARK       I    between atoms: N_9  and  C_10 
REMARK    5  A    between atoms: C_10  and  C_11 
REMARK    6  A    between atoms: C_11  and  C_12 
REMARK    7  A    between atoms: N_13  and  C_14 
REMARK    8  A    between atoms: C_14  and  C_15 
REMARK    9  A    between atoms: N_23  and  C_24 
ROOT
HETATM    1  C   UNL     1     -43.852  58.879 -53.198  1.00  0.00     0.191 C 
HETATM    2  N   UNL     1     -43.028  59.894 -53.828  1.00  0.00    -0.315 N 
HETATM    3  C   UNL     1     -42.603  59.499 -55.092  1.00  0.00     0.333 C 
HETATM    4  O   UNL     1     -41.739  60.106 -55.708  1.00  0.00    -0.246 OA
HETATM    5  N   UNL     1     -43.277  58.348 -55.446  1.00  0.00    -0.232 N 
HETATM    6  C   UNL     1     -44.096  57.966 -54.402  1.00  0.00     0.256 C 
HETATM    7  O   UNL     1     -44.881  57.025 -54.341  1.00  0.00    -0.270 OA
ENDROOT
BRANCH   1   8
HETATM    8  C   UNL     1     -43.176  58.028 -52.128  1.00  0.00     0.138 C 
BRANCH   8   9
HETATM    9  C   UNL     1     -44.085  56.985 -51.549  1.00  0.00     0.224 C 
HETATM   10  N   UNL     1     -43.893  55.649 -51.657  1.00  0.00    -0.327 N 
HETATM   11  H   UNL     1     -44.710  55.173 -51.287  1.00  0.00     0.169 HD
HETATM   12  O   UNL     1     -45.114  57.350 -50.964  1.00  0.00    -0.273 OA
BRANCH  10  13
HETATM   13  C   UNL     1     -42.843  54.798 -52.036  1.00  0.00     0.034 A 
HETATM   14  C   UNL     1     -41.890  54.230 -51.194  1.00  0.00     0.030 A 
HETATM   15  C   UNL     1     -40.977  53.283 -51.693  1.00  0.00     0.020 A 
HETATM   16  C   UNL     1     -41.005  52.893 -53.038  1.00  0.00     0.039 A 
HETATM   17  C   UNL     1     -41.920  53.501 -53.897  1.00  0.00     0.020 A 
HETATM   18  C   UNL     1     -42.825  54.443 -53.396  1.00  0.00     0.030 A 
BRANCH  16  19
HETATM   19  C   UNL     1     -40.093  51.805 -53.492  1.00  0.00     0.293 C 
HETATM   20  O   UNL     1     -40.016  51.426 -54.650  1.00  0.00    -0.259 OA
BRANCH  19  21
HETATM   21  O   UNL     1     -39.330  51.376 -52.455  1.00  0.00    -0.318 OA
BRANCH  21  22
HETATM   22  C   UNL     1     -39.472  49.995 -52.092  1.00  0.00     0.174 C 
HETATM   23  C   UNL     1     -39.750  49.859 -50.608  1.00  0.00     0.034 C 
ENDBRANCH  21  22
ENDBRANCH  19  21
ENDBRANCH  16  19
ENDBRANCH  10  13
ENDBRANCH   8   9
ENDBRANCH   1   8
BRANCH   2  24
HETATM   24  C   UNL     1     -42.372  60.994 -53.131  1.00  0.00     0.168 C 
BRANCH  24  25
HETATM   25  C   UNL     1     -43.226  61.725 -52.135  1.00  0.00    -0.023 A 
HETATM   26  C   UNL     1     -44.207  62.629 -52.527  1.00  0.00     0.125 A 
HETATM   27  N   UNL     1     -44.976  63.335 -51.667  1.00  0.00    -0.273 NA
HETATM   28  C   UNL     1     -44.735  63.164 -50.351  1.00  0.00     0.116 A 
HETATM   29  C   UNL     1     -43.763  62.314 -49.854  1.00  0.00     0.020 A 
HETATM   30  C   UNL     1     -42.997  61.591 -50.761  1.00  0.00     0.012 A 
ENDBRANCH  24  25
ENDBRANCH   2  24
BRANCH   5  31
HETATM   31  C   UNL     1     -43.099  57.643 -56.678  1.00  0.00     0.047 A 
HETATM   32  C   UNL     1     -42.782  58.318 -57.872  1.00  0.00     0.037 A 
HETATM   33  C   UNL     1     -42.550  57.636 -59.081  1.00  0.00    -0.060 A 
HETATM   34  C   UNL     1     -42.231  58.394 -60.337  1.00  0.00     0.048 C 
HETATM   35  C   UNL     1     -42.663  56.248 -59.110  1.00  0.00     0.007 A 
HETATM   36  C   UNL     1     -42.990  55.556 -57.948  1.00  0.00     0.003 A 
HETATM   37  C   UNL     1     -43.207  56.247 -56.749  1.00  0.00     0.030 A 
ENDBRANCH   5  31
TORSDOF 9
ENDMDL
