MODEL 1
REMARK VINA RESULT:      -8.5      0.000      0.000
REMARK  6 active torsions:
REMARK  status: ('A' for Active; 'I' for Inactive)
REMARK    1  A    between atoms: C_4  and  C_5 
REMARK    2  A    between atoms: C_5  and  N_6 
REMARK    3  A    between atoms: C_5  and  C_22 
REMARK    4  A    between atoms: N_6  and  C_9 
REMARK    5  A    between atoms: C_9  and  C_10 
REMARK    6  A    between atoms: C_13  and  C_14 
REMARK       I    between atoms: C_22  and  N_23 
ROOT
HETATM    1  N   UNL     1     -42.017  58.093 -55.129  1.00  0.00    -0.054 N 
HETATM    2  H   UNL     1     -41.259  58.300 -55.789  1.00  0.00     0.278 HD
HETATM    3  H   UNL     1     -42.558  58.960 -55.015  1.00  0.00     0.278 HD
ENDROOT
BRANCH   1   4
HETATM    4  C   UNL     1     -42.970  57.083 -55.725  1.00  0.00     0.310 C 
BRANCH   4   5
HETATM    5  C   UNL     1     -42.778  57.013 -57.225  1.00  0.00    -0.019 A 
HETATM    6  C   UNL     1     -43.155  55.859 -57.931  1.00  0.00     0.010 A 
HETATM    7  C   UNL     1     -42.971  55.785 -59.314  1.00  0.00     0.001 A 
HETATM    8  C   UNL     1     -42.403  56.853 -60.003  1.00  0.00     0.000 A 
HETATM    9  C   UNL     1     -42.015  57.999 -59.315  1.00  0.00     0.001 A 
HETATM   10  C   UNL     1     -42.198  58.081 -57.933  1.00  0.00     0.010 A 
ENDBRANCH   4   5
BRANCH   4  11
HETATM   11  C   UNL     1     -44.430  57.443 -55.356  1.00  0.00     0.251 C 
HETATM   12  N   UNL     1     -45.155  56.526 -54.657  1.00  0.00    -0.368 N 
HETATM   13  H   UNL     1     -44.931  55.537 -54.643  1.00  0.00     0.159 HD
HETATM   14  H   UNL     1     -46.131  56.752 -54.479  1.00  0.00     0.159 HD
HETATM   15  O   UNL     1     -44.896  58.543 -55.650  1.00  0.00    -0.271 OA
ENDBRANCH   4  11
ENDBRANCH   1   4
BRANCH   1  16
HETATM   16  C   UNL     1     -41.457  57.732 -53.798  1.00  0.00     0.272 C 
BRANCH  16  17
HETATM   17  C   UNL     1     -41.164  56.260 -53.685  1.00  0.00    -0.033 A 
HETATM   18  C   UNL     1     -40.504  55.571 -54.711  1.00  0.00     0.010 A 
HETATM   19  C   UNL     1     -40.207  54.209 -54.580  1.00  0.00     0.013 A 
HETATM   20  C   UNL     1     -40.534  53.496 -53.415  1.00  0.00    -0.025 A 
HETATM   21  C   UNL     1     -41.189  54.199 -52.391  1.00  0.00     0.013 A 
HETATM   22  C   UNL     1     -41.502  55.558 -52.521  1.00  0.00     0.010 A 
BRANCH  20  23
HETATM   23  C   UNL     1     -40.181  52.071 -53.263  1.00  0.00    -0.008 A 
HETATM   24  C   UNL     1     -39.753  51.541 -52.043  1.00  0.00     0.128 A 
HETATM   25  N   UNL     1     -39.413  50.247 -51.831  1.00  0.00    -0.272 NA
HETATM   26  C   UNL     1     -39.510  49.414 -52.886  1.00  0.00     0.116 A 
HETATM   27  C   UNL     1     -39.927  49.820 -54.142  1.00  0.00     0.020 A 
HETATM   28  C   UNL     1     -40.262  51.162 -54.328  1.00  0.00     0.015 A 
ENDBRANCH  20  23
ENDBRANCH  16  17
ENDBRANCH   1  16
TORSDOF 6
ENDMDL
MODEL 2
REMARK VINA RESULT:      -8.3      2.360      3.100
REMARK  6 active torsions:
REMARK  status: ('A' for Active; 'I' for Inactive)
REMARK    1  A    between atoms: C_4  and  C_5 
REMARK    2  A    between atoms: C_5  and  N_6 
REMARK    3  A    between atoms: C_5  and  C_22 
REMARK    4  A    between atoms: N_6  and  C_9 
REMARK    5  A    between atoms: C_9  and  C_10 
REMARK    6  A    between atoms: C_13  and  C_14 
REMARK       I    between atoms: C_22  and  N_23 
ROOT
HETATM    1  N   UNL     1     -43.960  56.122 -57.717  1.00  0.00    -0.054 N 
HETATM    2  H   UNL     1     -44.810  56.694 -57.765  1.00  0.00     0.278 HD
HETATM    3  H   UNL     1     -44.251  55.177 -57.437  1.00  0.00     0.278 HD
ENDROOT
BRANCH   1   4
HETATM    4  C   UNL     1     -43.344  55.980 -59.090  1.00  0.00     0.310 C 
BRANCH   4   5
HETATM    5  C   UNL     1     -43.192  57.343 -59.732  1.00  0.00    -0.019 A 
HETATM    6  C   UNL     1     -44.296  58.208 -59.820  1.00  0.00     0.010 A 
HETATM    7  C   UNL     1     -44.164  59.462 -60.420  1.00  0.00     0.001 A 
HETATM    8  C   UNL     1     -42.937  59.862 -60.946  1.00  0.00     0.000 A 
HETATM    9  C   UNL     1     -41.838  59.011 -60.875  1.00  0.00     0.001 A 
HETATM   10  C   UNL     1     -41.962  57.757 -60.274  1.00  0.00     0.010 A 
ENDBRANCH   4   5
BRANCH   4  11
HETATM   11  C   UNL     1     -44.202  55.034 -59.965  1.00  0.00     0.251 C 
HETATM   12  N   UNL     1     -44.802  53.973 -59.357  1.00  0.00    -0.368 N 
HETATM   13  H   UNL     1     -44.480  53.584 -58.477  1.00  0.00     0.159 HD
HETATM   14  H   UNL     1     -45.308  53.327 -59.957  1.00  0.00     0.159 HD
HETATM   15  O   UNL     1     -44.367  55.267 -61.162  1.00  0.00    -0.271 OA
ENDBRANCH   4  11
ENDBRANCH   1   4
BRANCH   1  16
HETATM   16  C   UNL     1     -43.047  56.643 -56.662  1.00  0.00     0.272 C 
BRANCH  16  17
HETATM   17  C   UNL     1     -42.423  55.539 -55.854  1.00  0.00    -0.033 A 
HETATM   18  C   UNL     1     -43.099  54.332 -55.630  1.00  0.00     0.010 A 
HETATM   19  C   UNL     1     -42.494  53.299 -54.904  1.00  0.00     0.013 A 
HETATM   20  C   UNL     1     -41.189  53.423 -54.400  1.00  0.00    -0.025 A 
HETATM   21  C   UNL     1     -40.519  54.634 -54.637  1.00  0.00     0.013 A 
HETATM   22  C   UNL     1     -41.123  55.677 -55.350  1.00  0.00     0.010 A 
BRANCH  20  23
HETATM   23  C   UNL     1     -40.538  52.316 -53.673  1.00  0.00    -0.008 A 
HETATM   24  C   UNL     1     -40.139  52.441 -52.339  1.00  0.00     0.128 A 
HETATM   25  N   UNL     1     -39.538  51.469 -51.611  1.00  0.00    -0.272 NA
HETATM   26  C   UNL     1     -39.323  50.292 -52.231  1.00  0.00     0.116 A 
HETATM   27  C   UNL     1     -39.679  50.047 -53.546  1.00  0.00     0.020 A 
HETATM   28  C   UNL     1     -40.290  51.072 -54.270  1.00  0.00     0.015 A 
ENDBRANCH  20  23
ENDBRANCH  16  17
ENDBRANCH   1  16
TORSDOF 6
ENDMDL
MODEL 3
REMARK VINA RESULT:      -8.2      2.544      3.334
REMARK  6 active torsions:
REMARK  status: ('A' for Active; 'I' for Inactive)
REMARK    1  A    between atoms: C_4  and  C_5 
REMARK    2  A    between atoms: C_5  and  N_6 
REMARK    3  A    between atoms: C_5  and  C_22 
REMARK    4  A    between atoms: N_6  and  C_9 
REMARK    5  A    between atoms: C_9  and  C_10 
REMARK    6  A    between atoms: C_13  and  C_14 
REMARK       I    between atoms: C_22  and  N_23 
ROOT
HETATM    1  N   UNL     1     -42.441  56.453 -57.921  1.00  0.00    -0.054 N 
HETATM    2  H   UNL     1     -42.716  55.532 -58.279  1.00  0.00     0.278 HD
HETATM    3  H   UNL     1     -41.422  56.527 -58.037  1.00  0.00     0.278 HD
ENDROOT
BRANCH   1   4
HETATM    4  C   UNL     1     -43.037  57.548 -58.776  1.00  0.00     0.310 C 
BRANCH   4   5
HETATM    5  C   UNL     1     -44.386  57.111 -59.309  1.00  0.00    -0.019 A 
HETATM    6  C   UNL     1     -45.507  57.943 -59.156  1.00  0.00     0.010 A 
HETATM    7  C   UNL     1     -46.756  57.540 -59.636  1.00  0.00     0.001 A 
HETATM    8  C   UNL     1     -46.901  56.305 -60.263  1.00  0.00     0.000 A 
HETATM    9  C   UNL     1     -45.800  55.466 -60.412  1.00  0.00     0.001 A 
HETATM   10  C   UNL     1     -44.549  55.862 -59.937  1.00  0.00     0.010 A 
ENDBRANCH   4   5
BRANCH   4  11
HETATM   11  C   UNL     1     -42.067  57.917 -59.925  1.00  0.00     0.251 C 
HETATM   12  N   UNL     1     -41.136  56.994 -60.294  1.00  0.00    -0.368 N 
HETATM   13  H   UNL     1     -40.829  56.243 -59.685  1.00  0.00     0.159 HD
HETATM   14  H   UNL     1     -40.466  57.277 -61.005  1.00  0.00     0.159 HD
HETATM   15  O   UNL     1     -42.170  58.995 -60.508  1.00  0.00    -0.271 OA
ENDBRANCH   4  11
ENDBRANCH   1   4
BRANCH   1  16
HETATM   16  C   UNL     1     -42.739  56.550 -56.466  1.00  0.00     0.272 C 
BRANCH  16  17
HETATM   17  C   UNL     1     -42.161  55.399 -55.689  1.00  0.00    -0.033 A 
HETATM   18  C   UNL     1     -42.936  54.274 -55.375  1.00  0.00     0.010 A 
HETATM   19  C   UNL     1     -42.378  53.194 -54.680  1.00  0.00     0.013 A 
HETATM   20  C   UNL     1     -41.026  53.188 -54.298  1.00  0.00    -0.025 A 
HETATM   21  C   UNL     1     -40.258  54.317 -54.625  1.00  0.00     0.013 A 
HETATM   22  C   UNL     1     -40.814  55.407 -55.307  1.00  0.00     0.010 A 
BRANCH  20  23
HETATM   23  C   UNL     1     -40.431  52.030 -53.604  1.00  0.00    -0.008 A 
HETATM   24  C   UNL     1     -39.974  52.112 -52.286  1.00  0.00     0.128 A 
HETATM   25  N   UNL     1     -39.417  51.092 -51.588  1.00  0.00    -0.272 NA
HETATM   26  C   UNL     1     -39.311  49.909 -52.225  1.00  0.00     0.116 A 
HETATM   27  C   UNL     1     -39.733  49.704 -53.526  1.00  0.00     0.020 A 
HETATM   28  C   UNL     1     -40.295  50.777 -54.219  1.00  0.00     0.015 A 
ENDBRANCH  20  23
ENDBRANCH  16  17
ENDBRANCH   1  16
TORSDOF 6
ENDMDL
MODEL 4
REMARK VINA RESULT:      -8.2      2.567      4.654
REMARK  6 active torsions:
REMARK  status: ('A' for Active; 'I' for Inactive)
REMARK    1  A    between atoms: C_4  and  C_5 
REMARK    2  A    between atoms: C_5  and  N_6 
REMARK    3  A    between atoms: C_5  and  C_22 
REMARK    4  A    between atoms: N_6  and  C_9 
REMARK    5  A    between atoms: C_9  and  C_10 
REMARK    6  A    between atoms: C_13  and  C_14 
REMARK       I    between atoms: C_22  and  N_23 
ROOT
HETATM    1  N   UNL     1     -43.756  57.722 -53.439  1.00  0.00    -0.054 N 
HETATM    2  H   UNL     1     -44.408  56.949 -53.268  1.00  0.00     0.278 HD
HETATM    3  H   UNL     1     -44.317  58.518 -53.771  1.00  0.00     0.278 HD
ENDROOT
BRANCH   1   4
HETATM    4  C   UNL     1     -43.122  58.172 -52.142  1.00  0.00     0.310 C 
BRANCH   4   5
HETATM    5  C   UNL     1     -42.681  56.967 -51.337  1.00  0.00    -0.019 A 
HETATM    6  C   UNL     1     -43.611  55.972 -50.993  1.00  0.00     0.010 A 
HETATM    7  C   UNL     1     -43.213  54.864 -50.241  1.00  0.00     0.001 A 
HETATM    8  C   UNL     1     -41.891  54.742 -49.819  1.00  0.00     0.000 A 
HETATM    9  C   UNL     1     -40.962  55.725 -50.145  1.00  0.00     0.001 A 
HETATM   10  C   UNL     1     -41.352  56.834 -50.897  1.00  0.00     0.010 A 
ENDBRANCH   4   5
BRANCH   4  11
HETATM   11  C   UNL     1     -44.110  59.057 -51.344  1.00  0.00     0.251 C 
HETATM   12  N   UNL     1     -43.592  59.932 -50.437  1.00  0.00    -0.368 N 
HETATM   13  H   UNL     1     -42.671  59.823 -50.027  1.00  0.00     0.159 HD
HETATM   14  H   UNL     1     -44.257  60.458 -49.876  1.00  0.00     0.159 HD
HETATM   15  O   UNL     1     -45.320  58.996 -51.560  1.00  0.00    -0.271 OA
ENDBRANCH   4  11
ENDBRANCH   1   4
BRANCH   1  16
HETATM   16  C   UNL     1     -42.800  57.360 -54.521  1.00  0.00     0.272 C 
BRANCH  16  17
HETATM   17  C   UNL     1     -42.196  55.998 -54.315  1.00  0.00    -0.033 A 
HETATM   18  C   UNL     1     -40.807  55.817 -54.289  1.00  0.00     0.010 A 
HETATM   19  C   UNL     1     -40.257  54.549 -54.063  1.00  0.00     0.013 A 
HETATM   20  C   UNL     1     -41.070  53.427 -53.831  1.00  0.00    -0.025 A 
HETATM   21  C   UNL     1     -42.460  53.623 -53.852  1.00  0.00     0.013 A 
HETATM   22  C   UNL     1     -43.018  54.885 -54.092  1.00  0.00     0.010 A 
BRANCH  20  23
HETATM   23  C   UNL     1     -40.487  52.101 -53.550  1.00  0.00    -0.008 A 
HETATM   24  C   UNL     1     -39.982  51.767 -52.290  1.00  0.00     0.128 A 
HETATM   25  N   UNL     1     -39.434  50.572 -51.962  1.00  0.00    -0.272 NA
HETATM   26  C   UNL     1     -39.386  49.640 -52.933  1.00  0.00     0.116 A 
HETATM   27  C   UNL     1     -39.858  49.851 -54.217  1.00  0.00     0.020 A 
HETATM   28  C   UNL     1     -40.410  51.095 -54.524  1.00  0.00     0.015 A 
ENDBRANCH  20  23
ENDBRANCH  16  17
ENDBRANCH   1  16
TORSDOF 6
ENDMDL
MODEL 5
REMARK VINA RESULT:      -7.9      2.750      7.148
REMARK  6 active torsions:
REMARK  status: ('A' for Active; 'I' for Inactive)
REMARK    1  A    between atoms: C_4  and  C_5 
REMARK    2  A    between atoms: C_5  and  N_6 
REMARK    3  A    between atoms: C_5  and  C_22 
REMARK    4  A    between atoms: N_6  and  C_9 
REMARK    5  A    between atoms: C_9  and  C_10 
REMARK    6  A    between atoms: C_13  and  C_14 
REMARK       I    between atoms: C_22  and  N_23 
ROOT
HETATM    1  N   UNL     1     -42.646  54.222 -51.118  1.00  0.00    -0.054 N 
HETATM    2  H   UNL     1     -42.977  53.421 -51.667  1.00  0.00     0.278 HD
HETATM    3  H   UNL     1     -42.924  54.051 -50.143  1.00  0.00     0.278 HD
ENDROOT
BRANCH   1   4
HETATM    4  C   UNL     1     -41.135  54.271 -51.119  1.00  0.00     0.310 C 
BRANCH   4   5
HETATM    5  C   UNL     1     -40.582  53.137 -51.957  1.00  0.00    -0.019 A 
HETATM    6  C   UNL     1     -40.057  51.992 -51.335  1.00  0.00     0.010 A 
HETATM    7  C   UNL     1     -39.536  50.948 -52.102  1.00  0.00     0.001 A 
HETATM    8  C   UNL     1     -39.525  51.038 -53.493  1.00  0.00     0.000 A 
HETATM    9  C   UNL     1     -40.033  52.170 -54.121  1.00  0.00     0.001 A 
HETATM   10  C   UNL     1     -40.557  53.217 -53.361  1.00  0.00     0.010 A 
ENDBRANCH   4   5
BRANCH   4  11
HETATM   11  C   UNL     1     -40.598  54.217 -49.668  1.00  0.00     0.251 C 
HETATM   12  N   UNL     1     -39.272  54.458 -49.470  1.00  0.00    -0.368 N 
HETATM   13  H   UNL     1     -38.575  54.352 -50.199  1.00  0.00     0.159 HD
HETATM   14  H   UNL     1     -38.925  54.355 -48.520  1.00  0.00     0.159 HD
HETATM   15  O   UNL     1     -41.361  54.007 -48.726  1.00  0.00    -0.271 OA
ENDBRANCH   4  11
ENDBRANCH   1   4
BRANCH   1  16
HETATM   16  C   UNL     1     -43.322  55.470 -51.568  1.00  0.00     0.272 C 
BRANCH  16  17
HETATM   17  C   UNL     1     -43.138  55.718 -53.040  1.00  0.00    -0.033 A 
HETATM   18  C   UNL     1     -43.595  54.798 -53.994  1.00  0.00     0.010 A 
HETATM   19  C   UNL     1     -43.447  55.055 -55.362  1.00  0.00     0.013 A 
HETATM   20  C   UNL     1     -42.864  56.246 -55.826  1.00  0.00    -0.025 A 
HETATM   21  C   UNL     1     -42.417  57.163 -54.861  1.00  0.00     0.013 A 
HETATM   22  C   UNL     1     -42.548  56.906 -53.491  1.00  0.00     0.010 A 
BRANCH  20  23
HETATM   23  C   UNL     1     -42.749  56.533 -57.269  1.00  0.00    -0.008 A 
HETATM   24  C   UNL     1     -42.287  57.763 -57.744  1.00  0.00     0.128 A 
HETATM   25  N   UNL     1     -42.156  58.096 -59.051  1.00  0.00    -0.272 NA
HETATM   26  C   UNL     1     -42.493  57.153 -59.952  1.00  0.00     0.116 A 
HETATM   27  C   UNL     1     -42.956  55.896 -59.604  1.00  0.00     0.020 A 
HETATM   28  C   UNL     1     -43.087  55.589 -58.249  1.00  0.00     0.015 A 
ENDBRANCH  20  23
ENDBRANCH  16  17
ENDBRANCH   1  16
TORSDOF 6
ENDMDL
MODEL 6
REMARK VINA RESULT:      -7.9      2.744      7.307
REMARK  6 active torsions:
REMARK  status: ('A' for Active; 'I' for Inactive)
REMARK    1  A    between atoms: C_4  and  C_5 
REMARK    2  A    between atoms: C_5  and  N_6 
REMARK    3  A    between atoms: C_5  and  C_22 
REMARK    4  A    between atoms: N_6  and  C_9 
REMARK    5  A    between atoms: C_9  and  C_10 
REMARK    6  A    between atoms: C_13  and  C_14 
REMARK       I    between atoms: C_22  and  N_23 
ROOT
HETATM    1  N   UNL     1     -42.232  53.942 -51.283  1.00  0.00    -0.054 N 
HETATM    2  H   UNL     1     -42.653  53.237 -51.898  1.00  0.00     0.278 HD
HETATM    3  H   UNL     1     -42.475  53.680 -50.319  1.00  0.00     0.278 HD
ENDROOT
BRANCH   1   4
HETATM    4  C   UNL     1     -40.724  53.878 -51.365  1.00  0.00     0.310 C 
BRANCH   4   5
HETATM    5  C   UNL     1     -40.298  52.596 -52.050  1.00  0.00    -0.019 A 
HETATM    6  C   UNL     1     -40.364  52.489 -53.449  1.00  0.00     0.010 A 
HETATM    7  C   UNL     1     -39.982  51.306 -54.085  1.00  0.00     0.001 A 
HETATM    8  C   UNL     1     -39.541  50.218 -53.335  1.00  0.00     0.000 A 
HETATM    9  C   UNL     1     -39.480  50.307 -51.948  1.00  0.00     0.001 A 
HETATM   10  C   UNL     1     -39.858  51.487 -51.305  1.00  0.00     0.010 A 
ENDBRANCH   4   5
BRANCH   4  11
HETATM   11  C   UNL     1     -40.107  53.998 -49.950  1.00  0.00     0.251 C 
HETATM   12  N   UNL     1     -40.883  53.655 -48.885  1.00  0.00    -0.368 N 
HETATM   13  H   UNL     1     -41.897  53.639 -48.921  1.00  0.00     0.159 HD
HETATM   14  H   UNL     1     -40.484  53.800 -47.961  1.00  0.00     0.159 HD
HETATM   15  O   UNL     1     -38.937  54.350 -49.806  1.00  0.00    -0.271 OA
ENDBRANCH   4  11
ENDBRANCH   1   4
BRANCH   1  16
HETATM   16  C   UNL     1     -42.827  55.280 -51.550  1.00  0.00     0.272 C 
BRANCH  16  17
HETATM   17  C   UNL     1     -42.849  55.610 -53.018  1.00  0.00    -0.033 A 
HETATM   18  C   UNL     1     -42.401  56.852 -53.489  1.00  0.00     0.010 A 
HETATM   19  C   UNL     1     -42.395  57.135 -54.860  1.00  0.00     0.013 A 
HETATM   20  C   UNL     1     -42.810  56.184 -55.807  1.00  0.00    -0.025 A 
HETATM   21  C   UNL     1     -43.249  54.941 -55.323  1.00  0.00     0.013 A 
HETATM   22  C   UNL     1     -43.271  54.656 -53.952  1.00  0.00     0.010 A 
BRANCH  20  23
HETATM   23  C   UNL     1     -42.761  56.470 -57.254  1.00  0.00    -0.008 A 
HETATM   24  C   UNL     1     -42.305  57.694 -57.751  1.00  0.00     0.128 A 
HETATM   25  N   UNL     1     -42.233  58.026 -59.063  1.00  0.00    -0.272 NA
HETATM   26  C   UNL     1     -42.626  57.088 -59.947  1.00  0.00     0.116 A 
HETATM   27  C   UNL     1     -43.090  55.838 -59.577  1.00  0.00     0.020 A 
HETATM   28  C   UNL     1     -43.159  55.532 -58.217  1.00  0.00     0.015 A 
ENDBRANCH  20  23
ENDBRANCH  16  17
ENDBRANCH   1  16
TORSDOF 6
ENDMDL
MODEL 7
REMARK VINA RESULT:      -7.8      2.714      3.188
REMARK  6 active torsions:
REMARK  status: ('A' for Active; 'I' for Inactive)
REMARK    1  A    between atoms: C_4  and  C_5 
REMARK    2  A    between atoms: C_5  and  N_6 
REMARK    3  A    between atoms: C_5  and  C_22 
REMARK    4  A    between atoms: N_6  and  C_9 
REMARK    5  A    between atoms: C_9  and  C_10 
REMARK    6  A    between atoms: C_13  and  C_14 
REMARK       I    between atoms: C_22  and  N_23 
ROOT
HETATM    1  N   UNL     1     -43.887  56.769 -56.895  1.00  0.00    -0.054 N 
HETATM    2  H   UNL     1     -44.722  57.208 -56.491  1.00  0.00     0.278 HD
HETATM    3  H   UNL     1     -44.044  55.753 -56.872  1.00  0.00     0.278 HD
ENDROOT
BRANCH   1   4
HETATM    4  C   UNL     1     -43.754  57.138 -58.354  1.00  0.00     0.310 C 
BRANCH   4   5
HETATM    5  C   UNL     1     -44.997  57.870 -58.818  1.00  0.00    -0.019 A 
HETATM    6  C   UNL     1     -45.068  58.377 -60.126  1.00  0.00     0.010 A 
HETATM    7  C   UNL     1     -46.207  59.063 -60.556  1.00  0.00     0.001 A 
HETATM    8  C   UNL     1     -47.278  59.256 -59.687  1.00  0.00     0.000 A 
HETATM    9  C   UNL     1     -47.216  58.767 -58.385  1.00  0.00     0.001 A 
HETATM   10  C   UNL     1     -46.082  58.080 -57.949  1.00  0.00     0.010 A 
ENDBRANCH   4   5
BRANCH   4  11
HETATM   11  C   UNL     1     -43.493  55.870 -59.204  1.00  0.00     0.251 C 
HETATM   12  N   UNL     1     -44.274  54.778 -58.976  1.00  0.00    -0.368 N 
HETATM   13  H   UNL     1     -44.775  54.627 -58.107  1.00  0.00     0.159 HD
HETATM   14  H   UNL     1     -44.046  53.935 -59.497  1.00  0.00     0.159 HD
HETATM   15  O   UNL     1     -42.634  55.874 -60.085  1.00  0.00    -0.271 OA
ENDBRANCH   4  11
ENDBRANCH   1   4
BRANCH   1  16
HETATM   16  C   UNL     1     -42.694  57.060 -56.054  1.00  0.00     0.272 C 
BRANCH  16  17
HETATM   17  C   UNL     1     -42.087  55.811 -55.475  1.00  0.00    -0.033 A 
HETATM   18  C   UNL     1     -40.910  55.861 -54.717  1.00  0.00     0.010 A 
HETATM   19  C   UNL     1     -40.373  54.696 -54.156  1.00  0.00     0.013 A 
HETATM   20  C   UNL     1     -41.003  53.450 -54.309  1.00  0.00    -0.025 A 
HETATM   21  C   UNL     1     -42.186  53.414 -55.065  1.00  0.00     0.013 A 
HETATM   22  C   UNL     1     -42.721  54.573 -55.642  1.00  0.00     0.010 A 
BRANCH  20  23
HETATM   23  C   UNL     1     -40.458  52.231 -53.680  1.00  0.00    -0.008 A 
HETATM   24  C   UNL     1     -40.005  52.221 -52.358  1.00  0.00     0.128 A 
HETATM   25  N   UNL     1     -39.494  51.142 -51.717  1.00  0.00    -0.272 NA
HETATM   26  C   UNL     1     -39.432  49.994 -52.419  1.00  0.00     0.116 A 
HETATM   27  C   UNL     1     -39.855  49.879 -53.731  1.00  0.00     0.020 A 
HETATM   28  C   UNL     1     -40.369  51.011 -54.364  1.00  0.00     0.015 A 
ENDBRANCH  20  23
ENDBRANCH  16  17
ENDBRANCH   1  16
TORSDOF 6
ENDMDL
MODEL 8
REMARK VINA RESULT:      -7.6      3.622      5.084
REMARK  6 active torsions:
REMARK  status: ('A' for Active; 'I' for Inactive)
REMARK    1  A    between atoms: C_4  and  C_5 
REMARK    2  A    between atoms: C_5  and  N_6 
REMARK    3  A    between atoms: C_5  and  C_22 
REMARK    4  A    between atoms: N_6  and  C_9 
REMARK    5  A    between atoms: C_9  and  C_10 
REMARK    6  A    between atoms: C_13  and  C_14 
REMARK       I    between atoms: C_22  and  N_23 
ROOT
HETATM    1  N   UNL     1     -44.117  58.825 -50.726  1.00  0.00    -0.054 N 
HETATM    2  H   UNL     1     -43.456  58.483 -50.020  1.00  0.00     0.278 HD
HETATM    3  H   UNL     1     -44.795  59.424 -50.236  1.00  0.00     0.278 HD
ENDROOT
BRANCH   1   4
HETATM    4  C   UNL     1     -43.410  59.722 -51.717  1.00  0.00     0.310 C 
BRANCH   4   5
HETATM    5  C   UNL     1     -41.910  59.556 -51.584  1.00  0.00    -0.019 A 
HETATM    6  C   UNL     1     -41.153  59.092 -52.672  1.00  0.00     0.010 A 
HETATM    7  C   UNL     1     -39.771  58.927 -52.552  1.00  0.00     0.001 A 
HETATM    8  C   UNL     1     -39.133  59.214 -51.347  1.00  0.00     0.000 A 
HETATM    9  C   UNL     1     -39.873  59.665 -50.258  1.00  0.00     0.001 A 
HETATM   10  C   UNL     1     -41.253  59.833 -50.371  1.00  0.00     0.010 A 
ENDBRANCH   4   5
BRANCH   4  11
HETATM   11  C   UNL     1     -43.838  61.194 -51.506  1.00  0.00     0.251 C 
HETATM   12  N   UNL     1     -44.672  61.472 -50.465  1.00  0.00    -0.368 N 
HETATM   13  H   UNL     1     -45.270  60.776 -50.033  1.00  0.00     0.159 HD
HETATM   14  H   UNL     1     -44.995  62.433 -50.380  1.00  0.00     0.159 HD
HETATM   15  O   UNL     1     -43.399  62.084 -52.233  1.00  0.00    -0.271 OA
ENDBRANCH   4  11
ENDBRANCH   1   4
BRANCH   1  16
HETATM   16  C   UNL     1     -44.869  57.687 -51.323  1.00  0.00     0.272 C 
BRANCH  16  17
HETATM   17  C   UNL     1     -43.966  56.545 -51.701  1.00  0.00    -0.033 A 
HETATM   18  C   UNL     1     -43.546  56.359 -53.025  1.00  0.00     0.010 A 
HETATM   19  C   UNL     1     -42.679  55.311 -53.358  1.00  0.00     0.013 A 
HETATM   20  C   UNL     1     -42.182  54.432 -52.382  1.00  0.00    -0.025 A 
HETATM   21  C   UNL     1     -42.603  54.633 -51.058  1.00  0.00     0.013 A 
HETATM   22  C   UNL     1     -43.482  55.670 -50.720  1.00  0.00     0.010 A 
BRANCH  20  23
HETATM   23  C   UNL     1     -41.234  53.356 -52.730  1.00  0.00    -0.008 A 
HETATM   24  C   UNL     1     -40.320  52.847 -51.804  1.00  0.00     0.128 A 
HETATM   25  N   UNL     1     -39.423  51.862 -52.053  1.00  0.00    -0.272 NA
HETATM   26  C   UNL     1     -39.430  51.335 -53.293  1.00  0.00     0.116 A 
HETATM   27  C   UNL     1     -40.292  51.751 -54.293  1.00  0.00     0.020 A 
HETATM   28  C   UNL     1     -41.198  52.773 -54.005  1.00  0.00     0.015 A 
ENDBRANCH  20  23
ENDBRANCH  16  17
ENDBRANCH   1  16
TORSDOF 6
ENDMDL
MODEL 9
REMARK VINA RESULT:      -7.5     14.318     17.072
REMARK  6 active torsions:
REMARK  status: ('A' for Active; 'I' for Inactive)
REMARK    1  A    between atoms: C_4  and  C_5 
REMARK    2  A    between atoms: C_5  and  N_6 
REMARK    3  A    between atoms: C_5  and  C_22 
REMARK    4  A    between atoms: N_6  and  C_9 
REMARK    5  A    between atoms: C_9  and  C_10 
REMARK    6  A    between atoms: C_13  and  C_14 
REMARK       I    between atoms: C_22  and  N_23 
ROOT
HETATM    1  N   UNL     1     -35.738  41.647 -54.906  1.00  0.00    -0.054 N 
HETATM    2  H   UNL     1     -34.788  41.969 -55.122  1.00  0.00     0.278 HD
HETATM    3  H   UNL     1     -35.782  40.653 -55.166  1.00  0.00     0.278 HD
ENDROOT
BRANCH   1   4
HETATM    4  C   UNL     1     -35.986  41.700 -53.416  1.00  0.00     0.310 C 
BRANCH   4   5
HETATM    5  C   UNL     1     -34.768  41.194 -52.671  1.00  0.00    -0.019 A 
HETATM    6  C   UNL     1     -34.651  41.405 -51.288  1.00  0.00     0.010 A 
HETATM    7  C   UNL     1     -33.525  40.951 -50.597  1.00  0.00     0.001 A 
HETATM    8  C   UNL     1     -32.504  40.292 -51.278  1.00  0.00     0.000 A 
HETATM    9  C   UNL     1     -32.603  40.085 -52.651  1.00  0.00     0.001 A 
HETATM   10  C   UNL     1     -33.725  40.535 -53.347  1.00  0.00     0.010 A 
ENDBRANCH   4   5
BRANCH   4  11
HETATM   11  C   UNL     1     -37.251  40.883 -53.056  1.00  0.00     0.251 C 
HETATM   12  N   UNL     1     -38.356  41.566 -52.649  1.00  0.00    -0.368 N 
HETATM   13  H   UNL     1     -38.317  42.505 -52.266  1.00  0.00     0.159 HD
HETATM   14  H   UNL     1     -39.156  41.011 -52.354  1.00  0.00     0.159 HD
HETATM   15  O   UNL     1     -37.261  39.659 -53.178  1.00  0.00    -0.271 OA
ENDBRANCH   4  11
ENDBRANCH   1   4
BRANCH   1  16
HETATM   16  C   UNL     1     -36.731  42.376 -55.742  1.00  0.00     0.272 C 
BRANCH  16  17
HETATM   17  C   UNL     1     -37.144  41.585 -56.954  1.00  0.00    -0.033 A 
HETATM   18  C   UNL     1     -36.847  42.034 -58.248  1.00  0.00     0.010 A 
HETATM   19  C   UNL     1     -37.207  41.273 -59.367  1.00  0.00     0.013 A 
HETATM   20  C   UNL     1     -37.850  40.031 -59.234  1.00  0.00    -0.025 A 
HETATM   21  C   UNL     1     -38.135  39.589 -57.932  1.00  0.00     0.013 A 
HETATM   22  C   UNL     1     -37.791  40.352 -56.809  1.00  0.00     0.010 A 
BRANCH  20  23
HETATM   23  C   UNL     1     -38.189  39.212 -60.414  1.00  0.00    -0.008 A 
HETATM   24  C   UNL     1     -37.481  39.316 -61.614  1.00  0.00     0.128 A 
HETATM   25  N   UNL     1     -37.735  38.598 -62.735  1.00  0.00    -0.272 NA
HETATM   26  C   UNL     1     -38.748  37.711 -62.669  1.00  0.00     0.116 A 
HETATM   27  C   UNL     1     -39.517  37.515 -61.536  1.00  0.00     0.020 A 
HETATM   28  C   UNL     1     -39.233  38.276 -60.401  1.00  0.00     0.015 A 
ENDBRANCH  20  23
ENDBRANCH  16  17
ENDBRANCH   1  16
TORSDOF 6
ENDMDL
MODEL 10
REMARK VINA RESULT:      -7.5      2.926      4.214
REMARK  6 active torsions:
REMARK  status: ('A' for Active; 'I' for Inactive)
REMARK    1  A    between atoms: C_4  and  C_5 
REMARK    2  A    between atoms: C_5  and  N_6 
REMARK    3  A    between atoms: C_5  and  C_22 
REMARK    4  A    between atoms: N_6  and  C_9 
REMARK    5  A    between atoms: C_9  and  C_10 
REMARK    6  A    between atoms: C_13  and  C_14 
REMARK       I    between atoms: C_22  and  N_23 
ROOT
HETATM    1  N   UNL     1     -42.362  55.855 -57.999  1.00  0.00    -0.054 N 
HETATM    2  H   UNL     1     -41.993  55.270 -58.757  1.00  0.00     0.278 HD
HETATM    3  H   UNL     1     -41.556  56.159 -57.437  1.00  0.00     0.278 HD
ENDROOT
BRANCH   1   4
HETATM    4  C   UNL     1     -42.976  57.117 -58.562  1.00  0.00     0.310 C 
BRANCH   4   5
HETATM    5  C   UNL     1     -44.304  56.798 -59.216  1.00  0.00    -0.019 A 
HETATM    6  C   UNL     1     -45.480  57.419 -58.764  1.00  0.00     0.010 A 
HETATM    7  C   UNL     1     -46.709  57.121 -59.356  1.00  0.00     0.001 A 
HETATM    8  C   UNL     1     -46.780  56.197 -60.396  1.00  0.00     0.000 A 
HETATM    9  C   UNL     1     -45.624  55.566 -60.847  1.00  0.00     0.001 A 
HETATM   10  C   UNL     1     -44.392  55.860 -60.261  1.00  0.00     0.010 A 
ENDBRANCH   4   5
BRANCH   4  11
HETATM   11  C   UNL     1     -42.000  57.788 -59.558  1.00  0.00     0.251 C 
HETATM   12  N   UNL     1     -41.108  56.992 -60.211  1.00  0.00    -0.368 N 
HETATM   13  H   UNL     1     -40.827  56.079 -59.869  1.00  0.00     0.159 HD
HETATM   14  H   UNL     1     -40.433  57.457 -60.813  1.00  0.00     0.159 HD
HETATM   15  O   UNL     1     -42.064  58.997 -59.779  1.00  0.00    -0.271 OA
ENDBRANCH   4  11
ENDBRANCH   1   4
BRANCH   1  16
HETATM   16  C   UNL     1     -43.253  55.054 -57.116  1.00  0.00     0.272 C 
BRANCH  16  17
HETATM   17  C   UNL     1     -42.744  54.990 -55.702  1.00  0.00    -0.033 A 
HETATM   18  C   UNL     1     -43.618  55.081 -54.611  1.00  0.00     0.010 A 
HETATM   19  C   UNL     1     -43.136  54.987 -53.300  1.00  0.00     0.013 A 
HETATM   20  C   UNL     1     -41.773  54.774 -53.033  1.00  0.00    -0.025 A 
HETATM   21  C   UNL     1     -40.908  54.676 -54.134  1.00  0.00     0.013 A 
HETATM   22  C   UNL     1     -41.381  54.784 -55.448  1.00  0.00     0.010 A 
BRANCH  20  23
HETATM   23  C   UNL     1     -41.275  54.632 -51.651  1.00  0.00    -0.008 A 
HETATM   24  C   UNL     1     -41.703  55.473 -50.620  1.00  0.00     0.128 A 
HETATM   25  N   UNL     1     -41.289  55.401 -49.332  1.00  0.00    -0.272 NA
HETATM   26  C   UNL     1     -40.403  54.431 -49.034  1.00  0.00     0.116 A 
HETATM   27  C   UNL     1     -39.912  53.534 -49.966  1.00  0.00     0.020 A 
HETATM   28  C   UNL     1     -40.352  53.641 -51.286  1.00  0.00     0.015 A 
ENDBRANCH  20  23
ENDBRANCH  16  17
ENDBRANCH   1  16
TORSDOF 6
ENDMDL
