MODEL 1
REMARK VINA RESULT:      -8.1      0.000      0.000
REMARK  3 active torsions:
REMARK  status: ('A' for Active; 'I' for Inactive)
REMARK    1  A    between atoms: C_2  and  C_3 
REMARK    2  A    between atoms: C_10  and  C_12 
REMARK    3  A    between atoms: C_10  and  O_11 
ROOT
HETATM    1  C   UNL     1     -40.667  58.392 -51.185  1.00  0.00    -0.058 A 
HETATM    2  C   UNL     1     -40.662  57.045 -50.785  1.00  0.00     0.020 A 
HETATM    3  C   UNL     1     -41.867  56.359 -50.746  1.00  0.00     0.018 A 
HETATM    4  C   UNL     1     -43.058  57.007 -51.075  1.00  0.00     0.045 A 
HETATM    5  N   UNL     1     -44.129  56.132 -50.979  1.00  0.00    -0.323 N 
HETATM    6  C   UNL     1     -43.713  54.854 -50.598  1.00  0.00     0.266 A 
HETATM    7  O   UNL     1     -44.469  53.907 -50.437  1.00  0.00    -0.269 OA
HETATM    8  C   UNL     1     -42.162  54.926 -50.356  1.00  0.00     0.199 A 
HETATM    9  C   UNL     1     -43.100  58.329 -51.463  1.00  0.00     0.031 A 
HETATM   10  C   UNL     1     -41.887  59.021 -51.522  1.00  0.00     0.009 A 
HETATM   11  H   UNL     1     -45.094  56.347 -51.184  1.00  0.00     0.169 HD
ENDROOT
BRANCH   8  12
HETATM   12  C   UNL     1     -41.373  54.021 -51.279  1.00  0.00     0.025 A 
HETATM   13  C   UNL     1     -41.196  54.154 -52.712  1.00  0.00     0.003 A 
HETATM   14  C   UNL     1     -40.382  53.104 -53.138  1.00  0.00     0.043 A 
HETATM   15  C   UNL     1     -41.641  55.072 -53.691  1.00  0.00     0.014 A 
HETATM   16  C   UNL     1     -39.986  52.932 -54.471  1.00  0.00     0.030 A 
HETATM   17  N   UNL     1     -40.092  52.345 -52.036  1.00  0.00    -0.359 N 
HETATM   18  C   UNL     1     -40.435  53.861 -55.410  1.00  0.00     0.002 A 
HETATM   19  C   UNL     1     -41.254  54.918 -55.028  1.00  0.00     0.001 A 
HETATM   20  H   UNL     1     -39.528  51.507 -52.058  1.00  0.00     0.166 HD
HETATM   21  C   UNL     1     -40.676  52.869 -50.913  1.00  0.00     0.016 A 
HETATM   22  C   UNL     1     -40.513  52.200 -49.594  1.00  0.00     0.069 C 
ENDBRANCH   8  12
BRANCH   8  23
HETATM   23  O   UNL     1     -41.844  54.763 -48.976  1.00  0.00    -0.371 OA
HETATM   24  H   UNL     1     -40.934  55.079 -48.862  1.00  0.00     0.212 HD
ENDBRANCH   8  23
BRANCH   1  25
HETATM   25  C   UNL     1     -39.366  59.149 -51.295  1.00  0.00     0.034 C 
HETATM   26  C   UNL     1     -39.060  59.930 -50.025  1.00  0.00     0.010 C 
ENDBRANCH   1  25
TORSDOF 3
ENDMDL
MODEL 2
REMARK VINA RESULT:      -8.1      1.781      2.281
REMARK  3 active torsions:
REMARK  status: ('A' for Active; 'I' for Inactive)
REMARK    1  A    between atoms: C_2  and  C_3 
REMARK    2  A    between atoms: C_10  and  C_12 
REMARK    3  A    between atoms: C_10  and  O_11 
ROOT
HETATM    1  C   UNL     1     -40.438  58.687 -51.561  1.00  0.00    -0.058 A 
HETATM    2  C   UNL     1     -41.050  57.480 -51.185  1.00  0.00     0.020 A 
HETATM    3  C   UNL     1     -41.795  56.790 -52.130  1.00  0.00     0.018 A 
HETATM    4  C   UNL     1     -41.949  57.303 -53.418  1.00  0.00     0.045 A 
HETATM    5  N   UNL     1     -42.718  56.448 -54.193  1.00  0.00    -0.323 N 
HETATM    6  C   UNL     1     -43.104  55.314 -53.473  1.00  0.00     0.266 A 
HETATM    7  O   UNL     1     -43.793  54.414 -53.931  1.00  0.00    -0.269 OA
HETATM    8  C   UNL     1     -42.558  55.487 -52.010  1.00  0.00     0.199 A 
HETATM    9  C   UNL     1     -41.371  58.488 -53.818  1.00  0.00     0.031 A 
HETATM   10  C   UNL     1     -40.603  59.179 -52.877  1.00  0.00     0.009 A 
HETATM   11  H   UNL     1     -42.958  56.579 -55.164  1.00  0.00     0.169 HD
ENDROOT
BRANCH   8  12
HETATM   12  C   UNL     1     -41.576  54.408 -51.609  1.00  0.00     0.025 A 
HETATM   13  C   UNL     1     -40.949  53.418 -52.464  1.00  0.00     0.003 A 
HETATM   14  C   UNL     1     -40.108  52.641 -51.667  1.00  0.00     0.043 A 
HETATM   15  C   UNL     1     -41.008  53.111 -53.842  1.00  0.00     0.014 A 
HETATM   16  C   UNL     1     -39.324  51.594 -52.171  1.00  0.00     0.030 A 
HETATM   17  N   UNL     1     -40.225  53.105 -50.384  1.00  0.00    -0.359 N 
HETATM   18  C   UNL     1     -39.399  51.323 -53.538  1.00  0.00     0.002 A 
HETATM   19  C   UNL     1     -40.230  52.069 -54.365  1.00  0.00     0.001 A 
HETATM   20  H   UNL     1     -39.734  52.711 -49.592  1.00  0.00     0.166 HD
HETATM   21  C   UNL     1     -41.099  54.157 -50.322  1.00  0.00     0.016 A 
HETATM   22  C   UNL     1     -41.400  54.814 -49.021  1.00  0.00     0.069 C 
ENDBRANCH   8  12
BRANCH   8  23
HETATM   23  O   UNL     1     -43.622  55.676 -51.079  1.00  0.00    -0.371 OA
HETATM   24  H   UNL     1     -44.088  56.483 -51.351  1.00  0.00     0.212 HD
ENDBRANCH   8  23
BRANCH   1  25
HETATM   25  C   UNL     1     -39.572  59.431 -50.575  1.00  0.00     0.034 C 
HETATM   26  C   UNL     1     -38.092  59.182 -50.825  1.00  0.00     0.010 C 
ENDBRANCH   1  25
TORSDOF 3
ENDMDL
MODEL 3
REMARK VINA RESULT:      -8.1      1.276      2.330
REMARK  3 active torsions:
REMARK  status: ('A' for Active; 'I' for Inactive)
REMARK    1  A    between atoms: C_2  and  C_3 
REMARK    2  A    between atoms: C_10  and  C_12 
REMARK    3  A    between atoms: C_10  and  O_11 
ROOT
HETATM    1  C   UNL     1     -41.153  58.323 -51.615  1.00  0.00    -0.058 A 
HETATM    2  C   UNL     1     -41.091  56.925 -51.491  1.00  0.00     0.020 A 
HETATM    3  C   UNL     1     -42.257  56.230 -51.207  1.00  0.00     0.018 A 
HETATM    4  C   UNL     1     -43.459  56.915 -51.024  1.00  0.00     0.045 A 
HETATM    5  N   UNL     1     -44.490  56.025 -50.763  1.00  0.00    -0.323 N 
HETATM    6  C   UNL     1     -44.039  54.703 -50.772  1.00  0.00     0.266 A 
HETATM    7  O   UNL     1     -44.753  53.733 -50.562  1.00  0.00    -0.269 OA
HETATM    8  C   UNL     1     -42.487  54.745 -51.016  1.00  0.00     0.199 A 
HETATM    9  C   UNL     1     -43.555  58.286 -51.129  1.00  0.00     0.031 A 
HETATM   10  C   UNL     1     -42.387  58.990 -51.433  1.00  0.00     0.009 A 
HETATM   11  H   UNL     1     -45.459  56.264 -50.615  1.00  0.00     0.169 HD
ENDROOT
BRANCH   8  12
HETATM   12  C   UNL     1     -42.064  54.042 -52.288  1.00  0.00     0.025 A 
HETATM   13  C   UNL     1     -41.029  53.039 -52.444  1.00  0.00     0.003 A 
HETATM   14  C   UNL     1     -41.000  52.664 -53.788  1.00  0.00     0.043 A 
HETATM   15  C   UNL     1     -40.117  52.403 -51.571  1.00  0.00     0.014 A 
HETATM   16  C   UNL     1     -40.128  51.693 -54.296  1.00  0.00     0.030 A 
HETATM   17  N   UNL     1     -41.946  53.413 -54.436  1.00  0.00    -0.359 N 
HETATM   18  C   UNL     1     -39.246  51.078 -53.405  1.00  0.00     0.002 A 
HETATM   19  C   UNL     1     -39.238  51.428 -52.059  1.00  0.00     0.001 A 
HETATM   20  H   UNL     1     -42.131  53.357 -55.429  1.00  0.00     0.166 HD
HETATM   21  C   UNL     1     -42.592  54.247 -53.563  1.00  0.00     0.016 A 
HETATM   22  C   UNL     1     -43.653  55.172 -54.047  1.00  0.00     0.069 C 
ENDBRANCH   8  12
BRANCH   8  23
HETATM   23  O   UNL     1     -41.769  54.326 -49.858  1.00  0.00    -0.371 OA
HETATM   24  H   UNL     1     -42.116  53.451 -49.618  1.00  0.00     0.212 HD
ENDBRANCH   8  23
BRANCH   1  25
HETATM   25  C   UNL     1     -39.915  59.102 -51.982  1.00  0.00     0.034 C 
HETATM   26  C   UNL     1     -39.099  59.474 -50.752  1.00  0.00     0.010 C 
ENDBRANCH   1  25
TORSDOF 3
ENDMDL
MODEL 4
REMARK VINA RESULT:      -8.0      1.871      5.423
REMARK  3 active torsions:
REMARK  status: ('A' for Active; 'I' for Inactive)
REMARK    1  A    between atoms: C_2  and  C_3 
REMARK    2  A    between atoms: C_10  and  C_12 
REMARK    3  A    between atoms: C_10  and  O_11 
ROOT
HETATM    1  C   UNL     1     -40.039  52.141 -52.735  1.00  0.00    -0.058 A 
HETATM    2  C   UNL     1     -41.021  53.072 -53.114  1.00  0.00     0.020 A 
HETATM    3  C   UNL     1     -41.767  53.692 -52.122  1.00  0.00     0.018 A 
HETATM    4  C   UNL     1     -41.558  53.374 -50.779  1.00  0.00     0.045 A 
HETATM    5  N   UNL     1     -42.400  54.118 -49.968  1.00  0.00    -0.323 N 
HETATM    6  C   UNL     1     -43.204  54.981 -50.717  1.00  0.00     0.266 A 
HETATM    7  O   UNL     1     -44.035  55.736 -50.235  1.00  0.00    -0.269 OA
HETATM    8  C   UNL     1     -42.877  54.717 -52.232  1.00  0.00     0.199 A 
HETATM    9  C   UNL     1     -40.610  52.460 -50.373  1.00  0.00     0.031 A 
HETATM   10  C   UNL     1     -39.842  51.845 -51.366  1.00  0.00     0.009 A 
HETATM   11  H   UNL     1     -42.431  54.091 -48.959  1.00  0.00     0.169 HD
ENDROOT
BRANCH   8  12
HETATM   12  C   UNL     1     -42.319  55.932 -52.942  1.00  0.00     0.025 A 
HETATM   13  C   UNL     1     -41.522  57.001 -52.374  1.00  0.00     0.003 A 
HETATM   14  C   UNL     1     -41.222  57.898 -53.400  1.00  0.00     0.043 A 
HETATM   15  C   UNL     1     -41.015  57.292 -51.086  1.00  0.00     0.014 A 
HETATM   16  C   UNL     1     -40.444  59.048 -53.212  1.00  0.00     0.030 A 
HETATM   17  N   UNL     1     -41.822  57.426 -54.537  1.00  0.00    -0.359 N 
HETATM   18  C   UNL     1     -39.952  59.300 -51.931  1.00  0.00     0.002 A 
HETATM   19  C   UNL     1     -40.234  58.436 -50.879  1.00  0.00     0.001 A 
HETATM   20  H   UNL     1     -41.782  57.891 -55.434  1.00  0.00     0.166 HD
HETATM   21  C   UNL     1     -42.488  56.255 -54.289  1.00  0.00     0.016 A 
HETATM   22  C   UNL     1     -43.235  55.565 -55.375  1.00  0.00     0.069 C 
ENDBRANCH   8  12
BRANCH   8  23
HETATM   23  O   UNL     1     -43.980  54.111 -52.902  1.00  0.00    -0.371 OA
HETATM   24  H   UNL     1     -44.438  54.822 -53.380  1.00  0.00     0.212 HD
ENDBRANCH   8  23
BRANCH   1  25
HETATM   25  C   UNL     1     -39.171  51.494 -53.785  1.00  0.00     0.034 C 
HETATM   26  C   UNL     1     -39.807  50.226 -54.337  1.00  0.00     0.010 C 
ENDBRANCH   1  25
TORSDOF 3
ENDMDL
MODEL 5
REMARK VINA RESULT:      -8.0      2.192      5.105
REMARK  3 active torsions:
REMARK  status: ('A' for Active; 'I' for Inactive)
REMARK    1  A    between atoms: C_2  and  C_3 
REMARK    2  A    between atoms: C_10  and  C_12 
REMARK    3  A    between atoms: C_10  and  O_11 
ROOT
HETATM    1  C   UNL     1     -40.120  52.245 -52.877  1.00  0.00    -0.058 A 
HETATM    2  C   UNL     1     -41.156  53.090 -53.308  1.00  0.00     0.020 A 
HETATM    3  C   UNL     1     -41.824  53.857 -52.364  1.00  0.00     0.018 A 
HETATM    4  C   UNL     1     -41.483  53.767 -51.014  1.00  0.00     0.045 A 
HETATM    5  N   UNL     1     -42.267  54.625 -50.257  1.00  0.00    -0.323 N 
HETATM    6  C   UNL     1     -43.158  55.344 -51.058  1.00  0.00     0.266 A 
HETATM    7  O   UNL     1     -43.960  56.160 -50.629  1.00  0.00    -0.269 OA
HETATM    8  C   UNL     1     -42.965  54.838 -52.533  1.00  0.00     0.199 A 
HETATM    9  C   UNL     1     -40.479  52.942 -50.556  1.00  0.00     0.031 A 
HETATM   10  C   UNL     1     -39.790  52.180 -51.504  1.00  0.00     0.009 A 
HETATM   11  H   UNL     1     -42.205  54.764 -49.260  1.00  0.00     0.169 HD
ENDROOT
BRANCH   8  12
HETATM   12  C   UNL     1     -42.507  55.925 -53.481  1.00  0.00     0.025 A 
HETATM   13  C   UNL     1     -42.680  55.978 -54.920  1.00  0.00     0.003 A 
HETATM   14  C   UNL     1     -42.113  57.170 -55.372  1.00  0.00     0.043 A 
HETATM   15  C   UNL     1     -43.274  55.132 -55.884  1.00  0.00     0.014 A 
HETATM   16  C   UNL     1     -42.117  57.560 -56.718  1.00  0.00     0.030 A 
HETATM   17  N   UNL     1     -41.592  57.810 -54.279  1.00  0.00    -0.359 N 
HETATM   18  C   UNL     1     -42.720  56.706 -57.643  1.00  0.00     0.002 A 
HETATM   19  C   UNL     1     -43.289  55.506 -57.234  1.00  0.00     0.001 A 
HETATM   20  H   UNL     1     -41.105  58.695 -54.320  1.00  0.00     0.166 HD
HETATM   21  C   UNL     1     -41.809  57.085 -53.138  1.00  0.00     0.016 A 
HETATM   22  C   UNL     1     -41.314  57.576 -51.824  1.00  0.00     0.069 C 
ENDBRANCH   8  12
BRANCH   8  23
HETATM   23  O   UNL     1     -44.109  54.119 -52.988  1.00  0.00    -0.371 OA
HETATM   24  H   UNL     1     -44.807  54.263 -52.329  1.00  0.00     0.212 HD
ENDBRANCH   8  23
BRANCH   1  25
HETATM   25  C   UNL     1     -39.336  51.442 -53.885  1.00  0.00     0.034 C 
HETATM   26  C   UNL     1     -40.064  50.165 -54.278  1.00  0.00     0.010 C 
ENDBRANCH   1  25
TORSDOF 3
ENDMDL
MODEL 6
REMARK VINA RESULT:      -7.9      2.993      5.648
REMARK  3 active torsions:
REMARK  status: ('A' for Active; 'I' for Inactive)
REMARK    1  A    between atoms: C_2  and  C_3 
REMARK    2  A    between atoms: C_10  and  C_12 
REMARK    3  A    between atoms: C_10  and  O_11 
ROOT
HETATM    1  C   UNL     1     -40.729  52.942 -53.715  1.00  0.00    -0.058 A 
HETATM    2  C   UNL     1     -41.688  53.728 -54.377  1.00  0.00     0.020 A 
HETATM    3  C   UNL     1     -42.411  54.654 -53.640  1.00  0.00     0.018 A 
HETATM    4  C   UNL     1     -42.203  54.780 -52.266  1.00  0.00     0.045 A 
HETATM    5  N   UNL     1     -43.021  55.768 -51.739  1.00  0.00    -0.323 N 
HETATM    6  C   UNL     1     -43.805  56.365 -52.729  1.00  0.00     0.266 A 
HETATM    7  O   UNL     1     -44.613  57.257 -52.518  1.00  0.00    -0.269 OA
HETATM    8  C   UNL     1     -43.494  55.619 -54.077  1.00  0.00     0.199 A 
HETATM    9  C   UNL     1     -41.277  54.019 -51.584  1.00  0.00     0.031 A 
HETATM   10  C   UNL     1     -40.532  53.097 -52.324  1.00  0.00     0.009 A 
HETATM   11  H   UNL     1     -43.047  56.067 -50.775  1.00  0.00     0.169 HD
ENDROOT
BRANCH   8  12
HETATM   12  C   UNL     1     -42.908  56.525 -55.138  1.00  0.00     0.025 A 
HETATM   13  C   UNL     1     -42.979  56.366 -56.578  1.00  0.00     0.003 A 
HETATM   14  C   UNL     1     -42.312  57.446 -57.157  1.00  0.00     0.043 A 
HETATM   15  C   UNL     1     -43.554  55.412 -57.448  1.00  0.00     0.014 A 
HETATM   16  C   UNL     1     -42.201  57.626 -58.542  1.00  0.00     0.030 A 
HETATM   17  N   UNL     1     -41.830  58.220 -56.135  1.00  0.00    -0.359 N 
HETATM   18  C   UNL     1     -42.788  56.670 -59.373  1.00  0.00     0.002 A 
HETATM   19  C   UNL     1     -43.455  55.576 -58.836  1.00  0.00     0.001 A 
HETATM   20  H   UNL     1     -41.291  59.064 -56.269  1.00  0.00     0.166 HD
HETATM   21  C   UNL     1     -42.169  57.688 -54.919  1.00  0.00     0.016 A 
HETATM   22  C   UNL     1     -41.736  58.351 -53.658  1.00  0.00     0.069 C 
ENDBRANCH   8  12
BRANCH   8  23
HETATM   23  O   UNL     1     -44.617  54.860 -54.520  1.00  0.00    -0.371 OA
HETATM   24  H   UNL     1     -44.608  54.031 -54.015  1.00  0.00     0.212 HD
ENDBRANCH   8  23
BRANCH   1  25
HETATM   25  C   UNL     1     -39.885  51.968 -54.498  1.00  0.00     0.034 C 
HETATM   26  C   UNL     1     -40.180  50.527 -54.109  1.00  0.00     0.010 C 
ENDBRANCH   1  25
TORSDOF 3
ENDMDL
MODEL 7
REMARK VINA RESULT:      -7.5      3.034      5.519
REMARK  3 active torsions:
REMARK  status: ('A' for Active; 'I' for Inactive)
REMARK    1  A    between atoms: C_2  and  C_3 
REMARK    2  A    between atoms: C_10  and  C_12 
REMARK    3  A    between atoms: C_10  and  O_11 
ROOT
HETATM    1  C   UNL     1     -40.956  53.584 -53.502  1.00  0.00    -0.058 A 
HETATM    2  C   UNL     1     -41.833  54.543 -54.034  1.00  0.00     0.020 A 
HETATM    3  C   UNL     1     -42.609  55.291 -53.161  1.00  0.00     0.018 A 
HETATM    4  C   UNL     1     -42.532  55.071 -51.785  1.00  0.00     0.045 A 
HETATM    5  N   UNL     1     -43.381  55.933 -51.108  1.00  0.00    -0.323 N 
HETATM    6  C   UNL     1     -44.057  56.783 -51.987  1.00  0.00     0.266 A 
HETATM    7  O   UNL     1     -44.867  57.629 -51.637  1.00  0.00    -0.269 OA
HETATM    8  C   UNL     1     -43.629  56.374 -53.443  1.00  0.00     0.199 A 
HETATM    9  C   UNL     1     -41.690  54.132 -51.230  1.00  0.00     0.031 A 
HETATM   10  C   UNL     1     -40.891  53.389 -52.103  1.00  0.00     0.009 A 
HETATM   11  H   UNL     1     -43.496  55.991 -50.106  1.00  0.00     0.169 HD
ENDROOT
BRANCH   8  12
HETATM   12  C   UNL     1     -42.929  57.487 -54.193  1.00  0.00     0.025 A 
HETATM   13  C   UNL     1     -43.001  57.783 -55.611  1.00  0.00     0.003 A 
HETATM   14  C   UNL     1     -42.206  58.905 -55.851  1.00  0.00     0.043 A 
HETATM   15  C   UNL     1     -43.673  57.213 -56.715  1.00  0.00     0.014 A 
HETATM   16  C   UNL     1     -42.059  59.484 -57.118  1.00  0.00     0.030 A 
HETATM   17  N   UNL     1     -41.649  59.269 -54.654  1.00  0.00    -0.359 N 
HETATM   18  C   UNL     1     -42.744  58.901 -58.185  1.00  0.00     0.002 A 
HETATM   19  C   UNL     1     -43.540  57.779 -57.990  1.00  0.00     0.001 A 
HETATM   20  H   UNL     1     -41.013  60.046 -54.539  1.00  0.00     0.166 HD
HETATM   21  C   UNL     1     -42.061  58.435 -53.649  1.00  0.00     0.016 A 
HETATM   22  C   UNL     1     -41.569  58.628 -52.258  1.00  0.00     0.069 C 
ENDBRANCH   8  12
BRANCH   8  23
HETATM   23  O   UNL     1     -44.716  55.790 -54.158  1.00  0.00    -0.371 OA
HETATM   24  H   UNL     1     -44.402  55.641 -55.065  1.00  0.00     0.212 HD
ENDBRANCH   8  23
BRANCH   1  25
HETATM   25  C   UNL     1     -40.055  52.796 -54.421  1.00  0.00     0.034 C 
HETATM   26  C   UNL     1     -40.348  51.304 -54.354  1.00  0.00     0.010 C 
ENDBRANCH   1  25
TORSDOF 3
ENDMDL
MODEL 8
REMARK VINA RESULT:      -7.4      1.652      2.795
REMARK  3 active torsions:
REMARK  status: ('A' for Active; 'I' for Inactive)
REMARK    1  A    between atoms: C_2  and  C_3 
REMARK    2  A    between atoms: C_10  and  C_12 
REMARK    3  A    between atoms: C_10  and  O_11 
ROOT
HETATM    1  C   UNL     1     -39.676  59.157 -50.721  1.00  0.00    -0.058 A 
HETATM    2  C   UNL     1     -40.235  57.875 -50.852  1.00  0.00     0.020 A 
HETATM    3  C   UNL     1     -41.616  57.751 -50.863  1.00  0.00     0.018 A 
HETATM    4  C   UNL     1     -42.427  58.878 -50.720  1.00  0.00     0.045 A 
HETATM    5  N   UNL     1     -43.766  58.522 -50.771  1.00  0.00    -0.323 N 
HETATM    6  C   UNL     1     -43.924  57.147 -50.966  1.00  0.00     0.266 A 
HETATM    7  O   UNL     1     -45.006  56.585 -51.038  1.00  0.00    -0.269 OA
HETATM    8  C   UNL     1     -42.485  56.516 -50.984  1.00  0.00     0.199 A 
HETATM    9  C   UNL     1     -41.912  60.148 -50.581  1.00  0.00     0.031 A 
HETATM   10  C   UNL     1     -40.521  60.283 -50.588  1.00  0.00     0.009 A 
HETATM   11  H   UNL     1     -44.552  59.153 -50.715  1.00  0.00     0.169 HD
ENDROOT
BRANCH   8  12
HETATM   12  C   UNL     1     -42.149  55.838 -52.296  1.00  0.00     0.025 A 
HETATM   13  C   UNL     1     -41.430  54.595 -52.492  1.00  0.00     0.003 A 
HETATM   14  C   UNL     1     -41.368  54.352 -53.864  1.00  0.00     0.043 A 
HETATM   15  C   UNL     1     -40.831  53.643 -51.635  1.00  0.00     0.014 A 
HETATM   16  C   UNL     1     -40.758  53.218 -54.418  1.00  0.00     0.030 A 
HETATM   17  N   UNL     1     -41.991  55.400 -54.489  1.00  0.00    -0.359 N 
HETATM   18  C   UNL     1     -40.185  52.294 -53.543  1.00  0.00     0.002 A 
HETATM   19  C   UNL     1     -40.218  52.502 -52.168  1.00  0.00     0.001 A 
HETATM   20  H   UNL     1     -42.079  55.491 -55.491  1.00  0.00     0.166 HD
HETATM   21  C   UNL     1     -42.461  56.304 -53.573  1.00  0.00     0.016 A 
HETATM   22  C   UNL     1     -43.160  57.539 -54.022  1.00  0.00     0.069 C 
ENDBRANCH   8  12
BRANCH   8  23
HETATM   23  O   UNL     1     -42.263  55.698 -49.837  1.00  0.00    -0.371 OA
HETATM   24  H   UNL     1     -41.584  55.049 -50.087  1.00  0.00     0.212 HD
ENDBRANCH   8  23
BRANCH   1  25
HETATM   25  C   UNL     1     -38.178  59.333 -50.765  1.00  0.00     0.034 C 
HETATM   26  C   UNL     1     -37.640  59.908 -49.463  1.00  0.00     0.010 C 
ENDBRANCH   1  25
TORSDOF 3
ENDMDL
MODEL 9
REMARK VINA RESULT:      -7.2      2.467      3.768
REMARK  3 active torsions:
REMARK  status: ('A' for Active; 'I' for Inactive)
REMARK    1  A    between atoms: C_2  and  C_3 
REMARK    2  A    between atoms: C_10  and  C_12 
REMARK    3  A    between atoms: C_10  and  O_11 
ROOT
HETATM    1  C   UNL     1     -41.679  59.461 -51.088  1.00  0.00    -0.058 A 
HETATM    2  C   UNL     1     -42.047  58.223 -51.638  1.00  0.00     0.020 A 
HETATM    3  C   UNL     1     -43.123  58.177 -52.512  1.00  0.00     0.018 A 
HETATM    4  C   UNL     1     -43.836  59.338 -52.814  1.00  0.00     0.045 A 
HETATM    5  N   UNL     1     -44.856  59.062 -53.712  1.00  0.00    -0.323 N 
HETATM    6  C   UNL     1     -44.871  57.712 -54.070  1.00  0.00     0.266 A 
HETATM    7  O   UNL     1     -45.679  57.217 -54.842  1.00  0.00    -0.269 OA
HETATM    8  C   UNL     1     -43.739  57.002 -53.243  1.00  0.00     0.199 A 
HETATM    9  C   UNL     1     -43.508  60.568 -52.285  1.00  0.00     0.031 A 
HETATM   10  C   UNL     1     -42.413  60.624 -51.418  1.00  0.00     0.009 A 
HETATM   11  H   UNL     1     -45.501  59.732 -54.104  1.00  0.00     0.169 HD
ENDROOT
BRANCH   8  12
HETATM   12  C   UNL     1     -42.666  56.382 -54.113  1.00  0.00     0.025 A 
HETATM   13  C   UNL     1     -41.919  55.164 -53.865  1.00  0.00     0.003 A 
HETATM   14  C   UNL     1     -41.050  54.974 -54.940  1.00  0.00     0.043 A 
HETATM   15  C   UNL     1     -41.903  54.196 -52.835  1.00  0.00     0.014 A 
HETATM   16  C   UNL     1     -40.185  53.876 -55.044  1.00  0.00     0.030 A 
HETATM   17  N   UNL     1     -41.227  56.029 -55.795  1.00  0.00    -0.359 N 
HETATM   18  C   UNL     1     -40.200  52.935 -54.013  1.00  0.00     0.002 A 
HETATM   19  C   UNL     1     -41.046  53.091 -52.921  1.00  0.00     0.001 A 
HETATM   20  H   UNL     1     -40.711  56.154 -56.655  1.00  0.00     0.166 HD
HETATM   21  C   UNL     1     -42.184  56.887 -55.321  1.00  0.00     0.016 A 
HETATM   22  C   UNL     1     -42.535  58.120 -56.077  1.00  0.00     0.069 C 
ENDBRANCH   8  12
BRANCH   8  23
HETATM   23  O   UNL     1     -44.286  56.110 -52.275  1.00  0.00    -0.371 OA
HETATM   24  H   UNL     1     -45.107  56.517 -51.955  1.00  0.00     0.212 HD
ENDBRANCH   8  23
BRANCH   1  25
HETATM   25  C   UNL     1     -40.477  59.554 -50.181  1.00  0.00     0.034 C 
HETATM   26  C   UNL     1     -39.183  59.274 -50.930  1.00  0.00     0.010 C 
ENDBRANCH   1  25
TORSDOF 3
ENDMDL
MODEL 10
REMARK VINA RESULT:      -7.2      2.674      5.883
REMARK  3 active torsions:
REMARK  status: ('A' for Active; 'I' for Inactive)
REMARK    1  A    between atoms: C_2  and  C_3 
REMARK    2  A    between atoms: C_10  and  C_12 
REMARK    3  A    between atoms: C_10  and  O_11 
ROOT
HETATM    1  C   UNL     1     -40.328  53.337 -52.131  1.00  0.00    -0.058 A 
HETATM    2  C   UNL     1     -40.695  54.685 -52.274  1.00  0.00     0.020 A 
HETATM    3  C   UNL     1     -40.995  55.161 -53.542  1.00  0.00     0.018 A 
HETATM    4  C   UNL     1     -40.906  54.318 -54.651  1.00  0.00     0.045 A 
HETATM    5  N   UNL     1     -41.260  54.998 -55.806  1.00  0.00    -0.323 N 
HETATM    6  C   UNL     1     -41.617  56.320 -55.534  1.00  0.00     0.266 A 
HETATM    7  O   UNL     1     -41.961  57.127 -56.385  1.00  0.00    -0.269 OA
HETATM    8  C   UNL     1     -41.411  56.546 -53.992  1.00  0.00     0.199 A 
HETATM    9  C   UNL     1     -40.540  52.993 -54.548  1.00  0.00     0.031 A 
HETATM   10  C   UNL     1     -40.255  52.503 -53.270  1.00  0.00     0.009 A 
HETATM   11  H   UNL     1     -41.299  54.609 -56.737  1.00  0.00     0.169 HD
ENDROOT
BRANCH   8  12
HETATM   12  C   UNL     1     -42.689  56.907 -53.266  1.00  0.00     0.025 A 
HETATM   13  C   UNL     1     -42.919  58.034 -52.384  1.00  0.00     0.003 A 
HETATM   14  C   UNL     1     -44.246  57.975 -51.956  1.00  0.00     0.043 A 
HETATM   15  C   UNL     1     -42.131  59.109 -51.912  1.00  0.00     0.014 A 
HETATM   16  C   UNL     1     -44.822  58.925 -51.103  1.00  0.00     0.030 A 
HETATM   17  N   UNL     1     -44.802  56.857 -52.520  1.00  0.00    -0.359 N 
HETATM   18  C   UNL     1     -44.018  59.978 -50.663  1.00  0.00     0.002 A 
HETATM   19  C   UNL     1     -42.688  60.070 -51.060  1.00  0.00     0.001 A 
HETATM   20  H   UNL     1     -45.756  56.560 -52.367  1.00  0.00     0.166 HD
HETATM   21  C   UNL     1     -43.891  56.199 -53.303  1.00  0.00     0.016 A 
HETATM   22  C   UNL     1     -44.266  54.942 -54.005  1.00  0.00     0.069 C 
ENDBRANCH   8  12
BRANCH   8  23
HETATM   23  O   UNL     1     -40.330  57.442 -53.740  1.00  0.00    -0.371 OA
HETATM   24  H   UNL     1     -40.248  57.512 -52.775  1.00  0.00     0.212 HD
ENDBRANCH   8  23
BRANCH   1  25
HETATM   25  C   UNL     1     -40.053  52.773 -50.759  1.00  0.00     0.034 C 
HETATM   26  C   UNL     1     -40.025  53.864 -49.697  1.00  0.00     0.010 C 
ENDBRANCH   1  25
TORSDOF 3
ENDMDL
