MODEL 1
REMARK VINA RESULT:      -9.4      0.000      0.000
REMARK  7 active torsions:
REMARK  status: ('A' for Active; 'I' for Inactive)
REMARK    1  A    between atoms: C_2  and  C_3 
REMARK    2  A    between atoms: N_21  and  N_23 
REMARK       I    between atoms: N_23  and  C_24 
REMARK    3  A    between atoms: C_24  and  C_25 
REMARK    4  A    between atoms: C_25  and  N_26 
REMARK    5  A    between atoms: C_25  and  C_34 
REMARK       I    between atoms: N_26  and  C_27 
REMARK    6  A    between atoms: C_27  and  O_28 
REMARK    7  A    between atoms: O_28  and  C_29 
ROOT
HETATM    1  C   UNL     1     -44.568  58.225 -58.979  1.00  0.00    -0.041 C 
HETATM    2  C   UNL     1     -43.794  59.311 -58.358  1.00  0.00     0.005 C 
HETATM    3  C   UNL     1     -42.536  59.004 -57.830  1.00  0.00     0.091 C 
HETATM    4  C   UNL     1     -41.564  59.991 -57.680  1.00  0.00     0.075 C 
HETATM    5  C   UNL     1     -41.905  61.308 -57.978  1.00  0.00     0.079 C 
HETATM    6  C   UNL     1     -43.241  61.666 -58.176  1.00  0.00    -0.024 C 
HETATM    7  C   UNL     1     -43.653  63.112 -58.254  1.00  0.00     0.044 C 
HETATM    8  C   UNL     1     -42.444  64.039 -58.176  1.00  0.00     0.043 C 
HETATM    9  C   UNL     1     -41.238  63.400 -58.888  1.00  0.00     0.068 C 
HETATM   10  C   UNL     1     -41.547  63.106 -60.385  1.00  0.00     0.038 C 
HETATM   11  C   UNL     1     -40.340  62.581 -61.153  1.00  0.00     0.003 C 
HETATM   12  C   UNL     1     -39.178  63.559 -61.067  1.00  0.00     0.000 C 
HETATM   13  C   UNL     1     -38.821  63.858 -59.615  1.00  0.00     0.003 C 
HETATM   14  C   UNL     1     -40.028  64.358 -58.814  1.00  0.00     0.038 C 
HETATM   15  O   UNL     1     -40.877  62.202 -58.148  1.00  0.00    -0.340 OA
HETATM   16  C   UNL     1     -44.177  60.653 -58.413  1.00  0.00     0.024 C 
HETATM   17  O   UNL     1     -42.208  57.682 -57.456  1.00  0.00    -0.292 OA
HETATM   18  C   UNL     1     -43.078  56.687 -57.830  1.00  0.00     0.163 C 
HETATM   19  N   UNL     1     -42.837  55.518 -57.365  1.00  0.00    -0.277 N 
HETATM   20  H   UNL     1     -43.384  54.728 -57.738  1.00  0.00     0.189 HD
HETATM   21  C   UNL     1     -44.178  56.963 -58.752  1.00  0.00     0.065 C 
ENDROOT
BRANCH  19  22
HETATM   22  N   UNL     1     -42.014  55.219 -56.264  1.00  0.00    -0.266 N 
HETATM   23  C   UNL     1     -42.603  54.351 -55.357  1.00  0.00     0.263 C 
HETATM   24  O   UNL     1     -43.558  53.656 -55.729  1.00  0.00    -0.269 OA
HETATM   25  H   UNL     1     -41.303  55.902 -56.004  1.00  0.00     0.190 HD
BRANCH  23  26
HETATM   26  C   UNL     1     -42.211  54.478 -53.871  1.00  0.00     0.214 C 
BRANCH  26  27
HETATM   27  N   UNL     1     -41.902  55.865 -53.553  1.00  0.00    -0.319 N 
HETATM   28  C   UNL     1     -42.641  56.647 -52.723  1.00  0.00     0.362 C 
HETATM   29  O   UNL     1     -43.594  56.239 -52.073  1.00  0.00    -0.238 OA
HETATM   30  H   UNL     1     -41.208  56.356 -54.105  1.00  0.00     0.166 HD
BRANCH  28  31
HETATM   31  O   UNL     1     -42.141  57.897 -52.736  1.00  0.00    -0.294 OA
BRANCH  31  32
HETATM   32  C   UNL     1     -42.879  59.005 -53.318  1.00  0.00     0.061 C 
HETATM   33  C   UNL     1     -43.614  59.808 -52.239  1.00  0.00     0.046 C 
HETATM   34  C   UNL     1     -41.806  59.904 -53.953  1.00  0.00     0.046 C 
HETATM   35  C   UNL     1     -43.829  58.518 -54.415  1.00  0.00     0.046 C 
ENDBRANCH  31  32
ENDBRANCH  28  31
ENDBRANCH  26  27
BRANCH  26  36
HETATM   36  C   UNL     1     -41.206  53.466 -53.364  1.00  0.00    -0.026 A 
HETATM   37  C   UNL     1     -40.747  52.473 -54.251  1.00  0.00     0.010 A 
HETATM   38  C   UNL     1     -39.843  51.498 -53.830  1.00  0.00     0.001 A 
HETATM   39  C   UNL     1     -39.377  51.501 -52.519  1.00  0.00     0.000 A 
HETATM   40  C   UNL     1     -39.810  52.481 -51.631  1.00  0.00     0.001 A 
HETATM   41  C   UNL     1     -40.716  53.459 -52.049  1.00  0.00     0.010 A 
ENDBRANCH  26  36
ENDBRANCH  23  26
ENDBRANCH  19  22
BRANCH   1  42
HETATM   42  C   UNL     1     -45.620  58.543 -60.018  1.00  0.00     0.035 C 
HETATM   43  C   UNL     1     -46.741  57.519 -60.076  1.00  0.00     0.010 C 
ENDBRANCH   1  42
TORSDOF 7
ENDMDL
MODEL 2
REMARK VINA RESULT:      -8.7      1.673      2.273
REMARK  7 active torsions:
REMARK  status: ('A' for Active; 'I' for Inactive)
REMARK    1  A    between atoms: C_2  and  C_3 
REMARK    2  A    between atoms: N_21  and  N_23 
REMARK       I    between atoms: N_23  and  C_24 
REMARK    3  A    between atoms: C_24  and  C_25 
REMARK    4  A    between atoms: C_25  and  N_26 
REMARK    5  A    between atoms: C_25  and  C_34 
REMARK       I    between atoms: N_26  and  C_27 
REMARK    6  A    between atoms: C_27  and  O_28 
REMARK    7  A    between atoms: O_28  and  C_29 
ROOT
HETATM    1  C   UNL     1     -43.882  56.701 -59.163  1.00  0.00    -0.041 C 
HETATM    2  C   UNL     1     -43.999  58.067 -58.630  1.00  0.00     0.005 C 
HETATM    3  C   UNL     1     -43.314  58.374 -57.451  1.00  0.00     0.091 C 
HETATM    4  C   UNL     1     -42.967  59.689 -57.147  1.00  0.00     0.075 C 
HETATM    5  C   UNL     1     -43.402  60.702 -57.998  1.00  0.00     0.079 C 
HETATM    6  C   UNL     1     -44.362  60.440 -58.978  1.00  0.00    -0.024 C 
HETATM    7  C   UNL     1     -45.021  61.560 -59.739  1.00  0.00     0.044 C 
HETATM    8  C   UNL     1     -44.439  62.915 -59.347  1.00  0.00     0.043 C 
HETATM    9  C   UNL     1     -42.934  62.781 -59.052  1.00  0.00     0.068 C 
HETATM   10  C   UNL     1     -42.154  62.240 -60.286  1.00  0.00     0.038 C 
HETATM   11  C   UNL     1     -40.646  62.204 -60.073  1.00  0.00     0.003 C 
HETATM   12  C   UNL     1     -40.118  63.584 -59.716  1.00  0.00     0.000 C 
HETATM   13  C   UNL     1     -40.835  64.146 -58.493  1.00  0.00     0.003 C 
HETATM   14  C   UNL     1     -42.357  64.163 -58.673  1.00  0.00     0.038 C 
HETATM   15  O   UNL     1     -42.791  61.926 -57.885  1.00  0.00    -0.340 OA
HETATM   16  C   UNL     1     -44.622  59.109 -59.322  1.00  0.00     0.024 C 
HETATM   17  O   UNL     1     -42.935  57.358 -56.545  1.00  0.00    -0.292 OA
HETATM   18  C   UNL     1     -43.066  56.057 -56.966  1.00  0.00     0.163 C 
HETATM   19  N   UNL     1     -42.849  55.152 -56.087  1.00  0.00    -0.277 N 
HETATM   20  H   UNL     1     -42.801  54.172 -56.405  1.00  0.00     0.189 HD
HETATM   21  C   UNL     1     -43.383  55.751 -58.360  1.00  0.00     0.065 C 
ENDROOT
BRANCH  19  22
HETATM   22  N   UNL     1     -42.839  55.337 -54.693  1.00  0.00    -0.266 N 
HETATM   23  C   UNL     1     -41.573  55.245 -54.135  1.00  0.00     0.263 C 
HETATM   24  O   UNL     1     -40.585  55.384 -54.868  1.00  0.00    -0.269 OA
HETATM   25  H   UNL     1     -43.693  55.122 -54.180  1.00  0.00     0.190 HD
BRANCH  23  26
HETATM   26  C   UNL     1     -41.453  54.722 -52.688  1.00  0.00     0.214 C 
BRANCH  26  27
HETATM   27  N   UNL     1     -40.937  55.771 -51.820  1.00  0.00    -0.319 N 
HETATM   28  C   UNL     1     -41.687  56.776 -51.298  1.00  0.00     0.362 C 
HETATM   29  O   UNL     1     -42.902  56.853 -51.421  1.00  0.00    -0.238 OA
HETATM   30  H   UNL     1     -39.935  55.887 -51.728  1.00  0.00     0.166 HD
BRANCH  28  31
HETATM   31  O   UNL     1     -40.882  57.627 -50.635  1.00  0.00    -0.294 OA
BRANCH  31  32
HETATM   32  C   UNL     1     -40.490  58.905 -51.205  1.00  0.00     0.061 C 
HETATM   33  C   UNL     1     -40.614  58.891 -52.733  1.00  0.00     0.046 C 
HETATM   34  C   UNL     1     -41.499  59.916 -50.640  1.00  0.00     0.046 C 
HETATM   35  C   UNL     1     -39.083  59.301 -50.749  1.00  0.00     0.046 C 
ENDBRANCH  31  32
ENDBRANCH  28  31
ENDBRANCH  26  27
BRANCH  26  36
HETATM   36  C   UNL     1     -40.788  53.372 -52.526  1.00  0.00    -0.026 A 
HETATM   37  C   UNL     1     -40.436  52.948 -51.231  1.00  0.00     0.010 A 
HETATM   38  C   UNL     1     -39.796  51.725 -51.026  1.00  0.00     0.001 A 
HETATM   39  C   UNL     1     -39.503  50.903 -52.109  1.00  0.00     0.000 A 
HETATM   40  C   UNL     1     -39.854  51.300 -53.396  1.00  0.00     0.001 A 
HETATM   41  C   UNL     1     -40.495  52.524 -53.605  1.00  0.00     0.010 A 
ENDBRANCH  26  36
ENDBRANCH  23  26
ENDBRANCH  19  22
BRANCH   1  42
HETATM   42  C   UNL     1     -44.103  56.441 -60.636  1.00  0.00     0.035 C 
HETATM   43  C   UNL     1     -44.938  55.203 -60.913  1.00  0.00     0.010 C 
ENDBRANCH   1  42
TORSDOF 7
ENDMDL
MODEL 3
REMARK VINA RESULT:      -8.3      1.355      1.850
REMARK  7 active torsions:
REMARK  status: ('A' for Active; 'I' for Inactive)
REMARK    1  A    between atoms: C_2  and  C_3 
REMARK    2  A    between atoms: N_21  and  N_23 
REMARK       I    between atoms: N_23  and  C_24 
REMARK    3  A    between atoms: C_24  and  C_25 
REMARK    4  A    between atoms: C_25  and  N_26 
REMARK    5  A    between atoms: C_25  and  C_34 
REMARK       I    between atoms: N_26  and  C_27 
REMARK    6  A    between atoms: C_27  and  O_28 
REMARK    7  A    between atoms: O_28  and  C_29 
ROOT
HETATM    1  C   UNL     1     -43.961  57.013 -58.920  1.00  0.00    -0.041 C 
HETATM    2  C   UNL     1     -43.757  58.322 -58.280  1.00  0.00     0.005 C 
HETATM    3  C   UNL     1     -42.735  58.440 -57.335  1.00  0.00     0.091 C 
HETATM    4  C   UNL     1     -42.161  59.678 -57.053  1.00  0.00     0.075 C 
HETATM    5  C   UNL     1     -42.695  60.810 -57.665  1.00  0.00     0.079 C 
HETATM    6  C   UNL     1     -43.917  60.741 -58.337  1.00  0.00    -0.024 C 
HETATM    7  C   UNL     1     -44.625  61.991 -58.789  1.00  0.00     0.044 C 
HETATM    8  C   UNL     1     -43.798  63.238 -58.489  1.00  0.00     0.043 C 
HETATM    9  C   UNL     1     -42.299  62.933 -58.659  1.00  0.00     0.068 C 
HETATM   10  C   UNL     1     -41.972  62.451 -60.103  1.00  0.00     0.038 C 
HETATM   11  C   UNL     1     -40.481  62.251 -60.344  1.00  0.00     0.003 C 
HETATM   12  C   UNL     1     -39.712  63.532 -60.061  1.00  0.00     0.000 C 
HETATM   13  C   UNL     1     -39.980  64.029 -58.644  1.00  0.00     0.003 C 
HETATM   14  C   UNL     1     -41.477  64.208 -58.368  1.00  0.00     0.038 C 
HETATM   15  O   UNL     1     -41.934  61.953 -57.649  1.00  0.00    -0.340 OA
HETATM   16  C   UNL     1     -44.422  59.483 -58.683  1.00  0.00     0.024 C 
HETATM   17  O   UNL     1     -42.239  57.305 -56.655  1.00  0.00    -0.292 OA
HETATM   18  C   UNL     1     -42.639  56.073 -57.110  1.00  0.00     0.163 C 
HETATM   19  N   UNL     1     -42.291  55.065 -56.401  1.00  0.00    -0.277 N 
HETATM   20  H   UNL     1     -42.453  54.123 -56.788  1.00  0.00     0.189 HD
HETATM   21  C   UNL     1     -43.373  55.943 -58.368  1.00  0.00     0.065 C 
ENDROOT
BRANCH  19  22
HETATM   22  N   UNL     1     -41.864  55.104 -55.061  1.00  0.00    -0.266 N 
HETATM   23  C   UNL     1     -42.869  54.798 -54.155  1.00  0.00     0.263 C 
HETATM   24  O   UNL     1     -43.868  54.186 -54.556  1.00  0.00    -0.269 OA
HETATM   25  H   UNL     1     -41.070  55.701 -54.834  1.00  0.00     0.190 HD
BRANCH  23  26
HETATM   26  C   UNL     1     -42.812  55.450 -52.759  1.00  0.00     0.214 C 
BRANCH  26  27
HETATM   27  N   UNL     1     -42.841  56.901 -52.884  1.00  0.00    -0.319 N 
HETATM   28  C   UNL     1     -43.834  57.694 -52.403  1.00  0.00     0.362 C 
HETATM   29  O   UNL     1     -44.765  57.283 -51.723  1.00  0.00    -0.238 OA
HETATM   30  H   UNL     1     -42.193  57.356 -53.515  1.00  0.00     0.166 HD
BRANCH  28  31
HETATM   31  O   UNL     1     -43.605  58.964 -52.784  1.00  0.00    -0.294 OA
BRANCH  31  32
HETATM   32  C   UNL     1     -44.559  59.699 -53.597  1.00  0.00     0.061 C 
HETATM   33  C   UNL     1     -45.149  58.811 -54.698  1.00  0.00     0.046 C 
HETATM   34  C   UNL     1     -45.686  60.092 -52.628  1.00  0.00     0.046 C 
HETATM   35  C   UNL     1     -43.930  60.974 -54.166  1.00  0.00     0.046 C 
ENDBRANCH  31  32
ENDBRANCH  28  31
ENDBRANCH  26  27
BRANCH  26  36
HETATM   36  C   UNL     1     -41.753  54.911 -51.820  1.00  0.00    -0.026 A 
HETATM   37  C   UNL     1     -41.198  53.645 -52.091  1.00  0.00     0.010 A 
HETATM   38  C   UNL     1     -40.240  53.087 -51.245  1.00  0.00     0.001 A 
HETATM   39  C   UNL     1     -39.816  53.784 -50.117  1.00  0.00     0.000 A 
HETATM   40  C   UNL     1     -40.345  55.040 -49.840  1.00  0.00     0.001 A 
HETATM   41  C   UNL     1     -41.305  55.604 -50.685  1.00  0.00     0.010 A 
ENDBRANCH  26  36
ENDBRANCH  23  26
ENDBRANCH  19  22
BRANCH   1  42
HETATM   42  C   UNL     1     -44.620  56.928 -60.278  1.00  0.00     0.035 C 
HETATM   43  C   UNL     1     -45.981  56.252 -60.249  1.00  0.00     0.010 C 
ENDBRANCH   1  42
TORSDOF 7
ENDMDL
MODEL 4
REMARK VINA RESULT:      -8.0      2.388      9.674
REMARK  7 active torsions:
REMARK  status: ('A' for Active; 'I' for Inactive)
REMARK    1  A    between atoms: C_2  and  C_3 
REMARK    2  A    between atoms: N_21  and  N_23 
REMARK       I    between atoms: N_23  and  C_24 
REMARK    3  A    between atoms: C_24  and  C_25 
REMARK    4  A    between atoms: C_25  and  N_26 
REMARK    5  A    between atoms: C_25  and  C_34 
REMARK       I    between atoms: N_26  and  C_27 
REMARK    6  A    between atoms: C_27  and  O_28 
REMARK    7  A    between atoms: O_28  and  C_29 
ROOT
HETATM    1  C   UNL     1     -43.967  60.094 -51.842  1.00  0.00    -0.041 C 
HETATM    2  C   UNL     1     -43.721  58.694 -52.219  1.00  0.00     0.005 C 
HETATM    3  C   UNL     1     -42.722  58.431 -53.160  1.00  0.00     0.091 C 
HETATM    4  C   UNL     1     -42.099  57.185 -53.213  1.00  0.00     0.075 C 
HETATM    5  C   UNL     1     -42.563  56.177 -52.370  1.00  0.00     0.079 C 
HETATM    6  C   UNL     1     -43.768  56.329 -51.681  1.00  0.00    -0.024 C 
HETATM    7  C   UNL     1     -44.405  55.167 -50.965  1.00  0.00     0.044 C 
HETATM    8  C   UNL     1     -43.529  53.919 -51.044  1.00  0.00     0.043 C 
HETATM    9  C   UNL     1     -42.042  54.310 -50.994  1.00  0.00     0.068 C 
HETATM   10  C   UNL     1     -41.696  55.082 -49.686  1.00  0.00     0.038 C 
HETATM   11  C   UNL     1     -40.210  55.384 -49.544  1.00  0.00     0.003 C 
HETATM   12  C   UNL     1     -39.391  54.104 -49.598  1.00  0.00     0.000 C 
HETATM   13  C   UNL     1     -39.676  53.326 -50.878  1.00  0.00     0.003 C 
HETATM   14  C   UNL     1     -41.170  53.036 -51.058  1.00  0.00     0.038 C 
HETATM   15  O   UNL     1     -41.751  55.085 -52.189  1.00  0.00    -0.340 OA
HETATM   16  C   UNL     1     -44.319  57.610 -51.571  1.00  0.00     0.024 C 
HETATM   17  O   UNL     1     -42.298  59.427 -54.067  1.00  0.00    -0.292 OA
HETATM   18  C   UNL     1     -42.741  60.708 -53.849  1.00  0.00     0.163 C 
HETATM   19  N   UNL     1     -42.461  61.568 -54.756  1.00  0.00    -0.277 N 
HETATM   20  H   UNL     1     -42.655  62.560 -54.556  1.00  0.00     0.189 HD
HETATM   21  C   UNL     1     -43.444  61.056 -52.615  1.00  0.00     0.065 C 
ENDROOT
BRANCH  19  22
HETATM   22  N   UNL     1     -42.071  61.281 -56.076  1.00  0.00    -0.266 N 
HETATM   23  C   UNL     1     -42.788  61.991 -57.028  1.00  0.00     0.263 C 
HETATM   24  O   UNL     1     -43.388  63.017 -56.681  1.00  0.00    -0.269 OA
HETATM   25  H   UNL     1     -41.648  60.372 -56.258  1.00  0.00     0.190 HD
BRANCH  23  26
HETATM   26  C   UNL     1     -43.012  61.336 -58.406  1.00  0.00     0.214 C 
BRANCH  26  27
HETATM   27  N   UNL     1     -43.185  59.898 -58.253  1.00  0.00    -0.319 N 
HETATM   28  C   UNL     1     -44.211  59.185 -58.788  1.00  0.00     0.362 C 
HETATM   29  O   UNL     1     -45.049  59.661 -59.542  1.00  0.00    -0.238 OA
HETATM   30  H   UNL     1     -42.628  59.404 -57.567  1.00  0.00     0.166 HD
BRANCH  28  31
HETATM   31  O   UNL     1     -44.128  57.910 -58.366  1.00  0.00    -0.294 OA
BRANCH  31  32
HETATM   32  C   UNL     1     -43.687  56.843 -59.248  1.00  0.00     0.061 C 
HETATM   33  C   UNL     1     -42.534  57.307 -60.145  1.00  0.00     0.046 C 
HETATM   34  C   UNL     1     -43.169  55.743 -58.310  1.00  0.00     0.046 C 
HETATM   35  C   UNL     1     -44.858  56.286 -60.064  1.00  0.00     0.046 C 
ENDBRANCH  31  32
ENDBRANCH  28  31
ENDBRANCH  26  27
BRANCH  26  36
HETATM   36  C   UNL     1     -42.052  61.752 -59.500  1.00  0.00    -0.026 A 
HETATM   37  C   UNL     1     -40.895  62.469 -59.140  1.00  0.00     0.010 A 
HETATM   38  C   UNL     1     -39.990  62.903 -60.109  1.00  0.00     0.001 A 
HETATM   39  C   UNL     1     -40.222  62.623 -61.452  1.00  0.00     0.000 A 
HETATM   40  C   UNL     1     -41.354  61.906 -61.826  1.00  0.00     0.001 A 
HETATM   41  C   UNL     1     -42.263  61.470 -60.858  1.00  0.00     0.010 A 
ENDBRANCH  26  36
ENDBRANCH  23  26
ENDBRANCH  19  22
BRANCH   1  42
HETATM   42  C   UNL     1     -44.590  60.420 -50.503  1.00  0.00     0.035 C 
HETATM   43  C   UNL     1     -43.889  61.550 -49.769  1.00  0.00     0.010 C 
ENDBRANCH   1  42
TORSDOF 7
ENDMDL
MODEL 5
REMARK VINA RESULT:      -7.9      2.358      7.742
REMARK  7 active torsions:
REMARK  status: ('A' for Active; 'I' for Inactive)
REMARK    1  A    between atoms: C_2  and  C_3 
REMARK    2  A    between atoms: N_21  and  N_23 
REMARK       I    between atoms: N_23  and  C_24 
REMARK    3  A    between atoms: C_24  and  C_25 
REMARK    4  A    between atoms: C_25  and  N_26 
REMARK    5  A    between atoms: C_25  and  C_34 
REMARK       I    between atoms: N_26  and  C_27 
REMARK    6  A    between atoms: C_27  and  O_28 
REMARK    7  A    between atoms: O_28  and  C_29 
ROOT
HETATM    1  C   UNL     1     -42.432  55.858 -51.447  1.00  0.00    -0.041 C 
HETATM    2  C   UNL     1     -42.470  57.281 -51.814  1.00  0.00     0.005 C 
HETATM    3  C   UNL     1     -43.310  57.668 -52.862  1.00  0.00     0.091 C 
HETATM    4  C   UNL     1     -43.777  58.978 -52.958  1.00  0.00     0.075 C 
HETATM    5  C   UNL     1     -43.311  59.916 -52.039  1.00  0.00     0.079 C 
HETATM    6  C   UNL     1     -42.226  59.618 -51.212  1.00  0.00    -0.024 C 
HETATM    7  C   UNL     1     -41.556  60.691 -50.394  1.00  0.00     0.044 C 
HETATM    8  C   UNL     1     -42.269  62.032 -50.546  1.00  0.00     0.043 C 
HETATM    9  C   UNL     1     -43.786  61.813 -50.687  1.00  0.00     0.068 C 
HETATM   10  C   UNL     1     -44.375  61.070 -49.452  1.00  0.00     0.038 C 
HETATM   11  C   UNL     1     -45.893  60.938 -49.500  1.00  0.00     0.003 C 
HETATM   12  C   UNL     1     -46.550  62.304 -49.620  1.00  0.00     0.000 C 
HETATM   13  C   UNL     1     -46.023  63.061 -50.835  1.00  0.00     0.003 C 
HETATM   14  C   UNL     1     -44.495  63.179 -50.824  1.00  0.00     0.038 C 
HETATM   15  O   UNL     1     -44.011  61.092 -51.930  1.00  0.00    -0.340 OA
HETATM   16  C   UNL     1     -41.839  58.281 -51.070  1.00  0.00     0.024 C 
HETATM   17  O   UNL     1     -43.727  56.738 -53.841  1.00  0.00    -0.292 OA
HETATM   18  C   UNL     1     -43.460  55.413 -53.604  1.00  0.00     0.163 C 
HETATM   19  N   UNL     1     -43.721  54.602 -54.560  1.00  0.00    -0.277 N 
HETATM   20  H   UNL     1     -43.666  53.591 -54.364  1.00  0.00     0.189 HD
HETATM   21  C   UNL     1     -42.959  54.971 -52.303  1.00  0.00     0.065 C 
ENDROOT
BRANCH  19  22
HETATM   22  N   UNL     1     -43.909  54.948 -55.910  1.00  0.00    -0.266 N 
HETATM   23  C   UNL     1     -42.725  55.225 -56.577  1.00  0.00     0.263 C 
HETATM   24  O   UNL     1     -41.660  54.809 -56.101  1.00  0.00    -0.269 OA
HETATM   25  H   UNL     1     -44.807  55.350 -56.176  1.00  0.00     0.190 HD
BRANCH  23  26
HETATM   26  C   UNL     1     -42.763  56.246 -57.732  1.00  0.00     0.214 C 
BRANCH  26  27
HETATM   27  N   UNL     1     -42.550  57.591 -57.217  1.00  0.00    -0.319 N 
HETATM   28  C   UNL     1     -41.880  58.571 -57.879  1.00  0.00     0.362 C 
HETATM   29  O   UNL     1     -41.469  58.459 -59.026  1.00  0.00    -0.238 OA
HETATM   30  H   UNL     1     -42.741  57.782 -56.240  1.00  0.00     0.166 HD
BRANCH  28  31
HETATM   31  O   UNL     1     -41.772  59.647 -57.078  1.00  0.00    -0.294 OA
BRANCH  31  32
HETATM   32  C   UNL     1     -42.500  60.875 -57.351  1.00  0.00     0.061 C 
HETATM   33  C   UNL     1     -43.781  60.595 -58.145  1.00  0.00     0.046 C 
HETATM   34  C   UNL     1     -42.889  61.420 -55.967  1.00  0.00     0.046 C 
HETATM   35  C   UNL     1     -41.604  61.901 -58.052  1.00  0.00     0.046 C 
ENDBRANCH  31  32
ENDBRANCH  28  31
ENDBRANCH  26  27
BRANCH  26  36
HETATM   36  C   UNL     1     -43.921  56.107 -58.698  1.00  0.00    -0.026 A 
HETATM   37  C   UNL     1     -43.947  54.993 -59.559  1.00  0.00     0.010 A 
HETATM   38  C   UNL     1     -44.974  54.830 -60.488  1.00  0.00     0.001 A 
HETATM   39  C   UNL     1     -45.995  55.771 -60.570  1.00  0.00     0.000 A 
HETATM   40  C   UNL     1     -45.993  56.872 -59.720  1.00  0.00     0.001 A 
HETATM   41  C   UNL     1     -44.966  57.040 -58.787  1.00  0.00     0.010 A 
ENDBRANCH  26  36
ENDBRANCH  23  26
ENDBRANCH  19  22
BRANCH   1  42
HETATM   42  C   UNL     1     -42.020  55.445 -50.051  1.00  0.00     0.035 C 
HETATM   43  C   UNL     1     -40.577  54.979 -49.960  1.00  0.00     0.010 C 
ENDBRANCH   1  42
TORSDOF 7
ENDMDL
MODEL 6
REMARK VINA RESULT:      -7.7      3.164      5.935
REMARK  7 active torsions:
REMARK  status: ('A' for Active; 'I' for Inactive)
REMARK    1  A    between atoms: C_2  and  C_3 
REMARK    2  A    between atoms: N_21  and  N_23 
REMARK       I    between atoms: N_23  and  C_24 
REMARK    3  A    between atoms: C_24  and  C_25 
REMARK    4  A    between atoms: C_25  and  N_26 
REMARK    5  A    between atoms: C_25  and  C_34 
REMARK       I    between atoms: N_26  and  C_27 
REMARK    6  A    between atoms: C_27  and  O_28 
REMARK    7  A    between atoms: O_28  and  C_29 
ROOT
HETATM    1  C   UNL     1     -45.289  60.178 -50.926  1.00  0.00    -0.041 C 
HETATM    2  C   UNL     1     -44.970  60.532 -52.317  1.00  0.00     0.005 C 
HETATM    3  C   UNL     1     -45.002  59.517 -53.278  1.00  0.00     0.091 C 
HETATM    4  C   UNL     1     -45.198  59.813 -54.625  1.00  0.00     0.075 C 
HETATM    5  C   UNL     1     -45.266  61.152 -55.006  1.00  0.00     0.079 C 
HETATM    6  C   UNL     1     -44.899  62.161 -54.113  1.00  0.00    -0.024 C 
HETATM    7  C   UNL     1     -44.731  63.584 -54.576  1.00  0.00     0.044 C 
HETATM    8  C   UNL     1     -45.091  63.733 -56.052  1.00  0.00     0.043 C 
HETATM    9  C   UNL     1     -46.255  62.793 -56.413  1.00  0.00     0.068 C 
HETATM   10  C   UNL     1     -47.520  63.094 -55.556  1.00  0.00     0.038 C 
HETATM   11  C   UNL     1     -48.730  62.263 -55.965  1.00  0.00     0.003 C 
HETATM   12  C   UNL     1     -49.061  62.475 -57.433  1.00  0.00     0.000 C 
HETATM   13  C   UNL     1     -47.856  62.166 -58.316  1.00  0.00     0.003 C 
HETATM   14  C   UNL     1     -46.617  62.968 -57.904  1.00  0.00     0.038 C 
HETATM   15  O   UNL     1     -45.783  61.428 -56.247  1.00  0.00    -0.340 OA
HETATM   16  C   UNL     1     -44.798  61.848 -52.753  1.00  0.00     0.024 C 
HETATM   17  O   UNL     1     -44.858  58.161 -52.907  1.00  0.00    -0.292 OA
HETATM   18  C   UNL     1     -44.908  57.865 -51.567  1.00  0.00     0.163 C 
HETATM   19  N   UNL     1     -44.640  56.656 -51.242  1.00  0.00    -0.277 N 
HETATM   20  H   UNL     1     -44.806  56.370 -50.266  1.00  0.00     0.189 HD
HETATM   21  C   UNL     1     -45.302  58.880 -50.592  1.00  0.00     0.065 C 
ENDROOT
BRANCH  19  22
HETATM   22  N   UNL     1     -43.973  55.712 -52.045  1.00  0.00    -0.266 N 
HETATM   23  C   UNL     1     -42.598  55.888 -52.072  1.00  0.00     0.263 C 
HETATM   24  O   UNL     1     -42.062  56.547 -51.171  1.00  0.00    -0.269 OA
HETATM   25  H   UNL     1     -44.497  55.283 -52.806  1.00  0.00     0.190 HD
BRANCH  23  26
HETATM   26  C   UNL     1     -41.838  55.476 -53.350  1.00  0.00     0.214 C 
BRANCH  26  27
HETATM   27  N   UNL     1     -42.676  55.693 -54.521  1.00  0.00    -0.319 N 
HETATM   28  C   UNL     1     -42.773  56.872 -55.189  1.00  0.00     0.362 C 
HETATM   29  O   UNL     1     -42.089  57.855 -54.938  1.00  0.00    -0.238 OA
HETATM   30  H   UNL     1     -43.372  54.999 -54.766  1.00  0.00     0.166 HD
BRANCH  28  31
HETATM   31  O   UNL     1     -43.710  56.758 -56.148  1.00  0.00    -0.294 OA
BRANCH  31  32
HETATM   32  C   UNL     1     -43.391  56.953 -57.552  1.00  0.00     0.061 C 
HETATM   33  C   UNL     1     -43.140  55.614 -58.255  1.00  0.00     0.046 C 
HETATM   34  C   UNL     1     -44.648  57.598 -58.158  1.00  0.00     0.046 C 
HETATM   35  C   UNL     1     -42.212  57.916 -57.719  1.00  0.00     0.046 C 
ENDBRANCH  31  32
ENDBRANCH  28  31
ENDBRANCH  26  27
BRANCH  26  36
HETATM   36  C   UNL     1     -41.143  54.131 -53.300  1.00  0.00    -0.026 A 
HETATM   37  C   UNL     1     -40.635  53.684 -52.066  1.00  0.00     0.010 A 
HETATM   38  C   UNL     1     -39.961  52.466 -51.967  1.00  0.00     0.001 A 
HETATM   39  C   UNL     1     -39.788  51.673 -53.097  1.00  0.00     0.000 A 
HETATM   40  C   UNL     1     -40.293  52.094 -54.323  1.00  0.00     0.001 A 
HETATM   41  C   UNL     1     -40.969  53.312 -54.426  1.00  0.00     0.010 A 
ENDBRANCH  26  36
ENDBRANCH  23  26
ENDBRANCH  19  22
BRANCH   1  42
HETATM   42  C   UNL     1     -45.808  61.234 -49.975  1.00  0.00     0.035 C 
HETATM   43  C   UNL     1     -44.856  61.537 -48.831  1.00  0.00     0.010 C 
ENDBRANCH   1  42
TORSDOF 7
ENDMDL
MODEL 7
REMARK VINA RESULT:      -7.4      3.079      8.348
REMARK  7 active torsions:
REMARK  status: ('A' for Active; 'I' for Inactive)
REMARK    1  A    between atoms: C_2  and  C_3 
REMARK    2  A    between atoms: N_21  and  N_23 
REMARK       I    between atoms: N_23  and  C_24 
REMARK    3  A    between atoms: C_24  and  C_25 
REMARK    4  A    between atoms: C_25  and  N_26 
REMARK    5  A    between atoms: C_25  and  C_34 
REMARK       I    between atoms: N_26  and  C_27 
REMARK    6  A    between atoms: C_27  and  O_28 
REMARK    7  A    between atoms: O_28  and  C_29 
ROOT
HETATM    1  C   UNL     1     -41.960  57.927 -51.625  1.00  0.00    -0.041 C 
HETATM    2  C   UNL     1     -42.576  59.256 -51.751  1.00  0.00     0.005 C 
HETATM    3  C   UNL     1     -43.783  59.359 -52.447  1.00  0.00     0.091 C 
HETATM    4  C   UNL     1     -44.657  60.418 -52.211  1.00  0.00     0.075 C 
HETATM    5  C   UNL     1     -44.256  61.424 -51.334  1.00  0.00     0.079 C 
HETATM    6  C   UNL     1     -42.930  61.501 -50.904  1.00  0.00    -0.024 C 
HETATM    7  C   UNL     1     -42.424  62.710 -50.160  1.00  0.00     0.044 C 
HETATM    8  C   UNL     1     -43.546  63.713 -49.903  1.00  0.00     0.043 C 
HETATM    9  C   UNL     1     -44.869  62.973 -49.637  1.00  0.00     0.068 C 
HETATM   10  C   UNL     1     -44.757  62.021 -48.410  1.00  0.00     0.038 C 
HETATM   11  C   UNL     1     -46.080  61.358 -48.044  1.00  0.00     0.003 C 
HETATM   12  C   UNL     1     -47.149  62.404 -47.768  1.00  0.00     0.000 C 
HETATM   13  C   UNL     1     -47.313  63.345 -48.956  1.00  0.00     0.003 C 
HETATM   14  C   UNL     1     -45.989  64.000 -49.363  1.00  0.00     0.038 C 
HETATM   15  O   UNL     1     -45.229  62.268 -50.857  1.00  0.00    -0.340 OA
HETATM   16  C   UNL     1     -42.104  60.386 -51.077  1.00  0.00     0.024 C 
HETATM   17  O   UNL     1     -44.161  58.380 -53.393  1.00  0.00    -0.292 OA
HETATM   18  C   UNL     1     -43.416  57.228 -53.441  1.00  0.00     0.163 C 
HETATM   19  N   UNL     1     -43.687  56.416 -54.393  1.00  0.00    -0.277 N 
HETATM   20  H   UNL     1     -43.245  55.485 -54.374  1.00  0.00     0.189 HD
HETATM   21  C   UNL     1     -42.412  56.945 -52.417  1.00  0.00     0.065 C 
ENDROOT
BRANCH  19  22
HETATM   22  N   UNL     1     -44.398  56.725 -55.567  1.00  0.00    -0.266 N 
HETATM   23  C   UNL     1     -43.626  56.635 -56.716  1.00  0.00     0.263 C 
HETATM   24  O   UNL     1     -42.579  55.975 -56.683  1.00  0.00    -0.269 OA
HETATM   25  H   UNL     1     -45.207  57.338 -55.484  1.00  0.00     0.190 HD
BRANCH  23  26
HETATM   26  C   UNL     1     -43.973  57.564 -57.898  1.00  0.00     0.214 C 
BRANCH  26  27
HETATM   27  N   UNL     1     -44.452  58.846 -57.402  1.00  0.00    -0.319 N 
HETATM   28  C   UNL     1     -43.953  60.052 -57.779  1.00  0.00     0.362 C 
HETATM   29  O   UNL     1     -43.110  60.196 -58.654  1.00  0.00    -0.238 OA
HETATM   30  H   UNL     1     -45.067  58.866 -56.597  1.00  0.00     0.166 HD
BRANCH  28  31
HETATM   31  O   UNL     1     -44.543  61.019 -57.053  1.00  0.00    -0.294 OA
BRANCH  31  32
HETATM   32  C   UNL     1     -43.780  61.876 -56.162  1.00  0.00     0.061 C 
HETATM   33  C   UNL     1     -43.150  63.047 -56.925  1.00  0.00     0.046 C 
HETATM   34  C   UNL     1     -44.812  62.435 -55.169  1.00  0.00     0.046 C 
HETATM   35  C   UNL     1     -42.734  61.070 -55.386  1.00  0.00     0.046 C 
ENDBRANCH  31  32
ENDBRANCH  28  31
ENDBRANCH  26  27
BRANCH  26  36
HETATM   36  C   UNL     1     -44.813  56.948 -58.997  1.00  0.00    -0.026 A 
HETATM   37  C   UNL     1     -46.171  57.311 -59.087  1.00  0.00     0.010 A 
HETATM   38  C   UNL     1     -46.998  56.754 -60.063  1.00  0.00     0.001 A 
HETATM   39  C   UNL     1     -46.483  55.830 -60.967  1.00  0.00     0.000 A 
HETATM   40  C   UNL     1     -45.142  55.468 -60.900  1.00  0.00     0.001 A 
HETATM   41  C   UNL     1     -44.309  56.024 -59.925  1.00  0.00     0.010 A 
ENDBRANCH  26  36
ENDBRANCH  23  26
ENDBRANCH  19  22
BRANCH   1  42
HETATM   42  C   UNL     1     -41.014  57.634 -50.481  1.00  0.00     0.035 C 
HETATM   43  C   UNL     1     -40.996  56.172 -50.071  1.00  0.00     0.010 C 
ENDBRANCH   1  42
TORSDOF 7
ENDMDL
MODEL 8
REMARK VINA RESULT:      -7.3      2.440      9.202
REMARK  7 active torsions:
REMARK  status: ('A' for Active; 'I' for Inactive)
REMARK    1  A    between atoms: C_2  and  C_3 
REMARK    2  A    between atoms: N_21  and  N_23 
REMARK       I    between atoms: N_23  and  C_24 
REMARK    3  A    between atoms: C_24  and  C_25 
REMARK    4  A    between atoms: C_25  and  N_26 
REMARK    5  A    between atoms: C_25  and  C_34 
REMARK       I    between atoms: N_26  and  C_27 
REMARK    6  A    between atoms: C_27  and  O_28 
REMARK    7  A    between atoms: O_28  and  C_29 
ROOT
HETATM    1  C   UNL     1     -44.469  59.757 -53.937  1.00  0.00    -0.041 C 
HETATM    2  C   UNL     1     -44.007  58.495 -54.533  1.00  0.00     0.005 C 
HETATM    3  C   UNL     1     -42.781  58.494 -55.205  1.00  0.00     0.091 C 
HETATM    4  C   UNL     1     -42.053  57.316 -55.362  1.00  0.00     0.075 C 
HETATM    5  C   UNL     1     -42.620  56.123 -54.920  1.00  0.00     0.079 C 
HETATM    6  C   UNL     1     -43.969  56.069 -54.564  1.00  0.00    -0.024 C 
HETATM    7  C   UNL     1     -44.656  54.751 -54.321  1.00  0.00     0.044 C 
HETATM    8  C   UNL     1     -43.678  53.586 -54.435  1.00  0.00     0.043 C 
HETATM    9  C   UNL     1     -42.295  54.000 -53.901  1.00  0.00     0.068 C 
HETATM   10  C   UNL     1     -42.366  54.449 -52.412  1.00  0.00     0.038 C 
HETATM   11  C   UNL     1     -40.999  54.755 -51.812  1.00  0.00     0.003 C 
HETATM   12  C   UNL     1     -40.078  53.551 -51.926  1.00  0.00     0.000 C 
HETATM   13  C   UNL     1     -39.955  53.090 -53.374  1.00  0.00     0.003 C 
HETATM   14  C   UNL     1     -41.321  52.805 -54.008  1.00  0.00     0.038 C 
HETATM   15  O   UNL     1     -41.783  55.045 -54.773  1.00  0.00    -0.340 OA
HETATM   16  C   UNL     1     -44.647  57.270 -54.326  1.00  0.00     0.024 C 
HETATM   17  O   UNL     1     -42.235  59.690 -55.722  1.00  0.00    -0.292 OA
HETATM   18  C   UNL     1     -42.837  60.868 -55.353  1.00  0.00     0.163 C 
HETATM   19  N   UNL     1     -42.416  61.927 -55.938  1.00  0.00    -0.277 N 
HETATM   20  H   UNL     1     -42.746  62.837 -55.584  1.00  0.00     0.189 HD
HETATM   21  C   UNL     1     -43.859  60.891 -54.309  1.00  0.00     0.065 C 
ENDROOT
BRANCH  19  22
HETATM   22  N   UNL     1     -41.679  61.974 -57.135  1.00  0.00    -0.266 N 
HETATM   23  C   UNL     1     -42.442  62.330 -58.237  1.00  0.00     0.263 C 
HETATM   24  O   UNL     1     -43.521  62.909 -58.055  1.00  0.00    -0.269 OA
HETATM   25  H   UNL     1     -40.841  61.398 -57.198  1.00  0.00     0.190 HD
BRANCH  23  26
HETATM   26  C   UNL     1     -42.036  61.766 -59.614  1.00  0.00     0.214 C 
BRANCH  26  27
HETATM   27  N   UNL     1     -41.948  60.314 -59.552  1.00  0.00    -0.319 N 
HETATM   28  C   UNL     1     -42.728  59.464 -60.272  1.00  0.00     0.362 C 
HETATM   29  O   UNL     1     -43.524  59.830 -61.126  1.00  0.00    -0.238 OA
HETATM   30  H   UNL     1     -41.411  59.882 -58.810  1.00  0.00     0.166 HD
BRANCH  28  31
HETATM   31  O   UNL     1     -42.462  58.200 -59.897  1.00  0.00    -0.294 OA
BRANCH  31  32
HETATM   32  C   UNL     1     -43.506  57.315 -59.406  1.00  0.00     0.061 C 
HETATM   33  C   UNL     1     -44.311  56.713 -60.564  1.00  0.00     0.046 C 
HETATM   34  C   UNL     1     -42.758  56.182 -58.686  1.00  0.00     0.046 C 
HETATM   35  C   UNL     1     -44.406  58.034 -58.397  1.00  0.00     0.046 C 
ENDBRANCH  31  32
ENDBRANCH  28  31
ENDBRANCH  26  27
BRANCH  26  36
HETATM   36  C   UNL     1     -40.867  62.450 -60.290  1.00  0.00    -0.026 A 
HETATM   37  C   UNL     1     -40.740  62.336 -61.688  1.00  0.00     0.010 A 
HETATM   38  C   UNL     1     -39.667  62.923 -62.360  1.00  0.00     0.001 A 
HETATM   39  C   UNL     1     -38.707  63.636 -61.649  1.00  0.00     0.000 A 
HETATM   40  C   UNL     1     -38.822  63.769 -60.269  1.00  0.00     0.001 A 
HETATM   41  C   UNL     1     -39.895  63.183 -59.592  1.00  0.00     0.010 A 
ENDBRANCH  26  36
ENDBRANCH  23  26
ENDBRANCH  19  22
BRANCH   1  42
HETATM   42  C   UNL     1     -45.440  59.737 -52.777  1.00  0.00     0.035 C 
HETATM   43  C   UNL     1     -46.253  61.014 -52.647  1.00  0.00     0.010 C 
ENDBRANCH   1  42
TORSDOF 7
ENDMDL
MODEL 9
REMARK VINA RESULT:      -7.3      5.866     10.742
REMARK  7 active torsions:
REMARK  status: ('A' for Active; 'I' for Inactive)
REMARK    1  A    between atoms: C_2  and  C_3 
REMARK    2  A    between atoms: N_21  and  N_23 
REMARK       I    between atoms: N_23  and  C_24 
REMARK    3  A    between atoms: C_24  and  C_25 
REMARK    4  A    between atoms: C_25  and  N_26 
REMARK    5  A    between atoms: C_25  and  C_34 
REMARK       I    between atoms: N_26  and  C_27 
REMARK    6  A    between atoms: C_27  and  O_28 
REMARK    7  A    between atoms: O_28  and  C_29 
ROOT
HETATM    1  C   UNL     1     -43.978  60.943 -51.919  1.00  0.00    -0.041 C 
HETATM    2  C   UNL     1     -44.266  59.518 -52.141  1.00  0.00     0.005 C 
HETATM    3  C   UNL     1     -44.837  59.144 -53.360  1.00  0.00     0.091 C 
HETATM    4  C   UNL     1     -44.696  57.846 -53.848  1.00  0.00     0.075 C 
HETATM    5  C   UNL     1     -44.054  56.904 -53.047  1.00  0.00     0.079 C 
HETATM    6  C   UNL     1     -43.787  57.180 -51.704  1.00  0.00    -0.024 C 
HETATM    7  C   UNL     1     -43.322  56.098 -50.767  1.00  0.00     0.044 C 
HETATM    8  C   UNL     1     -43.124  54.774 -51.501  1.00  0.00     0.043 C 
HETATM    9  C   UNL     1     -42.595  55.031 -52.924  1.00  0.00     0.068 C 
HETATM   10  C   UNL     1     -41.240  55.799 -52.902  1.00  0.00     0.038 C 
HETATM   11  C   UNL     1     -40.626  55.969 -54.286  1.00  0.00     0.003 C 
HETATM   12  C   UNL     1     -40.423  54.620 -54.956  1.00  0.00     0.000 C 
HETATM   13  C   UNL     1     -41.732  53.840 -55.025  1.00  0.00     0.003 C 
HETATM   14  C   UNL     1     -42.384  53.682 -53.647  1.00  0.00     0.038 C 
HETATM   15  O   UNL     1     -43.629  55.748 -53.653  1.00  0.00    -0.340 OA
HETATM   16  C   UNL     1     -43.852  58.508 -51.268  1.00  0.00     0.024 C 
HETATM   17  O   UNL     1     -45.554  60.076 -54.143  1.00  0.00    -0.292 OA
HETATM   18  C   UNL     1     -45.481  61.397 -53.774  1.00  0.00     0.163 C 
HETATM   19  N   UNL     1     -46.243  62.207 -54.409  1.00  0.00    -0.277 N 
HETATM   20  H   UNL     1     -46.110  63.217 -54.255  1.00  0.00     0.189 HD
HETATM   21  C   UNL     1     -44.536  61.836 -52.749  1.00  0.00     0.065 C 
ENDROOT
BRANCH  19  22
HETATM   22  N   UNL     1     -47.371  61.854 -55.173  1.00  0.00    -0.266 N 
HETATM   23  C   UNL     1     -48.519  62.542 -54.809  1.00  0.00     0.263 C 
HETATM   24  O   UNL     1     -48.405  63.597 -54.170  1.00  0.00    -0.269 OA
HETATM   25  H   UNL     1     -47.385  60.927 -55.597  1.00  0.00     0.190 HD
BRANCH  23  26
HETATM   26  C   UNL     1     -49.877  61.835 -54.992  1.00  0.00     0.214 C 
BRANCH  26  27
HETATM   27  N   UNL     1     -50.168  61.671 -56.410  1.00  0.00    -0.319 N 
HETATM   28  C   UNL     1     -50.971  60.703 -56.923  1.00  0.00     0.362 C 
HETATM   29  O   UNL     1     -51.618  59.922 -56.239  1.00  0.00    -0.238 OA
HETATM   30  H   UNL     1     -49.614  62.178 -57.089  1.00  0.00     0.166 HD
BRANCH  28  31
HETATM   31  O   UNL     1     -50.936  60.770 -58.267  1.00  0.00    -0.294 OA
BRANCH  31  32
HETATM   32  C   UNL     1     -52.097  61.176 -59.040  1.00  0.00     0.061 C 
HETATM   33  C   UNL     1     -52.884  62.277 -58.319  1.00  0.00     0.046 C 
HETATM   34  C   UNL     1     -51.523  61.755 -60.342  1.00  0.00     0.046 C 
HETATM   35  C   UNL     1     -52.980  59.971 -59.380  1.00  0.00     0.046 C 
ENDBRANCH  31  32
ENDBRANCH  28  31
ENDBRANCH  26  27
BRANCH  26  36
HETATM   36  C   UNL     1     -51.022  62.379 -54.163  1.00  0.00    -0.026 A 
HETATM   37  C   UNL     1     -51.826  63.396 -54.713  1.00  0.00     0.010 A 
HETATM   38  C   UNL     1     -52.876  63.952 -53.983  1.00  0.00     0.001 A 
HETATM   39  C   UNL     1     -53.145  63.501 -52.695  1.00  0.00     0.000 A 
HETATM   40  C   UNL     1     -52.368  62.489 -52.139  1.00  0.00     0.001 A 
HETATM   41  C   UNL     1     -51.315  61.928 -52.867  1.00  0.00     0.010 A 
ENDBRANCH  26  36
ENDBRANCH  23  26
ENDBRANCH  19  22
BRANCH   1  42
HETATM   42  C   UNL     1     -42.909  61.356 -50.932  1.00  0.00     0.035 C 
HETATM   43  C   UNL     1     -43.046  62.793 -50.458  1.00  0.00     0.010 C 
ENDBRANCH   1  42
TORSDOF 7
ENDMDL
MODEL 10
REMARK VINA RESULT:      -7.2      3.426      8.613
REMARK  7 active torsions:
REMARK  status: ('A' for Active; 'I' for Inactive)
REMARK    1  A    between atoms: C_2  and  C_3 
REMARK    2  A    between atoms: N_21  and  N_23 
REMARK       I    between atoms: N_23  and  C_24 
REMARK    3  A    between atoms: C_24  and  C_25 
REMARK    4  A    between atoms: C_25  and  N_26 
REMARK    5  A    between atoms: C_25  and  C_34 
REMARK       I    between atoms: N_26  and  C_27 
REMARK    6  A    between atoms: C_27  and  O_28 
REMARK    7  A    between atoms: O_28  and  C_29 
ROOT
HETATM    1  C   UNL     1     -41.396  59.385 -51.154  1.00  0.00    -0.041 C 
HETATM    2  C   UNL     1     -42.286  60.546 -51.306  1.00  0.00     0.005 C 
HETATM    3  C   UNL     1     -43.472  60.376 -52.025  1.00  0.00     0.091 C 
HETATM    4  C   UNL     1     -44.562  61.219 -51.817  1.00  0.00     0.075 C 
HETATM    5  C   UNL     1     -44.409  62.295 -50.944  1.00  0.00     0.079 C 
HETATM    6  C   UNL     1     -43.141  62.664 -50.490  1.00  0.00    -0.024 C 
HETATM    7  C   UNL     1     -42.928  63.959 -49.751  1.00  0.00     0.044 C 
HETATM    8  C   UNL     1     -44.247  64.693 -49.525  1.00  0.00     0.043 C 
HETATM    9  C   UNL     1     -45.381  63.682 -49.276  1.00  0.00     0.068 C 
HETATM   10  C   UNL     1     -45.087  62.786 -48.036  1.00  0.00     0.038 C 
HETATM   11  C   UNL     1     -46.239  61.852 -47.687  1.00  0.00     0.003 C 
HETATM   12  C   UNL     1     -47.517  62.639 -47.442  1.00  0.00     0.000 C 
HETATM   13  C   UNL     1     -47.861  63.513 -48.643  1.00  0.00     0.003 C 
HETATM   14  C   UNL     1     -46.704  64.441 -49.033  1.00  0.00     0.038 C 
HETATM   15  O   UNL     1     -45.553  62.907 -50.494  1.00  0.00    -0.340 OA
HETATM   16  C   UNL     1     -42.087  61.756 -50.636  1.00  0.00     0.024 C 
HETATM   17  O   UNL     1     -43.607  59.332 -52.967  1.00  0.00    -0.292 OA
HETATM   18  C   UNL     1     -42.626  58.372 -52.989  1.00  0.00     0.163 C 
HETATM   19  N   UNL     1     -42.693  57.513 -53.937  1.00  0.00    -0.277 N 
HETATM   20  H   UNL     1     -42.058  56.702 -53.899  1.00  0.00     0.189 HD
HETATM   21  C   UNL     1     -41.605  58.322 -51.944  1.00  0.00     0.065 C 
ENDROOT
BRANCH  19  22
HETATM   22  N   UNL     1     -43.430  57.650 -55.127  1.00  0.00    -0.266 N 
HETATM   23  C   UNL     1     -42.819  57.061 -56.223  1.00  0.00     0.263 C 
HETATM   24  O   UNL     1     -41.950  56.200 -56.031  1.00  0.00    -0.269 OA
HETATM   25  H   UNL     1     -44.068  58.441 -55.200  1.00  0.00     0.190 HD
BRANCH  23  26
HETATM   26  C   UNL     1     -43.065  57.683 -57.613  1.00  0.00     0.214 C 
BRANCH  26  27
HETATM   27  N   UNL     1     -43.420  59.088 -57.475  1.00  0.00    -0.319 N 
HETATM   28  C   UNL     1     -42.521  60.106 -57.419  1.00  0.00     0.362 C 
HETATM   29  O   UNL     1     -41.317  59.960 -57.577  1.00  0.00    -0.238 OA
HETATM   30  H   UNL     1     -44.369  59.336 -57.225  1.00  0.00     0.166 HD
BRANCH  28  31
HETATM   31  O   UNL     1     -43.176  61.257 -57.182  1.00  0.00    -0.294 OA
BRANCH  31  32
HETATM   32  C   UNL     1     -43.220  62.325 -58.166  1.00  0.00     0.061 C 
HETATM   33  C   UNL     1     -43.299  61.762 -59.590  1.00  0.00     0.046 C 
HETATM   34  C   UNL     1     -44.522  63.086 -57.867  1.00  0.00     0.046 C 
HETATM   35  C   UNL     1     -42.037  63.281 -57.994  1.00  0.00     0.046 C 
ENDBRANCH  31  32
ENDBRANCH  28  31
ENDBRANCH  26  27
BRANCH  26  36
HETATM   36  C   UNL     1     -43.954  56.886 -58.545  1.00  0.00    -0.026 A 
HETATM   37  C   UNL     1     -45.240  57.382 -58.832  1.00  0.00     0.010 A 
HETATM   38  C   UNL     1     -46.111  56.675 -59.662  1.00  0.00     0.001 A 
HETATM   39  C   UNL     1     -45.711  55.466 -60.223  1.00  0.00     0.000 A 
HETATM   40  C   UNL     1     -44.440  54.967 -59.960  1.00  0.00     0.001 A 
HETATM   41  C   UNL     1     -43.564  55.671 -59.130  1.00  0.00     0.010 A 
ENDBRANCH  26  36
ENDBRANCH  23  26
ENDBRANCH  19  22
BRANCH   1  42
HETATM   42  C   UNL     1     -40.432  59.315 -49.991  1.00  0.00     0.035 C 
HETATM   43  C   UNL     1     -38.993  59.613 -50.379  1.00  0.00     0.010 C 
ENDBRANCH   1  42
TORSDOF 7
ENDMDL
