MODEL 1
REMARK VINA RESULT:      -7.6      0.000      0.000
REMARK  5 active torsions:
REMARK  status: ('A' for Active; 'I' for Inactive)
REMARK    1  A    between atoms: C_8  and  C_9 
REMARK    2  A    between atoms: C_9  and  N_10 
REMARK    3  A    between atoms: N_10  and  C_13 
REMARK    4  A    between atoms: C_13  and  C_14 
REMARK    5  A    between atoms: C_13  and  C_19 
ROOT
HETATM    1  N   UNL     1     -42.352  57.605 -54.975  1.00  0.00    -0.056 N 
HETATM    2  H   UNL     1     -41.483  57.636 -55.527  1.00  0.00     0.278 HD
HETATM    3  H   UNL     1     -42.598  58.593 -54.838  1.00  0.00     0.278 HD
ENDROOT
BRANCH   1   4
HETATM    4  C   UNL     1     -43.400  56.931 -55.779  1.00  0.00     0.275 C 
BRANCH   4   5
HETATM    5  C   UNL     1     -43.070  56.929 -57.238  1.00  0.00     0.004 A 
HETATM    6  C   UNL     1     -42.588  58.065 -57.871  1.00  0.00     0.113 A 
HETATM    7  C   UNL     1     -42.245  58.078 -59.203  1.00  0.00     0.105 A 
HETATM    8  O   UNL     1     -42.417  59.285 -57.282  1.00  0.00    -0.322 OA
HETATM    9  C   UNL     1     -42.358  56.953 -59.988  1.00  0.00     0.040 A 
HETATM   10  O   UNL     1     -41.803  59.293 -59.615  1.00  0.00    -0.323 OA
HETATM   11  C   UNL     1     -42.832  55.785 -59.386  1.00  0.00     0.003 A 
HETATM   12  C   UNL     1     -43.181  55.769 -58.022  1.00  0.00     0.012 A 
HETATM   13  C   UNL     1     -41.858  60.045 -58.389  1.00  0.00     0.352 A 
ENDBRANCH   4   5
ENDBRANCH   1   4
BRANCH   1  14
HETATM   14  C   UNL     1     -42.042  56.999 -53.640  1.00  0.00     0.292 C 
BRANCH  14  15
HETATM   15  C   UNL     1     -41.076  57.817 -52.826  1.00  0.00     0.190 A 
HETATM   16  N   UNL     1     -40.189  58.640 -53.409  1.00  0.00    -0.109 NA
HETATM   17  O   UNL     1     -39.541  59.228 -52.315  1.00  0.00    -0.205 OA
HETATM   18  C   UNL     1     -40.135  58.724 -51.200  1.00  0.00     0.288 A 
HETATM   19  N   UNL     1     -41.103  57.877 -51.457  1.00  0.00    -0.215 NA
ENDBRANCH  14  15
BRANCH  14  20
HETATM   20  C   UNL     1     -41.427  55.613 -53.747  1.00  0.00    -0.020 A 
HETATM   21  C   UNL     1     -41.712  54.650 -52.761  1.00  0.00     0.011 A 
HETATM   22  C   UNL     1     -41.185  53.358 -52.851  1.00  0.00     0.024 A 
HETATM   23  C   UNL     1     -40.368  53.012 -53.924  1.00  0.00     0.034 A 
HETATM   24 CL   UNL     1     -39.724  51.423 -54.033  1.00  0.00    -0.084 Cl
HETATM   25  C   UNL     1     -40.068  53.951 -54.907  1.00  0.00     0.024 A 
HETATM   26  C   UNL     1     -40.595  55.243 -54.823  1.00  0.00     0.011 A 
ENDBRANCH  14  20
ENDBRANCH   1  14
TORSDOF 5
ENDMDL
MODEL 2
REMARK VINA RESULT:      -7.5      1.325      1.984
REMARK  5 active torsions:
REMARK  status: ('A' for Active; 'I' for Inactive)
REMARK    1  A    between atoms: C_8  and  C_9 
REMARK    2  A    between atoms: C_9  and  N_10 
REMARK    3  A    between atoms: N_10  and  C_13 
REMARK    4  A    between atoms: C_13  and  C_14 
REMARK    5  A    between atoms: C_13  and  C_19 
ROOT
HETATM    1  N   UNL     1     -42.202  57.903 -55.232  1.00  0.00    -0.056 N 
HETATM    2  H   UNL     1     -41.276  57.930 -55.683  1.00  0.00     0.278 HD
HETATM    3  H   UNL     1     -42.442  58.892 -55.093  1.00  0.00     0.278 HD
ENDROOT
BRANCH   1   4
HETATM    4  C   UNL     1     -43.166  57.276 -56.167  1.00  0.00     0.275 C 
BRANCH   4   5
HETATM    5  C   UNL     1     -42.841  57.583 -57.595  1.00  0.00     0.004 A 
HETATM    6  C   UNL     1     -43.224  56.733 -58.621  1.00  0.00     0.113 A 
HETATM    7  C   UNL     1     -42.969  57.011 -59.944  1.00  0.00     0.105 A 
HETATM    8  O   UNL     1     -43.865  55.538 -58.460  1.00  0.00    -0.322 OA
HETATM    9  C   UNL     1     -42.316  58.161 -60.326  1.00  0.00     0.040 A 
HETATM   10  O   UNL     1     -43.425  56.043 -60.778  1.00  0.00    -0.323 OA
HETATM   11  C   UNL     1     -41.921  59.049 -59.322  1.00  0.00     0.003 A 
HETATM   12  C   UNL     1     -42.185  58.767 -57.968  1.00  0.00     0.012 A 
HETATM   13  C   UNL     1     -44.041  55.135 -59.846  1.00  0.00     0.352 A 
ENDBRANCH   4   5
ENDBRANCH   1   4
BRANCH   1  14
HETATM   14  C   UNL     1     -42.055  57.253 -53.889  1.00  0.00     0.292 C 
BRANCH  14  15
HETATM   15  C   UNL     1     -41.091  57.972 -52.984  1.00  0.00     0.190 A 
HETATM   16  N   UNL     1     -40.308  58.964 -53.438  1.00  0.00    -0.109 NA
HETATM   17  O   UNL     1     -39.624  59.375 -52.288  1.00  0.00    -0.205 OA
HETATM   18  C   UNL     1     -40.098  58.613 -51.266  1.00  0.00     0.288 A 
HETATM   19  N   UNL     1     -41.021  57.756 -51.632  1.00  0.00    -0.215 NA
ENDBRANCH  14  15
BRANCH  14  20
HETATM   20  C   UNL     1     -41.555  55.820 -53.976  1.00  0.00    -0.020 A 
HETATM   21  C   UNL     1     -42.231  54.806 -53.273  1.00  0.00     0.011 A 
HETATM   22  C   UNL     1     -41.813  53.475 -53.360  1.00  0.00     0.024 A 
HETATM   23  C   UNL     1     -40.715  53.140 -54.148  1.00  0.00     0.034 A 
HETATM   24 CL   UNL     1     -40.205  51.503 -54.256  1.00  0.00    -0.084 Cl
HETATM   25  C   UNL     1     -40.028  54.128 -54.848  1.00  0.00     0.024 A 
HETATM   26  C   UNL     1     -40.444  55.460 -54.766  1.00  0.00     0.011 A 
ENDBRANCH  14  20
ENDBRANCH   1  14
TORSDOF 5
ENDMDL
MODEL 3
REMARK VINA RESULT:      -7.4      3.801      7.177
REMARK  5 active torsions:
REMARK  status: ('A' for Active; 'I' for Inactive)
REMARK    1  A    between atoms: C_8  and  C_9 
REMARK    2  A    between atoms: C_9  and  N_10 
REMARK    3  A    between atoms: N_10  and  C_13 
REMARK    4  A    between atoms: C_13  and  C_14 
REMARK    5  A    between atoms: C_13  and  C_19 
ROOT
HETATM    1  N   UNL     1     -41.917  53.984 -53.868  1.00  0.00    -0.056 N 
HETATM    2  H   UNL     1     -41.821  53.700 -54.853  1.00  0.00     0.278 HD
HETATM    3  H   UNL     1     -42.501  53.249 -53.451  1.00  0.00     0.278 HD
ENDROOT
BRANCH   1   4
HETATM    4  C   UNL     1     -40.574  53.978 -53.241  1.00  0.00     0.275 C 
BRANCH   4   5
HETATM    5  C   UNL     1     -40.320  52.719 -52.474  1.00  0.00     0.004 A 
HETATM    6  C   UNL     1     -40.029  51.526 -53.121  1.00  0.00     0.113 A 
HETATM    7  C   UNL     1     -39.757  50.364 -52.438  1.00  0.00     0.105 A 
HETATM    8  O   UNL     1     -39.998  51.349 -54.474  1.00  0.00    -0.322 OA
HETATM    9  C   UNL     1     -39.754  50.319 -51.062  1.00  0.00     0.040 A 
HETATM   10  O   UNL     1     -39.506  49.319 -53.267  1.00  0.00    -0.323 OA
HETATM   11  C   UNL     1     -40.033  51.502 -50.373  1.00  0.00     0.003 A 
HETATM   12  C   UNL     1     -40.309  52.694 -51.070  1.00  0.00     0.012 A 
HETATM   13  C   UNL     1     -39.604  49.952 -54.555  1.00  0.00     0.352 A 
ENDBRANCH   4   5
ENDBRANCH   1   4
BRANCH   1  14
HETATM   14  C   UNL     1     -42.671  55.279 -53.820  1.00  0.00     0.292 C 
BRANCH  14  15
HETATM   15  C   UNL     1     -42.909  55.876 -55.180  1.00  0.00     0.190 A 
HETATM   16  N   UNL     1     -42.335  55.367 -56.282  1.00  0.00    -0.109 NA
HETATM   17  O   UNL     1     -42.852  56.171 -57.306  1.00  0.00    -0.205 OA
HETATM   18  C   UNL     1     -43.706  57.046 -56.712  1.00  0.00     0.288 A 
HETATM   19  N   UNL     1     -43.802  56.891 -55.413  1.00  0.00    -0.215 NA
ENDBRANCH  14  15
BRANCH  14  20
HETATM   20  C   UNL     1     -41.956  56.351 -53.014  1.00  0.00    -0.020 A 
HETATM   21  C   UNL     1     -42.111  56.386 -51.615  1.00  0.00     0.011 A 
HETATM   22  C   UNL     1     -41.440  57.340 -50.845  1.00  0.00     0.024 A 
HETATM   23  C   UNL     1     -40.608  58.271 -51.461  1.00  0.00     0.034 A 
HETATM   24 CL   UNL     1     -39.783  59.442 -50.512  1.00  0.00    -0.084 Cl
HETATM   25  C   UNL     1     -40.444  58.259 -52.843  1.00  0.00     0.024 A 
HETATM   26  C   UNL     1     -41.111  57.304 -53.617  1.00  0.00     0.011 A 
ENDBRANCH  14  20
ENDBRANCH   1  14
TORSDOF 5
ENDMDL
MODEL 4
REMARK VINA RESULT:      -7.1      3.751      6.665
REMARK  5 active torsions:
REMARK  status: ('A' for Active; 'I' for Inactive)
REMARK    1  A    between atoms: C_8  and  C_9 
REMARK    2  A    between atoms: C_9  and  N_10 
REMARK    3  A    between atoms: N_10  and  C_13 
REMARK    4  A    between atoms: C_13  and  C_14 
REMARK    5  A    between atoms: C_13  and  C_19 
ROOT
HETATM    1  N   UNL     1     -42.734  54.885 -53.555  1.00  0.00    -0.056 N 
HETATM    2  H   UNL     1     -43.266  54.578 -54.382  1.00  0.00     0.278 HD
HETATM    3  H   UNL     1     -42.957  54.184 -52.839  1.00  0.00     0.278 HD
ENDROOT
BRANCH   1   4
HETATM    4  C   UNL     1     -41.288  54.836 -53.877  1.00  0.00     0.275 C 
BRANCH   4   5
HETATM    5  C   UNL     1     -40.669  53.534 -53.476  1.00  0.00     0.004 A 
HETATM    6  C   UNL     1     -40.548  53.174 -52.141  1.00  0.00     0.113 A 
HETATM    7  C   UNL     1     -40.016  51.968 -51.749  1.00  0.00     0.105 A 
HETATM    8  O   UNL     1     -40.909  53.950 -51.078  1.00  0.00    -0.322 OA
HETATM    9  C   UNL     1     -39.571  51.042 -52.665  1.00  0.00     0.040 A 
HETATM   10  O   UNL     1     -39.988  51.826 -50.399  1.00  0.00    -0.323 OA
HETATM   11  C   UNL     1     -39.684  51.364 -54.020  1.00  0.00     0.003 A 
HETATM   12  C   UNL     1     -40.232  52.597 -54.425  1.00  0.00     0.012 A 
HETATM   13  C   UNL     1     -40.603  53.054 -49.973  1.00  0.00     0.352 A 
ENDBRANCH   4   5
ENDBRANCH   1   4
BRANCH   1  14
HETATM   14  C   UNL     1     -43.274  56.211 -53.110  1.00  0.00     0.292 C 
BRANCH  14  15
HETATM   15  C   UNL     1     -43.887  57.007 -54.231  1.00  0.00     0.190 A 
HETATM   16  N   UNL     1     -43.670  56.691 -55.518  1.00  0.00    -0.109 NA
HETATM   17  O   UNL     1     -44.447  57.630 -56.207  1.00  0.00    -0.205 OA
HETATM   18  C   UNL     1     -45.073  58.380 -55.261  1.00  0.00     0.288 A 
HETATM   19  N   UNL     1     -44.788  58.021 -54.031  1.00  0.00    -0.215 NA
ENDBRANCH  14  15
BRANCH  14  20
HETATM   20  C   UNL     1     -42.212  57.107 -52.496  1.00  0.00    -0.020 A 
HETATM   21  C   UNL     1     -42.017  57.096 -51.102  1.00  0.00     0.011 A 
HETATM   22  C   UNL     1     -41.025  57.885 -50.512  1.00  0.00     0.024 A 
HETATM   23  C   UNL     1     -40.218  58.697 -51.305  1.00  0.00     0.034 A 
HETATM   24 CL   UNL     1     -38.999  59.665 -50.579  1.00  0.00    -0.084 Cl
HETATM   25  C   UNL     1     -40.397  58.728 -52.685  1.00  0.00     0.024 A 
HETATM   26  C   UNL     1     -41.386  57.938 -53.280  1.00  0.00     0.011 A 
ENDBRANCH  14  20
ENDBRANCH   1  14
TORSDOF 5
ENDMDL
MODEL 5
REMARK VINA RESULT:      -7.0      3.713      6.758
REMARK  5 active torsions:
REMARK  status: ('A' for Active; 'I' for Inactive)
REMARK    1  A    between atoms: C_8  and  C_9 
REMARK    2  A    between atoms: C_9  and  N_10 
REMARK    3  A    between atoms: N_10  and  C_13 
REMARK    4  A    between atoms: C_13  and  C_14 
REMARK    5  A    between atoms: C_13  and  C_19 
ROOT
HETATM    1  N   UNL     1     -42.844  57.010 -50.635  1.00  0.00    -0.056 N 
HETATM    2  H   UNL     1     -43.225  56.145 -51.044  1.00  0.00     0.278 HD
HETATM    3  H   UNL     1     -43.367  57.124 -49.759  1.00  0.00     0.278 HD
ENDROOT
BRANCH   1   4
HETATM    4  C   UNL     1     -41.407  56.802 -50.342  1.00  0.00     0.275 C 
BRANCH   4   5
HETATM    5  C   UNL     1     -41.054  55.350 -50.273  1.00  0.00     0.004 A 
HETATM    6  C   UNL     1     -40.871  54.596 -51.424  1.00  0.00     0.113 A 
HETATM    7  C   UNL     1     -40.512  53.269 -51.387  1.00  0.00     0.105 A 
HETATM    8  O   UNL     1     -41.038  55.051 -52.701  1.00  0.00    -0.322 OA
HETATM    9  C   UNL     1     -40.309  52.609 -50.197  1.00  0.00     0.040 A 
HETATM   10  O   UNL     1     -40.393  52.727 -52.626  1.00  0.00    -0.323 OA
HETATM   11  C   UNL     1     -40.475  53.335 -49.014  1.00  0.00     0.003 A 
HETATM   12  C   UNL     1     -40.839  54.695 -49.050  1.00  0.00     0.012 A 
HETATM   13  C   UNL     1     -40.671  53.866 -53.460  1.00  0.00     0.352 A 
ENDBRANCH   4   5
ENDBRANCH   1   4
BRANCH   1  14
HETATM   14  C   UNL     1     -43.181  58.152 -51.546  1.00  0.00     0.292 C 
BRANCH  14  15
HETATM   15  C   UNL     1     -44.569  58.693 -51.330  1.00  0.00     0.190 A 
HETATM   16  N   UNL     1     -45.453  58.063 -50.538  1.00  0.00    -0.109 NA
HETATM   17  O   UNL     1     -46.568  58.910 -50.578  1.00  0.00    -0.205 OA
HETATM   18  C   UNL     1     -46.219  59.970 -51.356  1.00  0.00     0.288 A 
HETATM   19  N   UNL     1     -44.993  59.902 -51.818  1.00  0.00    -0.215 NA
ENDBRANCH  14  15
BRANCH  14  20
HETATM   20  C   UNL     1     -43.104  57.780 -53.017  1.00  0.00    -0.020 A 
HETATM   21  C   UNL     1     -43.941  56.766 -53.520  1.00  0.00     0.011 A 
HETATM   22  C   UNL     1     -43.914  56.425 -54.876  1.00  0.00     0.024 A 
HETATM   23  C   UNL     1     -43.052  57.089 -55.744  1.00  0.00     0.034 A 
HETATM   24 CL   UNL     1     -43.023  56.670 -57.410  1.00  0.00    -0.084 Cl
HETATM   25  C   UNL     1     -42.212  58.091 -55.267  1.00  0.00     0.024 A 
HETATM   26  C   UNL     1     -42.237  58.438 -53.912  1.00  0.00     0.011 A 
ENDBRANCH  14  20
ENDBRANCH   1  14
TORSDOF 5
ENDMDL
MODEL 6
REMARK VINA RESULT:      -7.0      1.749      1.921
REMARK  5 active torsions:
REMARK  status: ('A' for Active; 'I' for Inactive)
REMARK    1  A    between atoms: C_8  and  C_9 
REMARK    2  A    between atoms: C_9  and  N_10 
REMARK    3  A    between atoms: N_10  and  C_13 
REMARK    4  A    between atoms: C_13  and  C_14 
REMARK    5  A    between atoms: C_13  and  C_19 
ROOT
HETATM    1  N   UNL     1     -42.268  57.534 -55.557  1.00  0.00    -0.056 N 
HETATM    2  H   UNL     1     -41.755  56.891 -56.178  1.00  0.00     0.278 HD
HETATM    3  H   UNL     1     -41.722  58.403 -55.589  1.00  0.00     0.278 HD
ENDROOT
BRANCH   1   4
HETATM    4  C   UNL     1     -43.618  57.763 -56.124  1.00  0.00     0.275 C 
BRANCH   4   5
HETATM    5  C   UNL     1     -43.762  57.163 -57.487  1.00  0.00     0.004 A 
HETATM    6  C   UNL     1     -44.868  57.430 -58.280  1.00  0.00     0.113 A 
HETATM    7  C   UNL     1     -45.006  56.919 -59.549  1.00  0.00     0.105 A 
HETATM    8  O   UNL     1     -45.940  58.192 -57.911  1.00  0.00    -0.322 OA
HETATM    9  C   UNL     1     -44.044  56.110 -60.110  1.00  0.00     0.040 A 
HETATM   10  O   UNL     1     -46.165  57.302 -60.142  1.00  0.00    -0.323 OA
HETATM   11  C   UNL     1     -42.910  55.824 -59.347  1.00  0.00     0.003 A 
HETATM   12  C   UNL     1     -42.765  56.349 -58.048  1.00  0.00     0.012 A 
HETATM   13  C   UNL     1     -46.732  58.152 -59.129  1.00  0.00     0.352 A 
ENDBRANCH   4   5
ENDBRANCH   1   4
BRANCH   1  14
HETATM   14  C   UNL     1     -42.214  56.987 -54.162  1.00  0.00     0.292 C 
BRANCH  14  15
HETATM   15  C   UNL     1     -41.437  57.858 -53.213  1.00  0.00     0.190 A 
HETATM   16  N   UNL     1     -40.456  58.668 -53.645  1.00  0.00    -0.109 NA
HETATM   17  O   UNL     1     -40.046  59.316 -52.474  1.00  0.00    -0.205 OA
HETATM   18  C   UNL     1     -40.848  58.854 -51.477  1.00  0.00     0.288 A 
HETATM   19  N   UNL     1     -41.739  57.980 -51.881  1.00  0.00    -0.215 NA
ENDBRANCH  14  15
BRANCH  14  20
HETATM   20  C   UNL     1     -41.568  55.613 -54.089  1.00  0.00    -0.020 A 
HETATM   21  C   UNL     1     -41.867  54.763 -53.008  1.00  0.00     0.011 A 
HETATM   22  C   UNL     1     -41.313  53.481 -52.932  1.00  0.00     0.024 A 
HETATM   23  C   UNL     1     -40.454  53.034 -53.931  1.00  0.00     0.034 A 
HETATM   24 CL   UNL     1     -39.776  51.458 -53.836  1.00  0.00    -0.084 Cl
HETATM   25  C   UNL     1     -40.140  53.860 -55.007  1.00  0.00     0.024 A 
HETATM   26  C   UNL     1     -40.694  55.141 -55.089  1.00  0.00     0.011 A 
ENDBRANCH  14  20
ENDBRANCH   1  14
TORSDOF 5
ENDMDL
MODEL 7
REMARK VINA RESULT:      -7.0     16.527     18.851
REMARK  5 active torsions:
REMARK  status: ('A' for Active; 'I' for Inactive)
REMARK    1  A    between atoms: C_8  and  C_9 
REMARK    2  A    between atoms: C_9  and  N_10 
REMARK    3  A    between atoms: N_10  and  C_13 
REMARK    4  A    between atoms: C_13  and  C_14 
REMARK    5  A    between atoms: C_13  and  C_19 
ROOT
HETATM    1  N   UNL     1     -34.996  42.141 -53.095  1.00  0.00    -0.056 N 
HETATM    2  H   UNL     1     -35.044  43.117 -53.421  1.00  0.00     0.278 HD
HETATM    3  H   UNL     1     -34.165  41.761 -53.564  1.00  0.00     0.278 HD
ENDROOT
BRANCH   1   4
HETATM    4  C   UNL     1     -34.792  42.141 -51.627  1.00  0.00     0.275 C 
BRANCH   4   5
HETATM    5  C   UNL     1     -33.886  41.035 -51.187  1.00  0.00     0.004 A 
HETATM    6  C   UNL     1     -34.339  40.017 -50.360  1.00  0.00     0.113 A 
HETATM    7  C   UNL     1     -33.536  38.971 -49.972  1.00  0.00     0.105 A 
HETATM    8  O   UNL     1     -35.592  39.934 -49.824  1.00  0.00    -0.322 OA
HETATM    9  C   UNL     1     -32.227  38.871 -50.387  1.00  0.00     0.040 A 
HETATM   10  O   UNL     1     -34.179  38.094 -49.160  1.00  0.00    -0.323 OA
HETATM   11  C   UNL     1     -31.735  39.872 -51.229  1.00  0.00     0.003 A 
HETATM   12  C   UNL     1     -32.557  40.943 -51.631  1.00  0.00     0.012 A 
HETATM   13  C   UNL     1     -35.496  38.671 -49.109  1.00  0.00     0.352 A 
ENDBRANCH   4   5
ENDBRANCH   1   4
BRANCH   1  14
HETATM   14  C   UNL     1     -36.205  41.413 -53.600  1.00  0.00     0.292 C 
BRANCH  14  15
HETATM   15  C   UNL     1     -36.154  39.930 -53.346  1.00  0.00     0.190 A 
HETATM   16  N   UNL     1     -37.130  39.298 -52.674  1.00  0.00    -0.109 NA
HETATM   17  O   UNL     1     -36.719  37.960 -52.709  1.00  0.00    -0.205 OA
HETATM   18  C   UNL     1     -35.566  37.931 -53.430  1.00  0.00     0.288 A 
HETATM   19  N   UNL     1     -35.190  39.108 -53.870  1.00  0.00    -0.215 NA
ENDBRANCH  14  15
BRANCH  14  20
HETATM   20  C   UNL     1     -36.409  41.572 -55.098  1.00  0.00    -0.020 A 
HETATM   21  C   UNL     1     -37.644  41.215 -55.671  1.00  0.00     0.011 A 
HETATM   22  C   UNL     1     -37.872  41.381 -57.040  1.00  0.00     0.024 A 
HETATM   23  C   UNL     1     -36.870  41.903 -57.854  1.00  0.00     0.034 A 
HETATM   24 CL   UNL     1     -37.152  42.108 -59.536  1.00  0.00    -0.084 Cl
HETATM   25  C   UNL     1     -35.639  42.257 -57.310  1.00  0.00     0.024 A 
HETATM   26  C   UNL     1     -35.408  42.096 -55.940  1.00  0.00     0.011 A 
ENDBRANCH  14  20
ENDBRANCH   1  14
TORSDOF 5
ENDMDL
MODEL 8
REMARK VINA RESULT:      -6.9      3.340      6.699
REMARK  5 active torsions:
REMARK  status: ('A' for Active; 'I' for Inactive)
REMARK    1  A    between atoms: C_8  and  C_9 
REMARK    2  A    between atoms: C_9  and  N_10 
REMARK    3  A    between atoms: N_10  and  C_13 
REMARK    4  A    between atoms: C_13  and  C_14 
REMARK    5  A    between atoms: C_13  and  C_19 
ROOT
HETATM    1  N   UNL     1     -42.880  56.163 -55.938  1.00  0.00    -0.056 N 
HETATM    2  H   UNL     1     -43.790  56.531 -55.623  1.00  0.00     0.278 HD
HETATM    3  H   UNL     1     -42.206  56.559 -55.272  1.00  0.00     0.278 HD
ENDROOT
BRANCH   1   4
HETATM    4  C   UNL     1     -42.901  54.686 -55.819  1.00  0.00     0.275 C 
BRANCH   4   5
HETATM    5  C   UNL     1     -42.116  54.209 -54.638  1.00  0.00     0.004 A 
HETATM    6  C   UNL     1     -42.453  54.586 -53.347  1.00  0.00     0.113 A 
HETATM    7  C   UNL     1     -41.769  54.132 -52.244  1.00  0.00     0.105 A 
HETATM    8  O   UNL     1     -43.460  55.446 -53.012  1.00  0.00    -0.322 OA
HETATM    9  C   UNL     1     -40.704  53.268 -52.359  1.00  0.00     0.040 A 
HETATM   10  O   UNL     1     -42.263  54.632 -51.082  1.00  0.00    -0.323 OA
HETATM   11  C   UNL     1     -40.338  52.856 -53.643  1.00  0.00     0.003 A 
HETATM   12  C   UNL     1     -41.039  53.317 -54.775  1.00  0.00     0.012 A 
HETATM   13  C   UNL     1     -43.368  55.420 -51.561  1.00  0.00     0.352 A 
ENDBRANCH   4   5
ENDBRANCH   1   4
BRANCH   1  14
HETATM   14  C   UNL     1     -42.591  56.720 -57.299  1.00  0.00     0.292 C 
BRANCH  14  15
HETATM   15  C   UNL     1     -42.235  58.182 -57.279  1.00  0.00     0.190 A 
HETATM   16  N   UNL     1     -42.180  58.876 -56.130  1.00  0.00    -0.109 NA
HETATM   17  O   UNL     1     -41.774  60.148 -56.551  1.00  0.00    -0.205 OA
HETATM   18  C   UNL     1     -41.594  60.068 -57.897  1.00  0.00     0.288 A 
HETATM   19  N   UNL     1     -41.834  58.877 -58.391  1.00  0.00    -0.215 NA
ENDBRANCH  14  15
BRANCH  14  20
HETATM   20  C   UNL     1     -43.766  56.591 -58.254  1.00  0.00    -0.020 A 
HETATM   21  C   UNL     1     -44.870  57.452 -58.115  1.00  0.00     0.011 A 
HETATM   22  C   UNL     1     -45.950  57.378 -59.000  1.00  0.00     0.024 A 
HETATM   23  C   UNL     1     -45.943  56.443 -60.031  1.00  0.00     0.034 A 
HETATM   24 CL   UNL     1     -47.270  56.356 -61.118  1.00  0.00    -0.084 Cl
HETATM   25  C   UNL     1     -44.864  55.577 -60.184  1.00  0.00     0.024 A 
HETATM   26  C   UNL     1     -43.779  55.650 -59.304  1.00  0.00     0.011 A 
ENDBRANCH  14  20
ENDBRANCH   1  14
TORSDOF 5
ENDMDL
MODEL 9
REMARK VINA RESULT:      -6.9     16.322     18.394
REMARK  5 active torsions:
REMARK  status: ('A' for Active; 'I' for Inactive)
REMARK    1  A    between atoms: C_8  and  C_9 
REMARK    2  A    between atoms: C_9  and  N_10 
REMARK    3  A    between atoms: N_10  and  C_13 
REMARK    4  A    between atoms: C_13  and  C_14 
REMARK    5  A    between atoms: C_13  and  C_19 
ROOT
HETATM    1  N   UNL     1     -34.860  42.287 -53.041  1.00  0.00    -0.056 N 
HETATM    2  H   UNL     1     -34.593  43.236 -53.339  1.00  0.00     0.278 HD
HETATM    3  H   UNL     1     -34.251  41.670 -53.592  1.00  0.00     0.278 HD
ENDROOT
BRANCH   1   4
HETATM    4  C   UNL     1     -34.554  42.140 -51.598  1.00  0.00     0.275 C 
BRANCH   4   5
HETATM    5  C   UNL     1     -33.664  40.968 -51.331  1.00  0.00     0.004 A 
HETATM    6  C   UNL     1     -32.970  40.341 -52.355  1.00  0.00     0.113 A 
HETATM    7  C   UNL     1     -32.118  39.285 -52.130  1.00  0.00     0.105 A 
HETATM    8  O   UNL     1     -33.053  40.663 -53.679  1.00  0.00    -0.322 OA
HETATM    9  C   UNL     1     -31.902  38.788 -50.864  1.00  0.00     0.040 A 
HETATM   10  O   UNL     1     -31.549  38.821 -53.272  1.00  0.00    -0.323 OA
HETATM   11  C   UNL     1     -32.576  39.398 -49.803  1.00  0.00     0.003 A 
HETATM   12  C   UNL     1     -33.446  40.482 -50.031  1.00  0.00     0.012 A 
HETATM   13  C   UNL     1     -32.097  39.727 -54.247  1.00  0.00     0.352 A 
ENDBRANCH   4   5
ENDBRANCH   1   4
BRANCH   1  14
HETATM   14  C   UNL     1     -36.282  42.045 -53.450  1.00  0.00     0.292 C 
BRANCH  14  15
HETATM   15  C   UNL     1     -36.858  40.780 -52.873  1.00  0.00     0.190 A 
HETATM   16  N   UNL     1     -36.364  39.572 -53.194  1.00  0.00    -0.109 NA
HETATM   17  O   UNL     1     -37.137  38.701 -52.417  1.00  0.00    -0.205 OA
HETATM   18  C   UNL     1     -37.980  39.480 -51.689  1.00  0.00     0.288 A 
HETATM   19  N   UNL     1     -37.831  40.765 -51.907  1.00  0.00    -0.215 NA
ENDBRANCH  14  15
BRANCH  14  20
HETATM   20  C   UNL     1     -36.454  41.931 -54.956  1.00  0.00    -0.020 A 
HETATM   21  C   UNL     1     -37.703  41.556 -55.484  1.00  0.00     0.011 A 
HETATM   22  C   UNL     1     -37.900  41.475 -56.866  1.00  0.00     0.024 A 
HETATM   23  C   UNL     1     -36.852  41.766 -57.737  1.00  0.00     0.034 A 
HETATM   24 CL   UNL     1     -37.097  41.669 -59.434  1.00  0.00    -0.084 Cl
HETATM   25  C   UNL     1     -35.607  42.135 -57.236  1.00  0.00     0.024 A 
HETATM   26  C   UNL     1     -35.407  42.220 -55.854  1.00  0.00     0.011 A 
ENDBRANCH  14  20
ENDBRANCH   1  14
TORSDOF 5
ENDMDL
MODEL 10
REMARK VINA RESULT:      -6.8      1.628      2.043
REMARK  5 active torsions:
REMARK  status: ('A' for Active; 'I' for Inactive)
REMARK    1  A    between atoms: C_8  and  C_9 
REMARK    2  A    between atoms: C_9  and  N_10 
REMARK    3  A    between atoms: N_10  and  C_13 
REMARK    4  A    between atoms: C_13  and  C_14 
REMARK    5  A    between atoms: C_13  and  C_19 
ROOT
HETATM    1  N   UNL     1     -41.885  55.904 -55.999  1.00  0.00    -0.056 N 
HETATM    2  H   UNL     1     -40.962  55.477 -56.164  1.00  0.00     0.278 HD
HETATM    3  H   UNL     1     -41.745  56.897 -56.220  1.00  0.00     0.278 HD
ENDROOT
BRANCH   1   4
HETATM    4  C   UNL     1     -42.858  55.307 -56.944  1.00  0.00     0.275 C 
BRANCH   4   5
HETATM    5  C   UNL     1     -43.232  56.259 -58.037  1.00  0.00     0.004 A 
HETATM    6  C   UNL     1     -43.767  57.508 -57.754  1.00  0.00     0.113 A 
HETATM    7  C   UNL     1     -44.085  58.413 -58.739  1.00  0.00     0.105 A 
HETATM    8  O   UNL     1     -44.058  57.978 -56.506  1.00  0.00    -0.322 OA
HETATM    9  C   UNL     1     -43.887  58.130 -60.072  1.00  0.00     0.040 A 
HETATM   10  O   UNL     1     -44.599  59.566 -58.241  1.00  0.00    -0.323 OA
HETATM   11  C   UNL     1     -43.341  56.886 -60.398  1.00  0.00     0.003 A 
HETATM   12  C   UNL     1     -43.011  55.958 -59.390  1.00  0.00     0.012 A 
HETATM   13  C   UNL     1     -44.532  59.316 -56.825  1.00  0.00     0.352 A 
ENDBRANCH   4   5
ENDBRANCH   1   4
BRANCH   1  14
HETATM   14  C   UNL     1     -42.209  55.780 -54.541  1.00  0.00     0.292 C 
BRANCH  14  15
HETATM   15  C   UNL     1     -41.817  56.994 -53.741  1.00  0.00     0.190 A 
HETATM   16  N   UNL     1     -40.550  57.439 -53.716  1.00  0.00    -0.109 NA
HETATM   17  O   UNL     1     -40.637  58.585 -52.915  1.00  0.00    -0.205 OA
HETATM   18  C   UNL     1     -41.949  58.723 -52.581  1.00  0.00     0.288 A 
HETATM   19  N   UNL     1     -42.721  57.790 -53.086  1.00  0.00    -0.215 NA
ENDBRANCH  14  15
BRANCH  14  20
HETATM   20  C   UNL     1     -41.515  54.603 -53.877  1.00  0.00    -0.020 A 
HETATM   21  C   UNL     1     -40.702  53.752 -54.649  1.00  0.00     0.011 A 
HETATM   22  C   UNL     1     -40.025  52.680 -54.059  1.00  0.00     0.024 A 
HETATM   23  C   UNL     1     -40.152  52.444 -52.693  1.00  0.00     0.034 A 
HETATM   24 CL   UNL     1     -39.318  51.128 -51.970  1.00  0.00    -0.084 Cl
HETATM   25  C   UNL     1     -40.955  53.269 -51.911  1.00  0.00     0.024 A 
HETATM   26  C   UNL     1     -41.632  54.344 -52.496  1.00  0.00     0.011 A 
ENDBRANCH  14  20
ENDBRANCH   1  14
TORSDOF 5
ENDMDL
