MODEL 1
REMARK VINA RESULT:      -8.7      0.000      0.000
REMARK  5 active torsions:
REMARK  status: ('A' for Active; 'I' for Inactive)
REMARK    1  A    between atoms: C_6  and  C_7 
REMARK       I    between atoms: C_7  and  N_8 
REMARK    2  A    between atoms: N_8  and  C_9 
REMARK    3  A    between atoms: C_16  and  C_17 
REMARK    4  A    between atoms: C_23  and  C_24 
REMARK       I    between atoms: C_24  and  N_25 
REMARK    5  A    between atoms: N_25  and  C_26 
ROOT
HETATM    1  C   UNL     1     -42.541  55.950 -56.731  1.00  0.00     0.069 C 
HETATM    2  C   UNL     1     -42.856  56.692 -55.454  1.00  0.00     0.018 C 
HETATM    3  N   UNL     1     -43.778  57.723 -55.566  1.00  0.00    -0.362 N 
HETATM    4  C   UNL     1     -44.328  58.396 -54.484  1.00  0.00     0.018 C 
HETATM    5  C   UNL     1     -45.484  59.311 -54.791  1.00  0.00     0.069 C 
HETATM    6  C   UNL     1     -43.831  58.175 -53.247  1.00  0.00     0.045 C 
HETATM    7  C   UNL     1     -42.683  57.204 -53.001  1.00  0.00     0.101 C 
HETATM    8  C   UNL     1     -42.320  56.398 -54.248  1.00  0.00     0.045 C 
HETATM    9  H   UNL     1     -44.236  57.841 -56.468  1.00  0.00     0.165 HD
ENDROOT
BRANCH   6  10
HETATM   10  C   UNL     1     -44.543  58.711 -52.059  1.00  0.00     0.255 C 
HETATM   11  N   UNL     1     -44.241  60.027 -51.799  1.00  0.00    -0.323 N 
HETATM   12  H   UNL     1     -43.539  60.469 -52.383  1.00  0.00     0.169 HD
HETATM   13  O   UNL     1     -45.282  57.969 -51.424  1.00  0.00    -0.268 OA
BRANCH  11  14
HETATM   14  C   UNL     1     -44.734  60.817 -50.740  1.00  0.00     0.035 A 
HETATM   15  C   UNL     1     -44.065  60.997 -49.529  1.00  0.00     0.029 A 
HETATM   16  C   UNL     1     -44.625  61.791 -48.523  1.00  0.00     0.002 A 
HETATM   17  C   UNL     1     -45.852  62.418 -48.726  1.00  0.00     0.000 A 
HETATM   18  C   UNL     1     -46.525  62.246 -49.932  1.00  0.00     0.002 A 
HETATM   19  C   UNL     1     -45.973  61.443 -50.932  1.00  0.00     0.029 A 
ENDBRANCH  11  14
ENDBRANCH   6  10
BRANCH   7  20
HETATM   20  C   UNL     1     -41.470  57.922 -52.426  1.00  0.00    -0.027 A 
HETATM   21  C   UNL     1     -40.607  58.637 -53.255  1.00  0.00     0.124 A 
HETATM   22  N   UNL     1     -39.482  59.252 -52.828  1.00  0.00    -0.273 NA
HETATM   23  C   UNL     1     -39.209  59.182 -51.508  1.00  0.00     0.116 A 
HETATM   24  C   UNL     1     -39.997  58.500 -50.597  1.00  0.00     0.020 A 
HETATM   25  C   UNL     1     -41.138  57.857 -51.066  1.00  0.00     0.011 A 
ENDBRANCH   7  20
BRANCH   8  26
HETATM   26  C   UNL     1     -41.269  55.347 -54.125  1.00  0.00     0.255 C 
HETATM   27  N   UNL     1     -41.706  54.217 -53.467  1.00  0.00    -0.323 N 
HETATM   28  H   UNL     1     -42.669  54.195 -53.159  1.00  0.00     0.169 HD
HETATM   29  O   UNL     1     -40.152  55.552 -54.587  1.00  0.00    -0.268 OA
BRANCH  27  30
HETATM   30  C   UNL     1     -40.958  53.055 -53.182  1.00  0.00     0.035 A 
HETATM   31  C   UNL     1     -40.370  52.788 -51.944  1.00  0.00     0.029 A 
HETATM   32  C   UNL     1     -39.634  51.615 -51.746  1.00  0.00     0.002 A 
HETATM   33  C   UNL     1     -39.488  50.694 -52.780  1.00  0.00     0.000 A 
HETATM   34  C   UNL     1     -40.073  50.947 -54.017  1.00  0.00     0.002 A 
HETATM   35  C   UNL     1     -40.799  52.125 -54.219  1.00  0.00     0.029 A 
ENDBRANCH  27  30
ENDBRANCH   8  26
TORSDOF 5
ENDMDL
MODEL 2
REMARK VINA RESULT:      -8.2      1.766      2.233
REMARK  5 active torsions:
REMARK  status: ('A' for Active; 'I' for Inactive)
REMARK    1  A    between atoms: C_6  and  C_7 
REMARK       I    between atoms: C_7  and  N_8 
REMARK    2  A    between atoms: N_8  and  C_9 
REMARK    3  A    between atoms: C_16  and  C_17 
REMARK    4  A    between atoms: C_23  and  C_24 
REMARK       I    between atoms: C_24  and  N_25 
REMARK    5  A    between atoms: N_25  and  C_26 
ROOT
HETATM    1  C   UNL     1     -44.738  56.274 -54.332  1.00  0.00     0.069 C 
HETATM    2  C   UNL     1     -44.387  57.400 -53.390  1.00  0.00     0.018 C 
HETATM    3  N   UNL     1     -44.928  58.640 -53.702  1.00  0.00    -0.362 N 
HETATM    4  C   UNL     1     -44.870  59.747 -52.867  1.00  0.00     0.018 C 
HETATM    5  C   UNL     1     -45.719  60.925 -53.269  1.00  0.00     0.069 C 
HETATM    6  C   UNL     1     -44.104  59.696 -51.756  1.00  0.00     0.045 C 
HETATM    7  C   UNL     1     -43.300  58.456 -51.386  1.00  0.00     0.101 C 
HETATM    8  C   UNL     1     -43.618  57.262 -52.286  1.00  0.00     0.045 C 
HETATM    9  H   UNL     1     -45.586  58.678 -54.479  1.00  0.00     0.165 HD
ENDROOT
BRANCH   6  10
HETATM   10  C   UNL     1     -44.202  60.777 -50.742  1.00  0.00     0.255 C 
HETATM   11  N   UNL     1     -45.055  60.470 -49.707  1.00  0.00    -0.323 N 
HETATM   12  H   UNL     1     -45.564  59.595 -49.768  1.00  0.00     0.169 HD
HETATM   13  O   UNL     1     -43.569  61.812 -50.913  1.00  0.00    -0.268 OA
BRANCH  11  14
HETATM   14  C   UNL     1     -45.376  61.284 -48.603  1.00  0.00     0.035 A 
HETATM   15  C   UNL     1     -44.776  61.165 -47.349  1.00  0.00     0.029 A 
HETATM   16  C   UNL     1     -45.157  62.007 -46.300  1.00  0.00     0.002 A 
HETATM   17  C   UNL     1     -46.133  62.981 -46.500  1.00  0.00     0.000 A 
HETATM   18  C   UNL     1     -46.735  63.109 -47.749  1.00  0.00     0.002 A 
HETATM   19  C   UNL     1     -46.365  62.259 -48.794  1.00  0.00     0.029 A 
ENDBRANCH  11  14
ENDBRANCH   6  10
BRANCH   7  20
HETATM   20  C   UNL     1     -41.807  58.757 -51.362  1.00  0.00    -0.027 A 
HETATM   21  C   UNL     1     -41.106  58.973 -52.547  1.00  0.00     0.124 A 
HETATM   22  N   UNL     1     -39.773  59.189 -52.610  1.00  0.00    -0.273 NA
HETATM   23  C   UNL     1     -39.102  59.221 -51.440  1.00  0.00     0.116 A 
HETATM   24  C   UNL     1     -39.699  59.020 -50.208  1.00  0.00     0.020 A 
HETATM   25  C   UNL     1     -41.069  58.777 -50.172  1.00  0.00     0.011 A 
ENDBRANCH   7  20
BRANCH   8  26
HETATM   26  C   UNL     1     -42.965  55.957 -51.981  1.00  0.00     0.255 C 
HETATM   27  N   UNL     1     -42.080  55.553 -52.959  1.00  0.00    -0.323 N 
HETATM   28  H   UNL     1     -41.943  56.165 -53.752  1.00  0.00     0.169 HD
HETATM   29  O   UNL     1     -43.247  55.366 -50.946  1.00  0.00    -0.268 OA
BRANCH  27  30
HETATM   30  C   UNL     1     -41.313  54.368 -52.976  1.00  0.00     0.035 A 
HETATM   31  C   UNL     1     -40.629  53.864 -51.867  1.00  0.00     0.029 A 
HETATM   32  C   UNL     1     -39.881  52.686 -51.971  1.00  0.00     0.002 A 
HETATM   33  C   UNL     1     -39.819  51.997 -53.179  1.00  0.00     0.000 A 
HETATM   34  C   UNL     1     -40.500  52.488 -54.290  1.00  0.00     0.002 A 
HETATM   35  C   UNL     1     -41.238  53.671 -54.189  1.00  0.00     0.029 A 
ENDBRANCH  27  30
ENDBRANCH   8  26
TORSDOF 5
ENDMDL
MODEL 3
REMARK VINA RESULT:      -8.1      3.686      7.514
REMARK  5 active torsions:
REMARK  status: ('A' for Active; 'I' for Inactive)
REMARK    1  A    between atoms: C_6  and  C_7 
REMARK       I    between atoms: C_7  and  N_8 
REMARK    2  A    between atoms: N_8  and  C_9 
REMARK    3  A    between atoms: C_16  and  C_17 
REMARK    4  A    between atoms: C_23  and  C_24 
REMARK       I    between atoms: C_24  and  N_25 
REMARK    5  A    between atoms: N_25  and  C_26 
ROOT
HETATM    1  C   UNL     1     -44.452  57.448 -58.859  1.00  0.00     0.069 C 
HETATM    2  C   UNL     1     -43.672  57.168 -57.598  1.00  0.00     0.018 C 
HETATM    3  N   UNL     1     -43.827  55.897 -57.060  1.00  0.00    -0.362 N 
HETATM    4  C   UNL     1     -43.062  55.394 -56.018  1.00  0.00     0.018 C 
HETATM    5  C   UNL     1     -43.212  53.922 -55.737  1.00  0.00     0.069 C 
HETATM    6  C   UNL     1     -42.226  56.221 -55.353  1.00  0.00     0.045 C 
HETATM    7  C   UNL     1     -42.094  57.696 -55.715  1.00  0.00     0.101 C 
HETATM    8  C   UNL     1     -42.843  58.053 -56.999  1.00  0.00     0.045 C 
HETATM    9  H   UNL     1     -44.375  55.229 -57.599  1.00  0.00     0.165 HD
ENDROOT
BRANCH   6  10
HETATM   10  C   UNL     1     -41.244  55.661 -54.390  1.00  0.00     0.255 C 
HETATM   11  N   UNL     1     -41.805  55.334 -53.178  1.00  0.00    -0.323 N 
HETATM   12  H   UNL     1     -42.785  55.559 -53.042  1.00  0.00     0.169 HD
HETATM   13  O   UNL     1     -40.070  55.565 -54.726  1.00  0.00    -0.268 OA
BRANCH  11  14
HETATM   14  C   UNL     1     -41.144  54.801 -52.054  1.00  0.00     0.035 A 
HETATM   15  C   UNL     1     -40.557  53.535 -52.026  1.00  0.00     0.029 A 
HETATM   16  C   UNL     1     -39.925  53.073 -50.867  1.00  0.00     0.002 A 
HETATM   17  C   UNL     1     -39.867  53.878 -49.731  1.00  0.00     0.000 A 
HETATM   18  C   UNL     1     -40.448  55.143 -49.750  1.00  0.00     0.002 A 
HETATM   19  C   UNL     1     -41.091  55.599 -50.904  1.00  0.00     0.029 A 
ENDBRANCH  11  14
ENDBRANCH   6  10
BRANCH   7  20
HETATM   20  C   UNL     1     -42.516  58.586 -54.555  1.00  0.00    -0.027 A 
HETATM   21  C   UNL     1     -41.613  59.475 -53.974  1.00  0.00     0.124 A 
HETATM   22  N   UNL     1     -41.897  60.255 -52.908  1.00  0.00    -0.273 NA
HETATM   23  C   UNL     1     -43.147  60.174 -52.405  1.00  0.00     0.116 A 
HETATM   24  C   UNL     1     -44.121  59.327 -52.905  1.00  0.00     0.020 A 
HETATM   25  C   UNL     1     -43.796  58.518 -53.989  1.00  0.00     0.011 A 
ENDBRANCH   7  20
BRANCH   8  26
HETATM   26  C   UNL     1     -42.727  59.446 -57.517  1.00  0.00     0.255 C 
HETATM   27  N   UNL     1     -41.693  59.606 -58.416  1.00  0.00    -0.323 N 
HETATM   28  H   UNL     1     -41.143  58.790 -58.650  1.00  0.00     0.169 HD
HETATM   29  O   UNL     1     -43.510  60.304 -57.126  1.00  0.00    -0.268 OA
BRANCH  27  30
HETATM   30  C   UNL     1     -41.315  60.795 -59.076  1.00  0.00     0.035 A 
HETATM   31  C   UNL     1     -41.616  61.079 -60.409  1.00  0.00     0.029 A 
HETATM   32  C   UNL     1     -41.194  62.279 -60.991  1.00  0.00     0.002 A 
HETATM   33  C   UNL     1     -40.476  63.209 -60.243  1.00  0.00     0.000 A 
HETATM   34  C   UNL     1     -40.174  62.938 -58.912  1.00  0.00     0.002 A 
HETATM   35  C   UNL     1     -40.586  61.734 -58.333  1.00  0.00     0.029 A 
ENDBRANCH  27  30
ENDBRANCH   8  26
TORSDOF 5
ENDMDL
MODEL 4
REMARK VINA RESULT:      -8.0      1.625      2.058
REMARK  5 active torsions:
REMARK  status: ('A' for Active; 'I' for Inactive)
REMARK    1  A    between atoms: C_6  and  C_7 
REMARK       I    between atoms: C_7  and  N_8 
REMARK    2  A    between atoms: N_8  and  C_9 
REMARK    3  A    between atoms: C_16  and  C_17 
REMARK    4  A    between atoms: C_23  and  C_24 
REMARK       I    between atoms: C_24  and  N_25 
REMARK    5  A    between atoms: N_25  and  C_26 
ROOT
HETATM    1  C   UNL     1     -42.859  55.634 -56.503  1.00  0.00     0.069 C 
HETATM    2  C   UNL     1     -43.011  56.855 -55.630  1.00  0.00     0.018 C 
HETATM    3  N   UNL     1     -43.222  58.054 -56.297  1.00  0.00    -0.362 N 
HETATM    4  C   UNL     1     -43.562  59.244 -55.671  1.00  0.00     0.018 C 
HETATM    5  C   UNL     1     -43.985  60.372 -56.576  1.00  0.00     0.069 C 
HETATM    6  C   UNL     1     -43.527  59.314 -54.322  1.00  0.00     0.045 C 
HETATM    7  C   UNL     1     -43.127  58.121 -53.463  1.00  0.00     0.101 C 
HETATM    8  C   UNL     1     -42.975  56.837 -54.278  1.00  0.00     0.045 C 
HETATM    9  H   UNL     1     -43.348  58.007 -57.307  1.00  0.00     0.165 HD
ENDROOT
BRANCH   6  10
HETATM   10  C   UNL     1     -44.096  60.498 -53.630  1.00  0.00     0.255 C 
HETATM   11  N   UNL     1     -45.366  60.282 -53.148  1.00  0.00    -0.323 N 
HETATM   12  H   UNL     1     -45.800  59.390 -53.361  1.00  0.00     0.169 HD
HETATM   13  O   UNL     1     -43.434  61.527 -53.569  1.00  0.00    -0.268 OA
BRANCH  11  14
HETATM   14  C   UNL     1     -46.182  61.204 -52.463  1.00  0.00     0.035 A 
HETATM   15  C   UNL     1     -47.284  61.842 -53.036  1.00  0.00     0.029 A 
HETATM   16  C   UNL     1     -48.040  62.752 -52.290  1.00  0.00     0.002 A 
HETATM   17  C   UNL     1     -47.705  63.024 -50.965  1.00  0.00     0.000 A 
HETATM   18  C   UNL     1     -46.609  62.391 -50.385  1.00  0.00     0.002 A 
HETATM   19  C   UNL     1     -45.846  61.491 -51.133  1.00  0.00     0.029 A 
ENDBRANCH  11  14
ENDBRANCH   6  10
BRANCH   7  20
HETATM   20  C   UNL     1     -41.873  58.423 -52.654  1.00  0.00    -0.027 A 
HETATM   21  C   UNL     1     -40.728  58.919 -53.276  1.00  0.00     0.124 A 
HETATM   22  N   UNL     1     -39.561  59.157 -52.636  1.00  0.00    -0.273 NA
HETATM   23  C   UNL     1     -39.532  58.920 -51.308  1.00  0.00     0.116 A 
HETATM   24  C   UNL     1     -40.610  58.429 -50.592  1.00  0.00     0.020 A 
HETATM   25  C   UNL     1     -41.792  58.170 -51.278  1.00  0.00     0.011 A 
ENDBRANCH   7  20
BRANCH   8  26
HETATM   26  C   UNL     1     -42.670  55.573 -53.548  1.00  0.00     0.255 C 
HETATM   27  N   UNL     1     -41.363  55.162 -53.700  1.00  0.00    -0.323 N 
HETATM   28  H   UNL     1     -40.748  55.744 -54.251  1.00  0.00     0.169 HD
HETATM   29  O   UNL     1     -43.554  55.016 -52.907  1.00  0.00    -0.268 OA
BRANCH  27  30
HETATM   30  C   UNL     1     -40.764  54.008 -53.149  1.00  0.00     0.035 A 
HETATM   31  C   UNL     1     -40.464  53.854 -51.794  1.00  0.00     0.029 A 
HETATM   32  C   UNL     1     -39.860  52.680 -51.331  1.00  0.00     0.002 A 
HETATM   33  C   UNL     1     -39.559  51.648 -52.215  1.00  0.00     0.000 A 
HETATM   34  C   UNL     1     -39.858  51.789 -53.567  1.00  0.00     0.002 A 
HETATM   35  C   UNL     1     -40.451  52.966 -54.033  1.00  0.00     0.029 A 
ENDBRANCH  27  30
ENDBRANCH   8  26
TORSDOF 5
ENDMDL
MODEL 5
REMARK VINA RESULT:      -7.9      1.871      2.194
REMARK  5 active torsions:
REMARK  status: ('A' for Active; 'I' for Inactive)
REMARK    1  A    between atoms: C_6  and  C_7 
REMARK       I    between atoms: C_7  and  N_8 
REMARK    2  A    between atoms: N_8  and  C_9 
REMARK    3  A    between atoms: C_16  and  C_17 
REMARK    4  A    between atoms: C_23  and  C_24 
REMARK       I    between atoms: C_24  and  N_25 
REMARK    5  A    between atoms: N_25  and  C_26 
ROOT
HETATM    1  C   UNL     1     -42.868  55.292 -56.565  1.00  0.00     0.069 C 
HETATM    2  C   UNL     1     -43.093  56.487 -55.671  1.00  0.00     0.018 C 
HETATM    3  N   UNL     1     -43.369  57.684 -56.319  1.00  0.00    -0.362 N 
HETATM    4  C   UNL     1     -43.779  58.841 -55.673  1.00  0.00     0.018 C 
HETATM    5  C   UNL     1     -44.261  59.959 -56.560  1.00  0.00     0.069 C 
HETATM    6  C   UNL     1     -43.754  58.888 -54.323  1.00  0.00     0.045 C 
HETATM    7  C   UNL     1     -43.290  57.705 -53.483  1.00  0.00     0.101 C 
HETATM    8  C   UNL     1     -43.062  56.446 -54.320  1.00  0.00     0.045 C 
HETATM    9  H   UNL     1     -43.488  57.648 -57.329  1.00  0.00     0.165 HD
ENDROOT
BRANCH   6  10
HETATM   10  C   UNL     1     -44.393  60.026 -53.612  1.00  0.00     0.255 C 
HETATM   11  N   UNL     1     -43.507  61.031 -53.300  1.00  0.00    -0.323 N 
HETATM   12  H   UNL     1     -42.529  60.875 -53.519  1.00  0.00     0.169 HD
HETATM   13  O   UNL     1     -45.588  59.969 -53.352  1.00  0.00    -0.268 OA
BRANCH  11  14
HETATM   14  C   UNL     1     -43.792  62.230 -52.616  1.00  0.00     0.035 A 
HETATM   15  C   UNL     1     -44.509  63.290 -53.173  1.00  0.00     0.029 A 
HETATM   16  C   UNL     1     -44.744  64.451 -52.430  1.00  0.00     0.002 A 
HETATM   17  C   UNL     1     -44.271  64.557 -51.124  1.00  0.00     0.000 A 
HETATM   18  C   UNL     1     -43.557  63.504 -50.560  1.00  0.00     0.002 A 
HETATM   19  C   UNL     1     -43.311  62.348 -51.305  1.00  0.00     0.029 A 
ENDBRANCH  11  14
ENDBRANCH   6  10
BRANCH   7  20
HETATM   20  C   UNL     1     -42.059  58.063 -52.662  1.00  0.00    -0.027 A 
HETATM   21  C   UNL     1     -42.080  57.976 -51.271  1.00  0.00     0.124 A 
HETATM   22  N   UNL     1     -41.047  58.329 -50.474  1.00  0.00    -0.273 NA
HETATM   23  C   UNL     1     -39.925  58.766 -51.083  1.00  0.00     0.116 A 
HETATM   24  C   UNL     1     -39.796  58.890 -52.456  1.00  0.00     0.020 A 
HETATM   25  C   UNL     1     -40.881  58.541 -53.253  1.00  0.00     0.011 A 
ENDBRANCH   7  20
BRANCH   8  26
HETATM   26  C   UNL     1     -42.688  55.188 -53.611  1.00  0.00     0.255 C 
HETATM   27  N   UNL     1     -41.354  54.865 -53.748  1.00  0.00    -0.323 N 
HETATM   28  H   UNL     1     -40.769  55.498 -54.276  1.00  0.00     0.169 HD
HETATM   29  O   UNL     1     -43.544  54.563 -52.997  1.00  0.00    -0.268 OA
BRANCH  27  30
HETATM   30  C   UNL     1     -40.692  53.741 -53.211  1.00  0.00     0.035 A 
HETATM   31  C   UNL     1     -40.382  53.589 -51.858  1.00  0.00     0.029 A 
HETATM   32  C   UNL     1     -39.712  52.445 -51.408  1.00  0.00     0.002 A 
HETATM   33  C   UNL     1     -39.357  51.440 -52.304  1.00  0.00     0.000 A 
HETATM   34  C   UNL     1     -39.665  51.579 -53.655  1.00  0.00     0.002 A 
HETATM   35  C   UNL     1     -40.324  52.727 -54.106  1.00  0.00     0.029 A 
ENDBRANCH  27  30
ENDBRANCH   8  26
TORSDOF 5
ENDMDL
MODEL 6
REMARK VINA RESULT:      -7.7      2.633      7.995
REMARK  5 active torsions:
REMARK  status: ('A' for Active; 'I' for Inactive)
REMARK    1  A    between atoms: C_6  and  C_7 
REMARK       I    between atoms: C_7  and  N_8 
REMARK    2  A    between atoms: N_8  and  C_9 
REMARK    3  A    between atoms: C_16  and  C_17 
REMARK    4  A    between atoms: C_23  and  C_24 
REMARK       I    between atoms: C_24  and  N_25 
REMARK    5  A    between atoms: N_25  and  C_26 
ROOT
HETATM    1  C   UNL     1     -44.609  58.658 -57.388  1.00  0.00     0.069 C 
HETATM    2  C   UNL     1     -43.670  57.868 -56.510  1.00  0.00     0.018 C 
HETATM    3  N   UNL     1     -43.940  56.510 -56.403  1.00  0.00    -0.362 N 
HETATM    4  C   UNL     1     -43.095  55.594 -55.794  1.00  0.00     0.018 C 
HETATM    5  C   UNL     1     -43.442  54.141 -55.989  1.00  0.00     0.069 C 
HETATM    6  C   UNL     1     -42.020  56.041 -55.108  1.00  0.00     0.045 C 
HETATM    7  C   UNL     1     -41.704  57.526 -54.982  1.00  0.00     0.101 C 
HETATM    8  C   UNL     1     -42.604  58.393 -55.863  1.00  0.00     0.045 C 
HETATM    9  H   UNL     1     -44.685  56.138 -56.988  1.00  0.00     0.165 HD
ENDROOT
BRANCH   6  10
HETATM   10  C   UNL     1     -40.989  55.079 -54.642  1.00  0.00     0.255 C 
HETATM   11  N   UNL     1     -41.495  54.110 -53.807  1.00  0.00    -0.323 N 
HETATM   12  H   UNL     1     -42.474  54.181 -53.550  1.00  0.00     0.169 HD
HETATM   13  O   UNL     1     -39.828  55.233 -54.997  1.00  0.00    -0.268 OA
BRANCH  11  14
HETATM   14  C   UNL     1     -40.779  53.067 -53.186  1.00  0.00     0.035 A 
HETATM   15  C   UNL     1     -40.241  51.978 -53.873  1.00  0.00     0.029 A 
HETATM   16  C   UNL     1     -39.549  50.978 -53.182  1.00  0.00     0.002 A 
HETATM   17  C   UNL     1     -39.382  51.065 -51.802  1.00  0.00     0.000 A 
HETATM   18  C   UNL     1     -39.914  52.150 -51.109  1.00  0.00     0.002 A 
HETATM   19  C   UNL     1     -40.616  53.142 -51.797  1.00  0.00     0.029 A 
ENDBRANCH  11  14
ENDBRANCH   6  10
BRANCH   7  20
HETATM   20  C   UNL     1     -41.745  57.975 -53.528  1.00  0.00    -0.027 A 
HETATM   21  C   UNL     1     -42.888  57.779 -52.755  1.00  0.00     0.124 A 
HETATM   22  N   UNL     1     -43.020  58.200 -51.477  1.00  0.00    -0.273 NA
HETATM   23  C   UNL     1     -41.957  58.822 -50.925  1.00  0.00     0.116 A 
HETATM   24  C   UNL     1     -40.775  59.067 -51.601  1.00  0.00     0.020 A 
HETATM   25  C   UNL     1     -40.673  58.644 -52.923  1.00  0.00     0.011 A 
ENDBRANCH   7  20
BRANCH   8  26
HETATM   26  C   UNL     1     -42.347  59.861 -55.903  1.00  0.00     0.255 C 
HETATM   27  N   UNL     1     -43.222  60.586 -55.123  1.00  0.00    -0.323 N 
HETATM   28  H   UNL     1     -43.917  60.075 -54.597  1.00  0.00     0.169 HD
HETATM   29  O   UNL     1     -41.431  60.296 -56.592  1.00  0.00    -0.268 OA
BRANCH  27  30
HETATM   30  C   UNL     1     -43.251  61.987 -54.954  1.00  0.00     0.035 A 
HETATM   31  C   UNL     1     -43.469  62.895 -55.992  1.00  0.00     0.029 A 
HETATM   32  C   UNL     1     -43.473  64.272 -55.740  1.00  0.00     0.002 A 
HETATM   33  C   UNL     1     -43.269  64.751 -54.449  1.00  0.00     0.000 A 
HETATM   34  C   UNL     1     -43.055  63.855 -53.406  1.00  0.00     0.002 A 
HETATM   35  C   UNL     1     -43.040  62.480 -53.658  1.00  0.00     0.029 A 
ENDBRANCH  27  30
ENDBRANCH   8  26
TORSDOF 5
ENDMDL
MODEL 7
REMARK VINA RESULT:      -7.6      1.970      8.701
REMARK  5 active torsions:
REMARK  status: ('A' for Active; 'I' for Inactive)
REMARK    1  A    between atoms: C_6  and  C_7 
REMARK       I    between atoms: C_7  and  N_8 
REMARK    2  A    between atoms: N_8  and  C_9 
REMARK    3  A    between atoms: C_16  and  C_17 
REMARK    4  A    between atoms: C_23  and  C_24 
REMARK       I    between atoms: C_24  and  N_25 
REMARK    5  A    between atoms: N_25  and  C_26 
ROOT
HETATM    1  C   UNL     1     -43.221  62.310 -49.877  1.00  0.00     0.069 C 
HETATM    2  C   UNL     1     -42.958  60.945 -50.463  1.00  0.00     0.018 C 
HETATM    3  N   UNL     1     -41.622  60.591 -50.596  1.00  0.00    -0.362 N 
HETATM    4  C   UNL     1     -41.184  59.321 -50.942  1.00  0.00     0.018 C 
HETATM    5  C   UNL     1     -39.705  59.069 -50.800  1.00  0.00     0.069 C 
HETATM    6  C   UNL     1     -42.084  58.398 -51.343  1.00  0.00     0.045 C 
HETATM    7  C   UNL     1     -43.574  58.708 -51.427  1.00  0.00     0.101 C 
HETATM    8  C   UNL     1     -43.923  60.071 -50.831  1.00  0.00     0.045 C 
HETATM    9  H   UNL     1     -40.931  61.232 -50.210  1.00  0.00     0.165 HD
ENDROOT
BRANCH   6  10
HETATM   10  C   UNL     1     -41.669  56.981 -51.502  1.00  0.00     0.255 C 
HETATM   11  N   UNL     1     -41.399  56.642 -52.808  1.00  0.00    -0.323 N 
HETATM   12  H   UNL     1     -41.566  57.348 -53.516  1.00  0.00     0.169 HD
HETATM   13  O   UNL     1     -41.628  56.259 -50.514  1.00  0.00    -0.268 OA
BRANCH  11  14
HETATM   14  C   UNL     1     -41.001  55.380 -53.291  1.00  0.00     0.035 A 
HETATM   15  C   UNL     1     -41.018  54.213 -52.525  1.00  0.00     0.029 A 
HETATM   16  C   UNL     1     -40.598  52.999 -53.076  1.00  0.00     0.002 A 
HETATM   17  C   UNL     1     -40.168  52.940 -54.400  1.00  0.00     0.000 A 
HETATM   18  C   UNL     1     -40.149  54.098 -55.173  1.00  0.00     0.002 A 
HETATM   19  C   UNL     1     -40.556  55.314 -54.619  1.00  0.00     0.029 A 
ENDBRANCH  11  14
ENDBRANCH   6  10
BRANCH   7  20
HETATM   20  C   UNL     1     -44.083  58.575 -52.856  1.00  0.00    -0.027 A 
HETATM   21  C   UNL     1     -44.822  57.460 -53.248  1.00  0.00     0.124 A 
HETATM   22  N   UNL     1     -45.258  57.245 -54.509  1.00  0.00    -0.273 NA
HETATM   23  C   UNL     1     -44.974  58.194 -55.425  1.00  0.00     0.116 A 
HETATM   24  C   UNL     1     -44.249  59.339 -55.144  1.00  0.00     0.020 A 
HETATM   25  C   UNL     1     -43.792  59.526 -53.844  1.00  0.00     0.011 A 
ENDBRANCH   7  20
BRANCH   8  26
HETATM   26  C   UNL     1     -45.360  60.466 -50.769  1.00  0.00     0.255 C 
HETATM   27  N   UNL     1     -45.656  61.557 -51.558  1.00  0.00    -0.323 N 
HETATM   28  H   UNL     1     -44.907  61.961 -52.103  1.00  0.00     0.169 HD
HETATM   29  O   UNL     1     -46.131  59.832 -50.059  1.00  0.00    -0.268 OA
BRANCH  27  30
HETATM   30  C   UNL     1     -46.914  62.180 -51.712  1.00  0.00     0.035 A 
HETATM   31  C   UNL     1     -47.372  63.223 -50.906  1.00  0.00     0.029 A 
HETATM   32  C   UNL     1     -48.639  63.780 -51.119  1.00  0.00     0.002 A 
HETATM   33  C   UNL     1     -49.452  63.304 -52.145  1.00  0.00     0.000 A 
HETATM   34  C   UNL     1     -49.003  62.267 -52.957  1.00  0.00     0.002 A 
HETATM   35  C   UNL     1     -47.742  61.703 -52.737  1.00  0.00     0.029 A 
ENDBRANCH  27  30
ENDBRANCH   8  26
TORSDOF 5
ENDMDL
MODEL 8
REMARK VINA RESULT:      -7.6      3.985      6.948
REMARK  5 active torsions:
REMARK  status: ('A' for Active; 'I' for Inactive)
REMARK    1  A    between atoms: C_6  and  C_7 
REMARK       I    between atoms: C_7  and  N_8 
REMARK    2  A    between atoms: N_8  and  C_9 
REMARK    3  A    between atoms: C_16  and  C_17 
REMARK    4  A    between atoms: C_23  and  C_24 
REMARK       I    between atoms: C_24  and  N_25 
REMARK    5  A    between atoms: N_25  and  C_26 
ROOT
HETATM    1  C   UNL     1     -44.439  57.997 -52.805  1.00  0.00     0.069 C 
HETATM    2  C   UNL     1     -43.927  58.468 -54.144  1.00  0.00     0.018 C 
HETATM    3  N   UNL     1     -44.209  59.788 -54.470  1.00  0.00    -0.362 N 
HETATM    4  C   UNL     1     -43.673  60.451 -55.564  1.00  0.00     0.018 C 
HETATM    5  C   UNL     1     -43.903  61.939 -55.616  1.00  0.00     0.069 C 
HETATM    6  C   UNL     1     -42.967  59.752 -56.479  1.00  0.00     0.045 C 
HETATM    7  C   UNL     1     -42.737  58.251 -56.347  1.00  0.00     0.101 C 
HETATM    8  C   UNL     1     -43.213  57.703 -55.001  1.00  0.00     0.045 C 
HETATM    9  H   UNL     1     -44.654  60.358 -53.754  1.00  0.00     0.165 HD
ENDROOT
BRANCH   6  10
HETATM   10  C   UNL     1     -42.203  60.471 -57.530  1.00  0.00     0.255 C 
HETATM   11  N   UNL     1     -42.953  60.741 -58.651  1.00  0.00    -0.323 N 
HETATM   12  H   UNL     1     -43.901  60.380 -58.676  1.00  0.00     0.169 HD
HETATM   13  O   UNL     1     -41.022  60.729 -57.336  1.00  0.00    -0.268 OA
BRANCH  11  14
HETATM   14  C   UNL     1     -42.522  61.392 -59.824  1.00  0.00     0.035 A 
HETATM   15  C   UNL     1     -42.326  62.771 -59.921  1.00  0.00     0.029 A 
HETATM   16  C   UNL     1     -41.903  63.342 -61.125  1.00  0.00     0.002 A 
HETATM   17  C   UNL     1     -41.663  62.539 -62.237  1.00  0.00     0.000 A 
HETATM   18  C   UNL     1     -41.853  61.162 -62.150  1.00  0.00     0.002 A 
HETATM   19  C   UNL     1     -42.288  60.592 -60.951  1.00  0.00     0.029 A 
ENDBRANCH  11  14
ENDBRANCH   6  10
BRANCH   7  20
HETATM   20  C   UNL     1     -43.361  57.495 -57.511  1.00  0.00    -0.027 A 
HETATM   21  C   UNL     1     -44.696  57.695 -57.857  1.00  0.00     0.124 A 
HETATM   22  N   UNL     1     -45.334  57.022 -58.840  1.00  0.00    -0.273 NA
HETATM   23  C   UNL     1     -44.607  56.122 -59.537  1.00  0.00     0.116 A 
HETATM   24  C   UNL     1     -43.276  55.846 -59.278  1.00  0.00     0.020 A 
HETATM   25  C   UNL     1     -42.649  56.537 -58.246  1.00  0.00     0.011 A 
ENDBRANCH   7  20
BRANCH   8  26
HETATM   26  C   UNL     1     -42.971  56.262 -54.703  1.00  0.00     0.255 C 
HETATM   27  N   UNL     1     -41.682  56.005 -54.284  1.00  0.00    -0.323 N 
HETATM   28  H   UNL     1     -41.050  56.789 -54.199  1.00  0.00     0.169 HD
HETATM   29  O   UNL     1     -43.879  55.453 -54.847  1.00  0.00    -0.268 OA
BRANCH  27  30
HETATM   30  C   UNL     1     -41.134  54.751 -53.936  1.00  0.00     0.035 A 
HETATM   31  C   UNL     1     -40.664  53.820 -54.863  1.00  0.00     0.029 A 
HETATM   32  C   UNL     1     -40.144  52.593 -54.434  1.00  0.00     0.002 A 
HETATM   33  C   UNL     1     -40.081  52.292 -53.076  1.00  0.00     0.000 A 
HETATM   34  C   UNL     1     -40.544  53.216 -52.143  1.00  0.00     0.002 A 
HETATM   35  C   UNL     1     -41.074  54.437 -52.571  1.00  0.00     0.029 A 
ENDBRANCH  27  30
ENDBRANCH   8  26
TORSDOF 5
ENDMDL
MODEL 9
REMARK VINA RESULT:      -7.4      3.202      7.997
REMARK  5 active torsions:
REMARK  status: ('A' for Active; 'I' for Inactive)
REMARK    1  A    between atoms: C_6  and  C_7 
REMARK       I    between atoms: C_7  and  N_8 
REMARK    2  A    between atoms: N_8  and  C_9 
REMARK    3  A    between atoms: C_16  and  C_17 
REMARK    4  A    between atoms: C_23  and  C_24 
REMARK       I    between atoms: C_24  and  N_25 
REMARK    5  A    between atoms: N_25  and  C_26 
ROOT
HETATM    1  C   UNL     1     -44.633  58.441 -57.529  1.00  0.00     0.069 C 
HETATM    2  C   UNL     1     -43.687  57.698 -56.617  1.00  0.00     0.018 C 
HETATM    3  N   UNL     1     -43.970  56.353 -56.420  1.00  0.00    -0.362 N 
HETATM    4  C   UNL     1     -43.124  55.467 -55.768  1.00  0.00     0.018 C 
HETATM    5  C   UNL     1     -43.489  54.009 -55.864  1.00  0.00     0.069 C 
HETATM    6  C   UNL     1     -42.034  55.945 -55.129  1.00  0.00     0.045 C 
HETATM    7  C   UNL     1     -41.700  57.431 -55.103  1.00  0.00     0.101 C 
HETATM    8  C   UNL     1     -42.606  58.250 -56.023  1.00  0.00     0.045 C 
HETATM    9  H   UNL     1     -44.729  55.952 -56.968  1.00  0.00     0.165 HD
ENDROOT
BRANCH   6  10
HETATM   10  C   UNL     1     -41.005  55.003 -54.619  1.00  0.00     0.255 C 
HETATM   11  N   UNL     1     -41.511  54.080 -53.734  1.00  0.00    -0.323 N 
HETATM   12  H   UNL     1     -42.488  54.169 -53.475  1.00  0.00     0.169 HD
HETATM   13  O   UNL     1     -39.844  55.132 -54.988  1.00  0.00    -0.268 OA
BRANCH  11  14
HETATM   14  C   UNL     1     -40.797  53.066 -53.064  1.00  0.00     0.035 A 
HETATM   15  C   UNL     1     -40.204  51.979 -53.707  1.00  0.00     0.029 A 
HETATM   16  C   UNL     1     -39.518  51.009 -52.969  1.00  0.00     0.002 A 
HETATM   17  C   UNL     1     -39.411  51.125 -51.585  1.00  0.00     0.000 A 
HETATM   18  C   UNL     1     -39.997  52.209 -50.935  1.00  0.00     0.002 A 
HETATM   19  C   UNL     1     -40.694  53.171 -51.670  1.00  0.00     0.029 A 
ENDBRANCH  11  14
ENDBRANCH   6  10
BRANCH   7  20
HETATM   20  C   UNL     1     -41.712  57.972 -53.680  1.00  0.00    -0.027 A 
HETATM   21  C   UNL     1     -42.874  57.930 -52.912  1.00  0.00     0.124 A 
HETATM   22  N   UNL     1     -42.977  58.439 -51.664  1.00  0.00    -0.273 NA
HETATM   23  C   UNL     1     -41.866  58.996 -51.137  1.00  0.00     0.116 A 
HETATM   24  C   UNL     1     -40.661  59.090 -51.811  1.00  0.00     0.020 A 
HETATM   25  C   UNL     1     -40.588  58.578 -53.102  1.00  0.00     0.011 A 
ENDBRANCH   7  20
BRANCH   8  26
HETATM   26  C   UNL     1     -42.334  59.710 -56.160  1.00  0.00     0.255 C 
HETATM   27  N   UNL     1     -41.980  60.077 -57.442  1.00  0.00    -0.323 N 
HETATM   28  H   UNL     1     -41.961  59.355 -58.149  1.00  0.00     0.169 HD
HETATM   29  O   UNL     1     -42.432  60.439 -55.180  1.00  0.00    -0.268 OA
BRANCH  27  30
HETATM   30  C   UNL     1     -41.653  61.373 -57.897  1.00  0.00     0.035 A 
HETATM   31  C   UNL     1     -40.399  61.733 -58.393  1.00  0.00     0.029 A 
HETATM   32  C   UNL     1     -40.153  63.044 -58.815  1.00  0.00     0.002 A 
HETATM   33  C   UNL     1     -41.161  64.003 -58.753  1.00  0.00     0.000 A 
HETATM   34  C   UNL     1     -42.416  63.654 -58.264  1.00  0.00     0.002 A 
HETATM   35  C   UNL     1     -42.659  62.347 -57.832  1.00  0.00     0.029 A 
ENDBRANCH  27  30
ENDBRANCH   8  26
TORSDOF 5
ENDMDL
MODEL 10
REMARK VINA RESULT:      -7.4      2.079      8.776
REMARK  5 active torsions:
REMARK  status: ('A' for Active; 'I' for Inactive)
REMARK    1  A    between atoms: C_6  and  C_7 
REMARK       I    between atoms: C_7  and  N_8 
REMARK    2  A    between atoms: N_8  and  C_9 
REMARK    3  A    between atoms: C_16  and  C_17 
REMARK    4  A    between atoms: C_23  and  C_24 
REMARK       I    between atoms: C_24  and  N_25 
REMARK    5  A    between atoms: N_25  and  C_26 
ROOT
HETATM    1  C   UNL     1     -44.012  61.459 -49.087  1.00  0.00     0.069 C 
HETATM    2  C   UNL     1     -43.484  60.585 -50.199  1.00  0.00     0.018 C 
HETATM    3  N   UNL     1     -42.116  60.350 -50.185  1.00  0.00    -0.362 N 
HETATM    4  C   UNL     1     -41.475  59.435 -51.008  1.00  0.00     0.018 C 
HETATM    5  C   UNL     1     -40.033  59.147 -50.682  1.00  0.00     0.069 C 
HETATM    6  C   UNL     1     -42.169  58.847 -52.007  1.00  0.00     0.045 C 
HETATM    7  C   UNL     1     -43.640  59.155 -52.259  1.00  0.00     0.101 C 
HETATM    8  C   UNL     1     -44.252  60.022 -51.159  1.00  0.00     0.045 C 
HETATM    9  H   UNL     1     -41.592  60.704 -49.387  1.00  0.00     0.165 HD
ENDROOT
BRANCH   6  10
HETATM   10  C   UNL     1     -41.569  57.710 -52.752  1.00  0.00     0.255 C 
HETATM   11  N   UNL     1     -41.962  56.484 -52.270  1.00  0.00    -0.323 N 
HETATM   12  H   UNL     1     -42.549  56.474 -51.443  1.00  0.00     0.169 HD
HETATM   13  O   UNL     1     -40.794  57.944 -53.671  1.00  0.00    -0.268 OA
BRANCH  11  14
HETATM   14  C   UNL     1     -41.561  55.218 -52.743  1.00  0.00     0.035 A 
HETATM   15  C   UNL     1     -41.850  54.740 -54.023  1.00  0.00     0.029 A 
HETATM   16  C   UNL     1     -41.423  53.468 -54.415  1.00  0.00     0.002 A 
HETATM   17  C   UNL     1     -40.696  52.669 -53.535  1.00  0.00     0.000 A 
HETATM   18  C   UNL     1     -40.401  53.138 -52.258  1.00  0.00     0.002 A 
HETATM   19  C   UNL     1     -40.838  54.404 -51.861  1.00  0.00     0.029 A 
ENDBRANCH  11  14
ENDBRANCH   6  10
BRANCH   7  20
HETATM   20  C   UNL     1     -43.844  59.771 -53.636  1.00  0.00    -0.027 A 
HETATM   21  C   UNL     1     -43.127  60.902 -54.023  1.00  0.00     0.124 A 
HETATM   22  N   UNL     1     -43.294  61.537 -55.204  1.00  0.00    -0.273 NA
HETATM   23  C   UNL     1     -44.196  61.012 -56.060  1.00  0.00     0.116 A 
HETATM   24  C   UNL     1     -44.960  59.893 -55.777  1.00  0.00     0.020 A 
HETATM   25  C   UNL     1     -44.785  59.271 -54.546  1.00  0.00     0.011 A 
ENDBRANCH   7  20
BRANCH   8  26
HETATM   26  C   UNL     1     -45.710  60.329 -51.234  1.00  0.00     0.255 C 
HETATM   27  N   UNL     1     -45.972  61.614 -51.660  1.00  0.00    -0.323 N 
HETATM   28  H   UNL     1     -45.183  62.202 -51.894  1.00  0.00     0.169 HD
HETATM   29  O   UNL     1     -46.526  59.468 -50.926  1.00  0.00    -0.268 OA
BRANCH  27  30
HETATM   30  C   UNL     1     -47.239  62.214 -51.827  1.00  0.00     0.035 A 
HETATM   31  C   UNL     1     -48.117  61.906 -52.867  1.00  0.00     0.029 A 
HETATM   32  C   UNL     1     -49.353  62.556 -52.967  1.00  0.00     0.002 A 
HETATM   33  C   UNL     1     -49.724  63.510 -52.023  1.00  0.00     0.000 A 
HETATM   34  C   UNL     1     -48.857  63.821 -50.979  1.00  0.00     0.002 A 
HETATM   35  C   UNL     1     -47.618  63.181 -50.886  1.00  0.00     0.029 A 
ENDBRANCH  27  30
ENDBRANCH   8  26
TORSDOF 5
ENDMDL
