MODEL 1
REMARK VINA RESULT:      -8.8      0.000      0.000
REMARK  7 active torsions:
REMARK  status: ('A' for Active; 'I' for Inactive)
REMARK    1  A    between atoms: C_4  and  C_5 
REMARK    2  A    between atoms: N_6  and  C_7 
REMARK    3  A    between atoms: C_14  and  C_15 
REMARK       I    between atoms: C_15  and  N_16 
REMARK    4  A    between atoms: N_16  and  N_17 
REMARK       I    between atoms: N_17  and  C_18 
REMARK    5  A    between atoms: C_18  and  C_19 
REMARK    6  A    between atoms: C_19  and  C_20 
REMARK    7  A    between atoms: C_23  and  O_24 
ROOT
HETATM    1  C   UNL     1     -42.678  57.884 -58.055  1.00  0.00     0.164 C 
HETATM    2  N   UNL     1     -43.514  56.781 -58.214  1.00  0.00    -0.213 N 
HETATM    3  N   UNL     1     -43.208  55.848 -57.267  1.00  0.00    -0.139 NA
HETATM    4  C   UNL     1     -42.359  56.507 -56.460  1.00  0.00     0.241 C 
HETATM    5  N   UNL     1     -42.033  57.761 -56.909  1.00  0.00    -0.202 NA
ENDROOT
BRANCH   4   6
HETATM    6  C   UNL     1     -41.820  55.926 -55.216  1.00  0.00     0.309 C 
HETATM    7  N   UNL     1     -40.803  55.009 -55.421  1.00  0.00    -0.261 N 
HETATM    8  H   UNL     1     -40.506  54.747 -56.363  1.00  0.00     0.190 HD
HETATM    9  O   UNL     1     -42.223  56.207 -54.087  1.00  0.00    -0.262 OA
BRANCH   7  10
HETATM   10  N   UNL     1     -40.268  54.322 -54.331  1.00  0.00    -0.267 N 
HETATM   11  C   UNL     1     -40.794  53.093 -53.992  1.00  0.00     0.240 C 
HETATM   12  O   UNL     1     -41.721  52.569 -54.608  1.00  0.00    -0.272 OA
HETATM   13  H   UNL     1     -39.442  54.726 -53.892  1.00  0.00     0.190 HD
BRANCH  11  14
HETATM   14  C   UNL     1     -40.141  52.457 -52.780  1.00  0.00     0.143 C 
BRANCH  14  15
HETATM   15  C   UNL     1     -40.411  53.204 -51.498  1.00  0.00    -0.049 A 
HETATM   16  C   UNL     1     -41.710  53.622 -51.171  1.00  0.00     0.010 A 
HETATM   17  C   UNL     1     -41.959  54.293 -49.970  1.00  0.00     0.037 A 
HETATM   18  C   UNL     1     -40.908  54.545 -49.095  1.00  0.00     0.065 A 
HETATM   19  C   UNL     1     -39.615  54.143 -49.403  1.00  0.00     0.037 A 
HETATM   20  C   UNL     1     -39.366  53.473 -50.602  1.00  0.00     0.010 A 
BRANCH  18  21
HETATM   21  O   UNL     1     -41.108  55.188 -47.911  1.00  0.00    -0.361 OA
HETATM   22  H   UNL     1     -41.392  56.098 -48.095  1.00  0.00     0.217 HD
ENDBRANCH  18  21
ENDBRANCH  14  15
ENDBRANCH  11  14
ENDBRANCH   7  10
ENDBRANCH   4   6
BRANCH   2  23
HETATM   23  C   UNL     1     -44.581  56.535 -59.128  1.00  0.00     0.060 A 
HETATM   24  C   UNL     1     -45.772  57.269 -58.999  1.00  0.00     0.031 A 
HETATM   25  C   UNL     1     -46.836  57.052 -59.878  1.00  0.00     0.002 A 
HETATM   26  C   UNL     1     -46.715  56.116 -60.902  1.00  0.00     0.000 A 
HETATM   27  C   UNL     1     -45.528  55.403 -61.056  1.00  0.00     0.002 A 
HETATM   28  C   UNL     1     -44.460  55.615 -60.178  1.00  0.00     0.031 A 
ENDBRANCH   2  23
BRANCH   1  29
HETATM   29  C   UNL     1     -42.452  58.987 -58.990  1.00  0.00     0.012 A 
HETATM   30  C   UNL     1     -42.501  60.308 -58.524  1.00  0.00     0.015 A 
HETATM   31  C   UNL     1     -42.263  61.378 -59.388  1.00  0.00     0.001 A 
HETATM   32  C   UNL     1     -41.960  61.137 -60.727  1.00  0.00     0.000 A 
HETATM   33  C   UNL     1     -41.882  59.828 -61.198  1.00  0.00     0.001 A 
HETATM   34  C   UNL     1     -42.118  58.757 -60.334  1.00  0.00     0.015 A 
ENDBRANCH   1  29
TORSDOF 7
ENDMDL
MODEL 2
REMARK VINA RESULT:      -8.6      1.719      2.686
REMARK  7 active torsions:
REMARK  status: ('A' for Active; 'I' for Inactive)
REMARK    1  A    between atoms: C_4  and  C_5 
REMARK    2  A    between atoms: N_6  and  C_7 
REMARK    3  A    between atoms: C_14  and  C_15 
REMARK       I    between atoms: C_15  and  N_16 
REMARK    4  A    between atoms: N_16  and  N_17 
REMARK       I    between atoms: N_17  and  C_18 
REMARK    5  A    between atoms: C_18  and  C_19 
REMARK    6  A    between atoms: C_19  and  C_20 
REMARK    7  A    between atoms: C_23  and  O_24 
ROOT
HETATM    1  C   UNL     1     -43.038  58.615 -58.385  1.00  0.00     0.164 C 
HETATM    2  N   UNL     1     -43.658  57.368 -58.441  1.00  0.00    -0.213 N 
HETATM    3  N   UNL     1     -43.165  56.579 -57.443  1.00  0.00    -0.139 NA
HETATM    4  C   UNL     1     -42.438  57.440 -56.711  1.00  0.00     0.241 C 
HETATM    5  N   UNL     1     -42.359  58.697 -57.254  1.00  0.00    -0.202 NA
ENDROOT
BRANCH   4   6
HETATM    6  C   UNL     1     -41.776  57.061 -55.449  1.00  0.00     0.309 C 
HETATM    7  N   UNL     1     -41.277  55.770 -55.444  1.00  0.00    -0.261 N 
HETATM    8  H   UNL     1     -41.409  55.146 -56.242  1.00  0.00     0.190 HD
HETATM    9  O   UNL     1     -41.669  57.802 -54.470  1.00  0.00    -0.262 OA
BRANCH   7  10
HETATM   10  N   UNL     1     -40.705  55.258 -54.278  1.00  0.00    -0.267 N 
HETATM   11  C   UNL     1     -41.497  54.541 -53.405  1.00  0.00     0.240 C 
HETATM   12  O   UNL     1     -42.692  54.330 -53.605  1.00  0.00    -0.272 OA
HETATM   13  H   UNL     1     -39.697  55.362 -54.175  1.00  0.00     0.190 HD
BRANCH  11  14
HETATM   14  C   UNL     1     -40.766  54.056 -52.169  1.00  0.00     0.143 C 
BRANCH  14  15
HETATM   15  C   UNL     1     -40.302  52.624 -52.275  1.00  0.00    -0.049 A 
HETATM   16  C   UNL     1     -39.966  51.891 -51.126  1.00  0.00     0.010 A 
HETATM   17  C   UNL     1     -39.560  50.558 -51.229  1.00  0.00     0.037 A 
HETATM   18  C   UNL     1     -39.488  49.957 -52.481  1.00  0.00     0.065 A 
HETATM   19  C   UNL     1     -39.812  50.668 -53.629  1.00  0.00     0.037 A 
HETATM   20  C   UNL     1     -40.218  51.999 -53.528  1.00  0.00     0.010 A 
BRANCH  18  21
HETATM   21  O   UNL     1     -39.105  48.657 -52.625  1.00  0.00    -0.361 OA
HETATM   22  H   UNL     1     -38.386  48.615 -53.276  1.00  0.00     0.217 HD
ENDBRANCH  18  21
ENDBRANCH  14  15
ENDBRANCH  11  14
ENDBRANCH   7  10
ENDBRANCH   4   6
BRANCH   2  23
HETATM   23  C   UNL     1     -44.678  56.864 -59.300  1.00  0.00     0.060 A 
HETATM   24  C   UNL     1     -45.971  57.408 -59.215  1.00  0.00     0.031 A 
HETATM   25  C   UNL     1     -46.992  56.936 -60.042  1.00  0.00     0.002 A 
HETATM   26  C   UNL     1     -46.731  55.933 -60.972  1.00  0.00     0.000 A 
HETATM   27  C   UNL     1     -45.445  55.407 -61.084  1.00  0.00     0.002 A 
HETATM   28  C   UNL     1     -44.418  55.874 -60.257  1.00  0.00     0.031 A 
ENDBRANCH   2  23
BRANCH   1  29
HETATM   29  C   UNL     1     -43.039  59.670 -59.400  1.00  0.00     0.012 A 
HETATM   30  C   UNL     1     -42.113  59.617 -60.450  1.00  0.00     0.015 A 
HETATM   31  C   UNL     1     -42.110  60.595 -61.446  1.00  0.00     0.001 A 
HETATM   32  C   UNL     1     -43.044  61.629 -61.410  1.00  0.00     0.000 A 
HETATM   33  C   UNL     1     -43.987  61.679 -60.386  1.00  0.00     0.001 A 
HETATM   34  C   UNL     1     -43.993  60.699 -59.390  1.00  0.00     0.015 A 
ENDBRANCH   1  29
TORSDOF 7
ENDMDL
MODEL 3
REMARK VINA RESULT:      -8.6      1.697      4.352
REMARK  7 active torsions:
REMARK  status: ('A' for Active; 'I' for Inactive)
REMARK    1  A    between atoms: C_4  and  C_5 
REMARK    2  A    between atoms: N_6  and  C_7 
REMARK    3  A    between atoms: C_14  and  C_15 
REMARK       I    between atoms: C_15  and  N_16 
REMARK    4  A    between atoms: N_16  and  N_17 
REMARK       I    between atoms: N_17  and  C_18 
REMARK    5  A    between atoms: C_18  and  C_19 
REMARK    6  A    between atoms: C_19  and  C_20 
REMARK    7  A    between atoms: C_23  and  O_24 
ROOT
HETATM    1  C   UNL     1     -43.672  57.355 -58.407  1.00  0.00     0.164 C 
HETATM    2  N   UNL     1     -42.988  58.569 -58.379  1.00  0.00    -0.213 N 
HETATM    3  N   UNL     1     -42.321  58.680 -57.194  1.00  0.00    -0.139 NA
HETATM    4  C   UNL     1     -42.458  57.455 -56.658  1.00  0.00     0.241 C 
HETATM    5  N   UNL     1     -43.264  56.619 -57.388  1.00  0.00    -0.202 NA
ENDROOT
BRANCH   4   6
HETATM    6  C   UNL     1     -41.811  57.055 -55.394  1.00  0.00     0.309 C 
HETATM    7  N   UNL     1     -41.247  55.791 -55.430  1.00  0.00    -0.261 N 
HETATM    8  H   UNL     1     -41.326  55.198 -56.257  1.00  0.00     0.190 HD
HETATM    9  O   UNL     1     -41.770  57.757 -54.382  1.00  0.00    -0.262 OA
BRANCH   7  10
HETATM   10  N   UNL     1     -40.681  55.259 -54.270  1.00  0.00    -0.267 N 
HETATM   11  C   UNL     1     -41.495  54.602 -53.371  1.00  0.00     0.240 C 
HETATM   12  O   UNL     1     -42.705  54.463 -53.541  1.00  0.00    -0.272 OA
HETATM   13  H   UNL     1     -39.667  55.301 -54.191  1.00  0.00     0.190 HD
BRANCH  11  14
HETATM   14  C   UNL     1     -40.767  54.086 -52.145  1.00  0.00     0.143 C 
BRANCH  14  15
HETATM   15  C   UNL     1     -40.324  52.650 -52.277  1.00  0.00    -0.049 A 
HETATM   16  C   UNL     1     -39.947  51.909 -51.146  1.00  0.00     0.010 A 
HETATM   17  C   UNL     1     -39.560  50.571 -51.271  1.00  0.00     0.037 A 
HETATM   18  C   UNL     1     -39.549  49.975 -52.527  1.00  0.00     0.065 A 
HETATM   19  C   UNL     1     -39.915  50.693 -53.657  1.00  0.00     0.037 A 
HETATM   20  C   UNL     1     -40.302  52.029 -53.534  1.00  0.00     0.010 A 
BRANCH  18  21
HETATM   21  O   UNL     1     -39.187  48.672 -52.692  1.00  0.00    -0.361 OA
HETATM   22  H   UNL     1     -39.841  48.109 -52.248  1.00  0.00     0.217 HD
ENDBRANCH  18  21
ENDBRANCH  14  15
ENDBRANCH  11  14
ENDBRANCH   7  10
ENDBRANCH   4   6
BRANCH   2  23
HETATM   23  C   UNL     1     -42.870  59.602 -59.354  1.00  0.00     0.060 A 
HETATM   24  C   UNL     1     -42.116  59.361 -60.515  1.00  0.00     0.031 A 
HETATM   25  C   UNL     1     -41.980  60.352 -61.490  1.00  0.00     0.002 A 
HETATM   26  C   UNL     1     -42.608  61.584 -61.325  1.00  0.00     0.000 A 
HETATM   27  C   UNL     1     -43.381  61.823 -60.191  1.00  0.00     0.002 A 
HETATM   28  C   UNL     1     -43.519  60.835 -59.211  1.00  0.00     0.031 A 
ENDBRANCH   2  23
BRANCH   1  29
HETATM   29  C   UNL     1     -44.724  56.933 -59.333  1.00  0.00     0.012 A 
HETATM   30  C   UNL     1     -44.484  55.864 -60.207  1.00  0.00     0.015 A 
HETATM   31  C   UNL     1     -45.479  55.423 -61.082  1.00  0.00     0.001 A 
HETATM   32  C   UNL     1     -46.729  56.039 -61.082  1.00  0.00     0.000 A 
HETATM   33  C   UNL     1     -46.989  57.086 -60.200  1.00  0.00     0.001 A 
HETATM   34  C   UNL     1     -45.995  57.526 -59.322  1.00  0.00     0.015 A 
ENDBRANCH   1  29
TORSDOF 7
ENDMDL
MODEL 4
REMARK VINA RESULT:      -8.5      0.624      3.553
REMARK  7 active torsions:
REMARK  status: ('A' for Active; 'I' for Inactive)
REMARK    1  A    between atoms: C_4  and  C_5 
REMARK    2  A    between atoms: N_6  and  C_7 
REMARK    3  A    between atoms: C_14  and  C_15 
REMARK       I    between atoms: C_15  and  N_16 
REMARK    4  A    between atoms: N_16  and  N_17 
REMARK       I    between atoms: N_17  and  C_18 
REMARK    5  A    between atoms: C_18  and  C_19 
REMARK    6  A    between atoms: C_19  and  C_20 
REMARK    7  A    between atoms: C_23  and  O_24 
ROOT
HETATM    1  C   UNL     1     -43.640  57.001 -58.215  1.00  0.00     0.164 C 
HETATM    2  N   UNL     1     -43.000  58.220 -57.996  1.00  0.00    -0.213 N 
HETATM    3  N   UNL     1     -42.327  58.163 -56.810  1.00  0.00    -0.139 NA
HETATM    4  C   UNL     1     -42.415  56.865 -56.476  1.00  0.00     0.241 C 
HETATM    5  N   UNL     1     -43.197  56.127 -57.329  1.00  0.00    -0.202 NA
ENDROOT
BRANCH   4   6
HETATM    6  C   UNL     1     -41.744  56.291 -55.295  1.00  0.00     0.309 C 
HETATM    7  N   UNL     1     -40.982  55.169 -55.574  1.00  0.00    -0.261 N 
HETATM    8  H   UNL     1     -40.944  54.774 -56.515  1.00  0.00     0.190 HD
HETATM    9  O   UNL     1     -41.841  56.743 -54.153  1.00  0.00    -0.262 OA
BRANCH   7  10
HETATM   10  N   UNL     1     -40.366  54.480 -54.528  1.00  0.00    -0.267 N 
HETATM   11  C   UNL     1     -40.962  53.335 -54.041  1.00  0.00     0.240 C 
HETATM   12  O   UNL     1     -42.018  52.888 -54.486  1.00  0.00    -0.272 OA
HETATM   13  H   UNL     1     -39.448  54.810 -54.236  1.00  0.00     0.190 HD
BRANCH  11  14
HETATM   14  C   UNL     1     -40.208  52.688 -52.896  1.00  0.00     0.143 C 
BRANCH  14  15
HETATM   15  C   UNL     1     -40.452  53.361 -51.568  1.00  0.00    -0.049 A 
HETATM   16  C   UNL     1     -41.727  53.839 -51.229  1.00  0.00     0.010 A 
HETATM   17  C   UNL     1     -41.954  54.439 -49.987  1.00  0.00     0.037 A 
HETATM   18  C   UNL     1     -40.904  54.563 -49.084  1.00  0.00     0.065 A 
HETATM   19  C   UNL     1     -39.635  54.100 -49.403  1.00  0.00     0.037 A 
HETATM   20  C   UNL     1     -39.408  53.500 -50.642  1.00  0.00     0.010 A 
BRANCH  18  21
HETATM   21  O   UNL     1     -41.084  55.135 -47.860  1.00  0.00    -0.361 OA
HETATM   22  H   UNL     1     -42.017  55.047 -47.610  1.00  0.00     0.217 HD
ENDBRANCH  18  21
ENDBRANCH  14  15
ENDBRANCH  11  14
ENDBRANCH   7  10
ENDBRANCH   4   6
BRANCH   2  23
HETATM   23  C   UNL     1     -42.927  59.400 -58.793  1.00  0.00     0.060 A 
HETATM   24  C   UNL     1     -42.022  59.441 -59.867  1.00  0.00     0.031 A 
HETATM   25  C   UNL     1     -41.925  60.582 -60.667  1.00  0.00     0.002 A 
HETATM   26  C   UNL     1     -42.741  61.682 -60.415  1.00  0.00     0.000 A 
HETATM   27  C   UNL     1     -43.662  61.640 -59.371  1.00  0.00     0.002 A 
HETATM   28  C   UNL     1     -43.762  60.501 -58.564  1.00  0.00     0.031 A 
ENDBRANCH   2  23
BRANCH   1  29
HETATM   29  C   UNL     1     -44.684  56.694 -59.195  1.00  0.00     0.012 A 
HETATM   30  C   UNL     1     -44.438  55.735 -60.186  1.00  0.00     0.015 A 
HETATM   31  C   UNL     1     -45.425  55.404 -61.116  1.00  0.00     0.001 A 
HETATM   32  C   UNL     1     -46.674  56.019 -61.055  1.00  0.00     0.000 A 
HETATM   33  C   UNL     1     -46.940  56.956 -60.058  1.00  0.00     0.001 A 
HETATM   34  C   UNL     1     -45.954  57.286 -59.126  1.00  0.00     0.015 A 
ENDBRANCH   1  29
TORSDOF 7
ENDMDL
MODEL 5
REMARK VINA RESULT:      -8.4      1.551      2.510
REMARK  7 active torsions:
REMARK  status: ('A' for Active; 'I' for Inactive)
REMARK    1  A    between atoms: C_4  and  C_5 
REMARK    2  A    between atoms: N_6  and  C_7 
REMARK    3  A    between atoms: C_14  and  C_15 
REMARK       I    between atoms: C_15  and  N_16 
REMARK    4  A    between atoms: N_16  and  N_17 
REMARK       I    between atoms: N_17  and  C_18 
REMARK    5  A    between atoms: C_18  and  C_19 
REMARK    6  A    between atoms: C_19  and  C_20 
REMARK    7  A    between atoms: C_23  and  O_24 
ROOT
HETATM    1  C   UNL     1     -42.875  57.872 -57.720  1.00  0.00     0.164 C 
HETATM    2  N   UNL     1     -43.626  56.762 -58.102  1.00  0.00    -0.213 N 
HETATM    3  N   UNL     1     -43.191  55.668 -57.410  1.00  0.00    -0.139 NA
HETATM    4  C   UNL     1     -42.355  56.201 -56.503  1.00  0.00     0.241 C 
HETATM    5  N   UNL     1     -42.159  57.550 -56.658  1.00  0.00    -0.202 NA
ENDROOT
BRANCH   4   6
HETATM    6  C   UNL     1     -41.701  55.404 -55.448  1.00  0.00     0.309 C 
HETATM    7  N   UNL     1     -41.626  56.049 -54.225  1.00  0.00    -0.261 N 
HETATM    8  H   UNL     1     -41.963  57.006 -54.108  1.00  0.00     0.190 HD
HETATM    9  O   UNL     1     -41.247  54.271 -55.614  1.00  0.00    -0.262 OA
BRANCH   7  10
HETATM   10  N   UNL     1     -40.951  55.438 -53.167  1.00  0.00    -0.267 N 
HETATM   11  C   UNL     1     -41.664  54.652 -52.286  1.00  0.00     0.240 C 
HETATM   12  O   UNL     1     -42.875  54.462 -52.387  1.00  0.00    -0.272 OA
HETATM   13  H   UNL     1     -39.937  55.529 -53.154  1.00  0.00     0.190 HD
BRANCH  11  14
HETATM   14  C   UNL     1     -40.823  54.060 -51.171  1.00  0.00     0.143 C 
BRANCH  14  15
HETATM   15  C   UNL     1     -40.371  52.649 -51.452  1.00  0.00    -0.049 A 
HETATM   16  C   UNL     1     -40.301  51.699 -50.422  1.00  0.00     0.010 A 
HETATM   17  C   UNL     1     -39.904  50.386 -50.692  1.00  0.00     0.037 A 
HETATM   18  C   UNL     1     -39.577  50.023 -51.993  1.00  0.00     0.065 A 
HETATM   19  C   UNL     1     -39.636  50.950 -53.025  1.00  0.00     0.037 A 
HETATM   20  C   UNL     1     -40.032  52.261 -52.757  1.00  0.00     0.010 A 
BRANCH  18  21
HETATM   21  O   UNL     1     -39.193  48.752 -52.301  1.00  0.00    -0.361 OA
HETATM   22  H   UNL     1     -38.977  48.713 -53.247  1.00  0.00     0.217 HD
ENDBRANCH  18  21
ENDBRANCH  14  15
ENDBRANCH  11  14
ENDBRANCH   7  10
ENDBRANCH   4   6
BRANCH   2  23
HETATM   23  C   UNL     1     -44.718  56.633 -59.010  1.00  0.00     0.060 A 
HETATM   24  C   UNL     1     -45.851  57.445 -58.832  1.00  0.00     0.031 A 
HETATM   25  C   UNL     1     -46.938  57.343 -59.703  1.00  0.00     0.002 A 
HETATM   26  C   UNL     1     -46.898  56.447 -60.768  1.00  0.00     0.000 A 
HETATM   27  C   UNL     1     -45.768  55.658 -60.970  1.00  0.00     0.002 A 
HETATM   28  C   UNL     1     -44.677  55.753 -60.099  1.00  0.00     0.031 A 
ENDBRANCH   2  23
BRANCH   1  29
HETATM   29  C   UNL     1     -42.794  59.176 -58.379  1.00  0.00     0.012 A 
HETATM   30  C   UNL     1     -42.997  60.342 -57.629  1.00  0.00     0.015 A 
HETATM   31  C   UNL     1     -42.899  61.600 -58.227  1.00  0.00     0.001 A 
HETATM   32  C   UNL     1     -42.583  61.705 -59.580  1.00  0.00     0.000 A 
HETATM   33  C   UNL     1     -42.354  60.555 -60.332  1.00  0.00     0.001 A 
HETATM   34  C   UNL     1     -42.449  59.296 -59.734  1.00  0.00     0.015 A 
ENDBRANCH   1  29
TORSDOF 7
ENDMDL
MODEL 6
REMARK VINA RESULT:      -8.2      3.183      9.754
REMARK  7 active torsions:
REMARK  status: ('A' for Active; 'I' for Inactive)
REMARK    1  A    between atoms: C_4  and  C_5 
REMARK    2  A    between atoms: N_6  and  C_7 
REMARK    3  A    between atoms: C_14  and  C_15 
REMARK       I    between atoms: C_15  and  N_16 
REMARK    4  A    between atoms: N_16  and  N_17 
REMARK       I    between atoms: N_17  and  C_18 
REMARK    5  A    between atoms: C_18  and  C_19 
REMARK    6  A    between atoms: C_19  and  C_20 
REMARK    7  A    between atoms: C_23  and  O_24 
ROOT
HETATM    1  C   UNL     1     -41.576  55.584 -52.373  1.00  0.00     0.164 C 
HETATM    2  N   UNL     1     -41.499  56.951 -52.635  1.00  0.00    -0.213 N 
HETATM    3  N   UNL     1     -41.623  57.156 -53.979  1.00  0.00    -0.139 NA
HETATM    4  C   UNL     1     -41.975  55.943 -54.436  1.00  0.00     0.241 C 
HETATM    5  N   UNL     1     -41.973  54.967 -53.472  1.00  0.00    -0.202 NA
ENDROOT
BRANCH   4   6
HETATM    6  C   UNL     1     -42.319  55.686 -55.847  1.00  0.00     0.309 C 
HETATM    7  N   UNL     1     -41.916  56.689 -56.713  1.00  0.00    -0.261 N 
HETATM    8  H   UNL     1     -41.464  57.537 -56.369  1.00  0.00     0.190 HD
HETATM    9  O   UNL     1     -42.915  54.684 -56.246  1.00  0.00    -0.262 OA
BRANCH   7  10
HETATM   10  N   UNL     1     -42.259  56.608 -58.064  1.00  0.00    -0.267 N 
HETATM   11  C   UNL     1     -42.133  57.733 -58.852  1.00  0.00     0.240 C 
HETATM   12  O   UNL     1     -41.731  58.812 -58.420  1.00  0.00    -0.272 OA
HETATM   13  H   UNL     1     -42.499  55.687 -58.424  1.00  0.00     0.190 HD
BRANCH  11  14
HETATM   14  C   UNL     1     -42.553  57.524 -60.294  1.00  0.00     0.143 C 
BRANCH  14  15
HETATM   15  C   UNL     1     -44.007  57.151 -60.442  1.00  0.00    -0.049 A 
HETATM   16  C   UNL     1     -44.384  55.836 -60.755  1.00  0.00     0.010 A 
HETATM   17  C   UNL     1     -45.733  55.491 -60.867  1.00  0.00     0.037 A 
HETATM   18  C   UNL     1     -46.708  56.462 -60.667  1.00  0.00     0.065 A 
HETATM   19  C   UNL     1     -46.355  57.770 -60.361  1.00  0.00     0.037 A 
HETATM   20  C   UNL     1     -45.008  58.115 -60.248  1.00  0.00     0.010 A 
BRANCH  18  21
HETATM   21  O   UNL     1     -48.035  56.167 -60.759  1.00  0.00    -0.361 OA
HETATM   22  H   UNL     1     -48.221  55.847 -61.656  1.00  0.00     0.217 HD
ENDBRANCH  18  21
ENDBRANCH  14  15
ENDBRANCH  11  14
ENDBRANCH   7  10
ENDBRANCH   4   6
BRANCH   2  23
HETATM   23  C   UNL     1     -41.362  58.068 -51.761  1.00  0.00     0.060 A 
HETATM   24  C   UNL     1     -40.076  58.462 -51.354  1.00  0.00     0.031 A 
HETATM   25  C   UNL     1     -39.907  59.552 -50.498  1.00  0.00     0.002 A 
HETATM   26  C   UNL     1     -41.014  60.270 -50.056  1.00  0.00     0.000 A 
HETATM   27  C   UNL     1     -42.292  59.906 -50.476  1.00  0.00     0.002 A 
HETATM   28  C   UNL     1     -42.468  58.814 -51.331  1.00  0.00     0.031 A 
ENDBRANCH   2  23
BRANCH   1  29
HETATM   29  C   UNL     1     -41.224  54.881 -51.139  1.00  0.00     0.012 A 
HETATM   30  C   UNL     1     -40.615  53.621 -51.213  1.00  0.00     0.015 A 
HETATM   31  C   UNL     1     -40.244  52.940 -50.052  1.00  0.00     0.001 A 
HETATM   32  C   UNL     1     -40.467  53.519 -48.804  1.00  0.00     0.000 A 
HETATM   33  C   UNL     1     -41.049  54.782 -48.717  1.00  0.00     0.001 A 
HETATM   34  C   UNL     1     -41.417  55.465 -49.878  1.00  0.00     0.015 A 
ENDBRANCH   1  29
TORSDOF 7
ENDMDL
MODEL 7
REMARK VINA RESULT:      -8.1      2.448      9.805
REMARK  7 active torsions:
REMARK  status: ('A' for Active; 'I' for Inactive)
REMARK    1  A    between atoms: C_4  and  C_5 
REMARK    2  A    between atoms: N_6  and  C_7 
REMARK    3  A    between atoms: C_14  and  C_15 
REMARK       I    between atoms: C_15  and  N_16 
REMARK    4  A    between atoms: N_16  and  N_17 
REMARK       I    between atoms: N_17  and  C_18 
REMARK    5  A    between atoms: C_18  and  C_19 
REMARK    6  A    between atoms: C_19  and  C_20 
REMARK    7  A    between atoms: C_23  and  O_24 
ROOT
HETATM    1  C   UNL     1     -40.895  53.439 -53.720  1.00  0.00     0.164 C 
HETATM    2  N   UNL     1     -40.961  54.476 -52.792  1.00  0.00    -0.213 N 
HETATM    3  N   UNL     1     -41.230  55.644 -53.444  1.00  0.00    -0.139 NA
HETATM    4  C   UNL     1     -41.518  55.232 -54.690  1.00  0.00     0.241 C 
HETATM    5  N   UNL     1     -41.340  53.885 -54.882  1.00  0.00    -0.202 NA
ENDROOT
BRANCH   4   6
HETATM    6  C   UNL     1     -41.971  56.147 -55.755  1.00  0.00     0.309 C 
HETATM    7  N   UNL     1     -42.119  55.539 -56.990  1.00  0.00    -0.261 N 
HETATM    8  H   UNL     1     -41.885  54.554 -57.128  1.00  0.00     0.190 HD
HETATM    9  O   UNL     1     -42.197  57.346 -55.590  1.00  0.00    -0.262 OA
BRANCH   7  10
HETATM   10  N   UNL     1     -42.457  56.314 -58.101  1.00  0.00    -0.267 N 
HETATM   11  C   UNL     1     -43.352  55.807 -59.020  1.00  0.00     0.240 C 
HETATM   12  O   UNL     1     -43.869  54.697 -58.910  1.00  0.00    -0.272 OA
HETATM   13  H   UNL     1     -42.093  57.264 -58.127  1.00  0.00     0.190 HD
BRANCH  11  14
HETATM   14  C   UNL     1     -43.623  56.734 -60.189  1.00  0.00     0.143 C 
BRANCH  14  15
HETATM   15  C   UNL     1     -44.737  57.716 -59.924  1.00  0.00    -0.049 A 
HETATM   16  C   UNL     1     -44.629  59.053 -60.336  1.00  0.00     0.010 A 
HETATM   17  C   UNL     1     -45.674  59.953 -60.109  1.00  0.00     0.037 A 
HETATM   18  C   UNL     1     -46.828  59.516 -59.469  1.00  0.00     0.065 A 
HETATM   19  C   UNL     1     -46.953  58.198 -59.051  1.00  0.00     0.037 A 
HETATM   20  C   UNL     1     -45.910  57.298 -59.277  1.00  0.00     0.010 A 
BRANCH  18  21
HETATM   21  O   UNL     1     -47.874  60.358 -59.236  1.00  0.00    -0.361 OA
HETATM   22  H   UNL     1     -47.810  60.688 -58.326  1.00  0.00     0.217 HD
ENDBRANCH  18  21
ENDBRANCH  14  15
ENDBRANCH  11  14
ENDBRANCH   7  10
ENDBRANCH   4   6
BRANCH   2  23
HETATM   23  C   UNL     1     -40.838  54.475 -51.371  1.00  0.00     0.060 A 
HETATM   24  C   UNL     1     -41.996  54.611 -50.587  1.00  0.00     0.031 A 
HETATM   25  C   UNL     1     -41.909  54.614 -49.193  1.00  0.00     0.002 A 
HETATM   26  C   UNL     1     -40.673  54.462 -48.569  1.00  0.00     0.000 A 
HETATM   27  C   UNL     1     -39.523  54.297 -49.338  1.00  0.00     0.002 A 
HETATM   28  C   UNL     1     -39.603  54.295 -50.735  1.00  0.00     0.031 A 
ENDBRANCH   2  23
BRANCH   1  29
HETATM   29  C   UNL     1     -40.367  52.088 -53.527  1.00  0.00     0.012 A 
HETATM   30  C   UNL     1     -39.941  51.690 -52.252  1.00  0.00     0.015 A 
HETATM   31  C   UNL     1     -39.459  50.398 -52.034  1.00  0.00     0.001 A 
HETATM   32  C   UNL     1     -39.411  49.486 -53.086  1.00  0.00     0.000 A 
HETATM   33  C   UNL     1     -39.855  49.860 -54.353  1.00  0.00     0.001 A 
HETATM   34  C   UNL     1     -40.340  51.151 -54.572  1.00  0.00     0.015 A 
ENDBRANCH   1  29
TORSDOF 7
ENDMDL
MODEL 8
REMARK VINA RESULT:      -8.0      2.065      3.300
REMARK  7 active torsions:
REMARK  status: ('A' for Active; 'I' for Inactive)
REMARK    1  A    between atoms: C_4  and  C_5 
REMARK    2  A    between atoms: N_6  and  C_7 
REMARK    3  A    between atoms: C_14  and  C_15 
REMARK       I    between atoms: C_15  and  N_16 
REMARK    4  A    between atoms: N_16  and  N_17 
REMARK       I    between atoms: N_17  and  C_18 
REMARK    5  A    between atoms: C_18  and  C_19 
REMARK    6  A    between atoms: C_19  and  C_20 
REMARK    7  A    between atoms: C_23  and  O_24 
ROOT
HETATM    1  C   UNL     1     -43.080  58.573 -58.447  1.00  0.00     0.164 C 
HETATM    2  N   UNL     1     -44.360  58.043 -58.596  1.00  0.00    -0.213 N 
HETATM    3  N   UNL     1     -44.460  56.901 -57.855  1.00  0.00    -0.139 NA
HETATM    4  C   UNL     1     -43.324  56.909 -57.137  1.00  0.00     0.241 C 
HETATM    5  N   UNL     1     -42.470  57.932 -57.465  1.00  0.00    -0.202 NA
ENDROOT
BRANCH   4   6
HETATM    6  C   UNL     1     -43.021  55.903 -56.102  1.00  0.00     0.309 C 
HETATM    7  N   UNL     1     -42.994  56.414 -54.816  1.00  0.00    -0.261 N 
HETATM    8  H   UNL     1     -43.133  57.410 -54.637  1.00  0.00     0.190 HD
HETATM    9  O   UNL     1     -42.800  54.713 -56.333  1.00  0.00    -0.262 OA
BRANCH   7  10
HETATM   10  N   UNL     1     -42.632  55.583 -53.754  1.00  0.00    -0.267 N 
HETATM   11  C   UNL     1     -41.304  55.504 -53.391  1.00  0.00     0.240 C 
HETATM   12  O   UNL     1     -40.415  56.133 -53.963  1.00  0.00    -0.272 OA
HETATM   13  H   UNL     1     -43.389  55.144 -53.234  1.00  0.00     0.190 HD
BRANCH  11  14
HETATM   14  C   UNL     1     -41.036  54.556 -52.239  1.00  0.00     0.143 C 
BRANCH  14  15
HETATM   15  C   UNL     1     -40.563  53.195 -52.685  1.00  0.00    -0.049 A 
HETATM   16  C   UNL     1     -39.870  52.351 -51.803  1.00  0.00     0.010 A 
HETATM   17  C   UNL     1     -39.455  51.081 -52.214  1.00  0.00     0.037 A 
HETATM   18  C   UNL     1     -39.732  50.655 -53.509  1.00  0.00     0.065 A 
HETATM   19  C   UNL     1     -40.413  51.477 -54.397  1.00  0.00     0.037 A 
HETATM   20  C   UNL     1     -40.828  52.745 -53.987  1.00  0.00     0.010 A 
BRANCH  18  21
HETATM   21  O   UNL     1     -39.353  49.422 -53.948  1.00  0.00    -0.361 OA
HETATM   22  H   UNL     1     -39.436  49.397 -54.914  1.00  0.00     0.217 HD
ENDBRANCH  18  21
ENDBRANCH  14  15
ENDBRANCH  11  14
ENDBRANCH   7  10
ENDBRANCH   4   6
BRANCH   2  23
HETATM   23  C   UNL     1     -45.493  58.513 -59.323  1.00  0.00     0.060 A 
HETATM   24  C   UNL     1     -46.193  57.617 -60.147  1.00  0.00     0.031 A 
HETATM   25  C   UNL     1     -47.307  58.046 -60.873  1.00  0.00     0.002 A 
HETATM   26  C   UNL     1     -47.743  59.364 -60.768  1.00  0.00     0.000 A 
HETATM   27  C   UNL     1     -47.072  60.253 -59.931  1.00  0.00     0.002 A 
HETATM   28  C   UNL     1     -45.955  59.830 -59.204  1.00  0.00     0.031 A 
ENDBRANCH   2  23
BRANCH   1  29
HETATM   29  C   UNL     1     -42.434  59.612 -59.250  1.00  0.00     0.012 A 
HETATM   30  C   UNL     1     -42.370  59.466 -60.643  1.00  0.00     0.015 A 
HETATM   31  C   UNL     1     -41.785  60.455 -61.436  1.00  0.00     0.001 A 
HETATM   32  C   UNL     1     -41.268  61.606 -60.845  1.00  0.00     0.000 A 
HETATM   33  C   UNL     1     -41.348  61.775 -59.464  1.00  0.00     0.001 A 
HETATM   34  C   UNL     1     -41.936  60.788 -58.670  1.00  0.00     0.015 A 
ENDBRANCH   1  29
TORSDOF 7
ENDMDL
MODEL 9
REMARK VINA RESULT:      -7.9      2.302      9.709
REMARK  7 active torsions:
REMARK  status: ('A' for Active; 'I' for Inactive)
REMARK    1  A    between atoms: C_4  and  C_5 
REMARK    2  A    between atoms: N_6  and  C_7 
REMARK    3  A    between atoms: C_14  and  C_15 
REMARK       I    between atoms: C_15  and  N_16 
REMARK    4  A    between atoms: N_16  and  N_17 
REMARK       I    between atoms: N_17  and  C_18 
REMARK    5  A    between atoms: C_18  and  C_19 
REMARK    6  A    between atoms: C_19  and  C_20 
REMARK    7  A    between atoms: C_23  and  O_24 
ROOT
HETATM    1  C   UNL     1     -41.124  53.464 -53.817  1.00  0.00     0.164 C 
HETATM    2  N   UNL     1     -41.202  54.511 -52.900  1.00  0.00    -0.213 N 
HETATM    3  N   UNL     1     -41.551  55.655 -53.557  1.00  0.00    -0.139 NA
HETATM    4  C   UNL     1     -41.868  55.212 -54.785  1.00  0.00     0.241 C 
HETATM    5  N   UNL     1     -41.634  53.872 -54.966  1.00  0.00    -0.202 NA
ENDROOT
BRANCH   4   6
HETATM    6  C   UNL     1     -42.405  56.089 -55.842  1.00  0.00     0.309 C 
HETATM    7  N   UNL     1     -43.449  55.528 -56.558  1.00  0.00    -0.261 N 
HETATM    8  H   UNL     1     -43.767  54.575 -56.375  1.00  0.00     0.190 HD
HETATM    9  O   UNL     1     -41.978  57.217 -56.092  1.00  0.00    -0.262 OA
BRANCH   7  10
HETATM   10  N   UNL     1     -43.987  56.221 -57.644  1.00  0.00    -0.267 N 
HETATM   11  C   UNL     1     -44.136  55.564 -58.847  1.00  0.00     0.240 C 
HETATM   12  O   UNL     1     -43.814  54.388 -59.012  1.00  0.00    -0.272 OA
HETATM   13  H   UNL     1     -44.334  57.161 -57.464  1.00  0.00     0.190 HD
BRANCH  11  14
HETATM   14  C   UNL     1     -44.713  56.427 -59.952  1.00  0.00     0.143 C 
BRANCH  14  15
HETATM   15  C   UNL     1     -43.883  57.651 -60.246  1.00  0.00    -0.049 A 
HETATM   16  C   UNL     1     -44.487  58.908 -60.404  1.00  0.00     0.010 A 
HETATM   17  C   UNL     1     -43.711  60.043 -60.652  1.00  0.00     0.037 A 
HETATM   18  C   UNL     1     -42.329  59.922 -60.743  1.00  0.00     0.065 A 
HETATM   19  C   UNL     1     -41.713  58.687 -60.594  1.00  0.00     0.037 A 
HETATM   20  C   UNL     1     -42.487  57.553 -60.345  1.00  0.00     0.010 A 
BRANCH  18  21
HETATM   21  O   UNL     1     -41.534  61.005 -60.976  1.00  0.00    -0.361 OA
HETATM   22  H   UNL     1     -41.081  60.881 -61.825  1.00  0.00     0.217 HD
ENDBRANCH  18  21
ENDBRANCH  14  15
ENDBRANCH  11  14
ENDBRANCH   7  10
ENDBRANCH   4   6
BRANCH   2  23
HETATM   23  C   UNL     1     -41.024  54.536 -51.486  1.00  0.00     0.060 A 
HETATM   24  C   UNL     1     -42.150  54.688 -50.659  1.00  0.00     0.031 A 
HETATM   25  C   UNL     1     -42.009  54.717 -49.270  1.00  0.00     0.002 A 
HETATM   26  C   UNL     1     -40.750  54.575 -48.693  1.00  0.00     0.000 A 
HETATM   27  C   UNL     1     -39.631  54.394 -49.503  1.00  0.00     0.002 A 
HETATM   28  C   UNL     1     -39.765  54.367 -50.895  1.00  0.00     0.031 A 
ENDBRANCH   2  23
BRANCH   1  29
HETATM   29  C   UNL     1     -40.526  52.142 -53.628  1.00  0.00     0.012 A 
HETATM   30  C   UNL     1     -40.010  51.792 -52.372  1.00  0.00     0.015 A 
HETATM   31  C   UNL     1     -39.459  50.527 -52.157  1.00  0.00     0.001 A 
HETATM   32  C   UNL     1     -39.431  49.594 -53.192  1.00  0.00     0.000 A 
HETATM   33  C   UNL     1     -39.963  49.920 -54.437  1.00  0.00     0.001 A 
HETATM   34  C   UNL     1     -40.517  51.184 -54.654  1.00  0.00     0.015 A 
ENDBRANCH   1  29
TORSDOF 7
ENDMDL
MODEL 10
REMARK VINA RESULT:      -7.8      3.303      9.507
REMARK  7 active torsions:
REMARK  status: ('A' for Active; 'I' for Inactive)
REMARK    1  A    between atoms: C_4  and  C_5 
REMARK    2  A    between atoms: N_6  and  C_7 
REMARK    3  A    between atoms: C_14  and  C_15 
REMARK       I    between atoms: C_15  and  N_16 
REMARK    4  A    between atoms: N_16  and  N_17 
REMARK       I    between atoms: N_17  and  C_18 
REMARK    5  A    between atoms: C_18  and  C_19 
REMARK    6  A    between atoms: C_19  and  C_20 
REMARK    7  A    between atoms: C_23  and  O_24 
ROOT
HETATM    1  C   UNL     1     -41.888  56.764 -52.677  1.00  0.00     0.164 C 
HETATM    2  N   UNL     1     -41.844  55.448 -52.221  1.00  0.00    -0.213 N 
HETATM    3  N   UNL     1     -42.385  54.628 -53.168  1.00  0.00    -0.139 NA
HETATM    4  C   UNL     1     -42.535  55.446 -54.223  1.00  0.00     0.241 C 
HETATM    5  N   UNL     1     -42.220  56.754 -53.956  1.00  0.00    -0.202 NA
ENDROOT
BRANCH   4   6
HETATM    6  C   UNL     1     -43.006  54.980 -55.540  1.00  0.00     0.309 C 
HETATM    7  N   UNL     1     -43.307  56.005 -56.422  1.00  0.00    -0.261 N 
HETATM    8  H   UNL     1     -43.239  56.985 -56.140  1.00  0.00     0.190 HD
HETATM    9  O   UNL     1     -43.139  53.796 -55.852  1.00  0.00    -0.262 OA
BRANCH   7  10
HETATM   10  N   UNL     1     -43.848  55.699 -57.672  1.00  0.00    -0.267 N 
HETATM   11  C   UNL     1     -43.330  56.316 -58.792  1.00  0.00     0.240 C 
HETATM   12  O   UNL     1     -42.409  57.129 -58.743  1.00  0.00    -0.272 OA
HETATM   13  H   UNL     1     -44.543  54.957 -57.703  1.00  0.00     0.190 HD
BRANCH  11  14
HETATM   14  C   UNL     1     -44.013  55.916 -60.085  1.00  0.00     0.143 C 
BRANCH  14  15
HETATM   15  C   UNL     1     -45.246  56.731 -60.384  1.00  0.00    -0.049 A 
HETATM   16  C   UNL     1     -45.240  58.126 -60.229  1.00  0.00     0.010 A 
HETATM   17  C   UNL     1     -46.378  58.879 -60.530  1.00  0.00     0.037 A 
HETATM   18  C   UNL     1     -47.523  58.237 -60.987  1.00  0.00     0.065 A 
HETATM   19  C   UNL     1     -47.550  56.857 -61.143  1.00  0.00     0.037 A 
HETATM   20  C   UNL     1     -46.414  56.105 -60.842  1.00  0.00     0.010 A 
BRANCH  18  21
HETATM   21  O   UNL     1     -48.652  58.934 -61.300  1.00  0.00    -0.361 OA
HETATM   22  H   UNL     1     -49.039  58.553 -62.104  1.00  0.00     0.217 HD
ENDBRANCH  18  21
ENDBRANCH  14  15
ENDBRANCH  11  14
ENDBRANCH   7  10
ENDBRANCH   4   6
BRANCH   2  23
HETATM   23  C   UNL     1     -41.318  54.887 -51.020  1.00  0.00     0.060 A 
HETATM   24  C   UNL     1     -41.673  55.462 -49.787  1.00  0.00     0.031 A 
HETATM   25  C   UNL     1     -41.175  54.936 -48.593  1.00  0.00     0.002 A 
HETATM   26  C   UNL     1     -40.337  53.825 -48.614  1.00  0.00     0.000 A 
HETATM   27  C   UNL     1     -40.003  53.230 -49.829  1.00  0.00     0.002 A 
HETATM   28  C   UNL     1     -40.496  53.753 -51.029  1.00  0.00     0.031 A 
ENDBRANCH   2  23
BRANCH   1  29
HETATM   29  C   UNL     1     -41.683  57.993 -51.909  1.00  0.00     0.012 A 
HETATM   30  C   UNL     1     -42.789  58.774 -51.549  1.00  0.00     0.015 A 
HETATM   31  C   UNL     1     -42.624  59.936 -50.793  1.00  0.00     0.001 A 
HETATM   32  C   UNL     1     -41.351  60.321 -50.378  1.00  0.00     0.000 A 
HETATM   33  C   UNL     1     -40.246  59.541 -50.707  1.00  0.00     0.001 A 
HETATM   34  C   UNL     1     -40.409  58.376 -51.461  1.00  0.00     0.015 A 
ENDBRANCH   1  29
TORSDOF 7
ENDMDL
