MODEL 1
REMARK VINA RESULT:      -8.6      0.000      0.000
REMARK  7 active torsions:
REMARK  status: ('A' for Active; 'I' for Inactive)
REMARK    1  A    between atoms: O_2  and  C_3 
REMARK    2  A    between atoms: C_4  and  N_5 
REMARK    3  A    between atoms: N_5  and  C_6 
REMARK    4  A    between atoms: C_8  and  N_9 
REMARK    5  A    between atoms: C_11  and  C_12 
REMARK    6  A    between atoms: C_12  and  N_13 
REMARK    7  A    between atoms: N_17  and  C_18 
ROOT
HETATM    1  C   UNL     1     -41.944  56.050 -51.612  1.00  0.00     0.731 A 
HETATM    2  N   UNL     1     -43.029  56.211 -50.863  1.00  0.00    -0.031 NA
HETATM    3  C   UNL     1     -44.002  56.943 -51.375  1.00  0.00     0.219 A 
HETATM    4  N   UNL     1     -43.940  57.583 -52.536  1.00  0.00    -0.200 NA
HETATM    5  C   UNL     1     -42.798  57.400 -53.201  1.00  0.00     0.174 A 
HETATM    6  N   UNL     1     -41.784  56.654 -52.789  1.00  0.00    -0.045 NA
ENDROOT
BRANCH   5   7
HETATM    7  C   UNL     1     -42.552  58.320 -54.380  1.00  0.00     0.316 C 
BRANCH   7   8
HETATM    8  N   UNL     1     -42.375  57.562 -55.709  1.00  0.00    -0.061 N 
HETATM    9  H   UNL     1     -41.394  57.239 -55.666  1.00  0.00     0.280 HD
HETATM   10  C   UNL     1     -43.250  56.316 -55.799  1.00  0.00     0.255 C 
HETATM   11  C   UNL     1     -42.923  55.536 -57.096  1.00  0.00     0.152 C 
HETATM   12  N   UNL     1     -43.021  56.394 -58.299  1.00  0.00    -0.364 N 
HETATM   13  C   UNL     1     -42.297  57.686 -58.224  1.00  0.00     0.152 C 
HETATM   14  C   UNL     1     -42.564  58.462 -56.913  1.00  0.00     0.255 C 
BRANCH  12  15
HETATM   15  C   UNL     1     -44.137  56.256 -59.099  1.00  0.00     0.102 A 
HETATM   16  N   UNL     1     -45.244  56.935 -58.745  1.00  0.00    -0.352 N 
HETATM   17  H   UNL     1     -45.206  57.468 -57.880  1.00  0.00     0.166 HD
HETATM   18  C   UNL     1     -46.402  56.887 -59.421  1.00  0.00     0.089 A 
HETATM   19  C   UNL     1     -46.504  56.104 -60.559  1.00  0.00     0.017 A 
HETATM   20  C   UNL     1     -45.400  55.367 -60.964  1.00  0.00     0.005 A 
HETATM   21  C   UNL     1     -44.215  55.434 -60.228  1.00  0.00     0.048 A 
ENDBRANCH  12  15
ENDBRANCH   7   8
ENDBRANCH   5   7
BRANCH   3  22
HETATM   22  N   UNL     1     -45.145  57.106 -50.624  1.00  0.00    -0.270 NA
HETATM   23  H   UNL     1     -45.417  58.085 -50.616  1.00  0.00     0.127 HD
HETATM   24  H   UNL     1     -45.062  56.688 -49.706  1.00  0.00     0.127 HD
ENDBRANCH   3  22
BRANCH   1  25
HETATM   25  N   UNL     1     -40.908  55.305 -51.075  1.00  0.00    -0.185 N 
HETATM   26  H   UNL     1     -40.316  55.830 -50.441  1.00  0.00     0.184 HD
BRANCH  25  27
HETATM   27  C   UNL     1     -40.605  53.930 -51.132  1.00  0.00     0.084 A 
HETATM   28  C   UNL     1     -40.722  53.154 -49.956  1.00  0.00     0.095 A 
HETATM   29  C   UNL     1     -40.420  51.788 -49.980  1.00  0.00     0.041 A 
HETATM   30  C   UNL     1     -39.969  51.191 -51.158  1.00  0.00     0.026 A 
HETATM   31  C   UNL     1     -39.819  51.958 -52.308  1.00  0.00     0.036 A 
HETATM   32  C   UNL     1     -40.127  53.318 -52.298  1.00  0.00     0.056 A 
HETATM   33 CL   UNL     1     -39.250  51.232 -53.760  1.00  0.00    -0.084 Cl
BRANCH  28  34
HETATM   34  O   UNL     1     -41.150  53.839 -48.842  1.00  0.00    -0.354 OA
HETATM   35  C   UNL     1     -40.212  53.967 -47.777  1.00  0.00     0.210 C 
ENDBRANCH  28  34
ENDBRANCH  25  27
ENDBRANCH   1  25
TORSDOF 7
ENDMDL
MODEL 2
REMARK VINA RESULT:      -8.5      1.381      1.868
REMARK  7 active torsions:
REMARK  status: ('A' for Active; 'I' for Inactive)
REMARK    1  A    between atoms: O_2  and  C_3 
REMARK    2  A    between atoms: C_4  and  N_5 
REMARK    3  A    between atoms: N_5  and  C_6 
REMARK    4  A    between atoms: C_8  and  N_9 
REMARK    5  A    between atoms: C_11  and  C_12 
REMARK    6  A    between atoms: C_12  and  N_13 
REMARK    7  A    between atoms: N_17  and  C_18 
ROOT
HETATM    1  C   UNL     1     -41.519  57.146 -51.774  1.00  0.00     0.731 A 
HETATM    2  N   UNL     1     -40.393  57.763 -51.437  1.00  0.00    -0.031 NA
HETATM    3  C   UNL     1     -40.141  58.913 -52.038  1.00  0.00     0.219 A 
HETATM    4  N   UNL     1     -40.887  59.447 -52.996  1.00  0.00    -0.200 NA
HETATM    5  C   UNL     1     -41.976  58.739 -53.300  1.00  0.00     0.174 A 
HETATM    6  N   UNL     1     -42.332  57.599 -52.727  1.00  0.00    -0.045 NA
ENDROOT
BRANCH   5   7
HETATM    7  C   UNL     1     -42.706  59.141 -54.567  1.00  0.00     0.316 C 
BRANCH   7   8
HETATM    8  N   UNL     1     -42.445  58.180 -55.743  1.00  0.00    -0.061 N 
HETATM    9  H   UNL     1     -41.468  57.880 -55.589  1.00  0.00     0.280 HD
HETATM   10  C   UNL     1     -43.310  56.925 -55.683  1.00  0.00     0.255 C 
HETATM   11  C   UNL     1     -42.902  55.950 -56.814  1.00  0.00     0.152 C 
HETATM   12  N   UNL     1     -42.929  56.601 -58.143  1.00  0.00    -0.364 N 
HETATM   13  C   UNL     1     -42.213  57.897 -58.235  1.00  0.00     0.152 C 
HETATM   14  C   UNL     1     -42.563  58.872 -57.085  1.00  0.00     0.255 C 
BRANCH  12  15
HETATM   15  C   UNL     1     -43.993  56.323 -58.976  1.00  0.00     0.102 A 
HETATM   16  N   UNL     1     -45.136  57.002 -58.773  1.00  0.00    -0.352 N 
HETATM   17  H   UNL     1     -45.162  57.644 -57.984  1.00  0.00     0.166 HD
HETATM   18  C   UNL     1     -46.252  56.827 -59.497  1.00  0.00     0.089 A 
HETATM   19  C   UNL     1     -46.268  55.900 -60.527  1.00  0.00     0.017 A 
HETATM   20  C   UNL     1     -45.122  55.156 -60.772  1.00  0.00     0.005 A 
HETATM   21  C   UNL     1     -43.984  55.359 -59.991  1.00  0.00     0.048 A 
ENDBRANCH  12  15
ENDBRANCH   7   8
ENDBRANCH   5   7
BRANCH   3  22
HETATM   22  N   UNL     1     -38.987  59.580 -51.688  1.00  0.00    -0.270 NA
HETATM   23  H   UNL     1     -38.297  58.919 -51.344  1.00  0.00     0.127 HD
HETATM   24  H   UNL     1     -39.168  60.356 -51.064  1.00  0.00     0.127 HD
ENDBRANCH   3  22
BRANCH   1  25
HETATM   25  N   UNL     1     -41.781  55.929 -51.168  1.00  0.00    -0.185 N 
HETATM   26  H   UNL     1     -42.591  55.944 -50.560  1.00  0.00     0.184 HD
BRANCH  25  27
HETATM   27  C   UNL     1     -41.223  54.647 -51.344  1.00  0.00     0.084 A 
HETATM   28  C   UNL     1     -40.835  53.907 -50.203  1.00  0.00     0.095 A 
HETATM   29  C   UNL     1     -40.269  52.635 -50.347  1.00  0.00     0.041 A 
HETATM   30  C   UNL     1     -40.056  52.104 -51.620  1.00  0.00     0.026 A 
HETATM   31  C   UNL     1     -40.404  52.843 -52.745  1.00  0.00     0.036 A 
HETATM   32  C   UNL     1     -40.977  54.107 -52.613  1.00  0.00     0.056 A 
HETATM   33 CL   UNL     1     -40.129  52.199 -54.317  1.00  0.00    -0.084 Cl
BRANCH  28  34
HETATM   34  O   UNL     1     -41.064  54.527 -48.997  1.00  0.00    -0.354 OA
HETATM   35  C   UNL     1     -40.342  54.022 -47.876  1.00  0.00     0.210 C 
ENDBRANCH  28  34
ENDBRANCH  25  27
ENDBRANCH   1  25
TORSDOF 7
ENDMDL
MODEL 3
REMARK VINA RESULT:      -8.2      1.426      1.958
REMARK  7 active torsions:
REMARK  status: ('A' for Active; 'I' for Inactive)
REMARK    1  A    between atoms: O_2  and  C_3 
REMARK    2  A    between atoms: C_4  and  N_5 
REMARK    3  A    between atoms: N_5  and  C_6 
REMARK    4  A    between atoms: C_8  and  N_9 
REMARK    5  A    between atoms: C_11  and  C_12 
REMARK    6  A    between atoms: C_12  and  N_13 
REMARK    7  A    between atoms: N_17  and  C_18 
ROOT
HETATM    1  C   UNL     1     -43.840  56.224 -51.435  1.00  0.00     0.731 A 
HETATM    2  N   UNL     1     -44.726  56.844 -50.664  1.00  0.00    -0.031 NA
HETATM    3  C   UNL     1     -45.115  58.046 -51.053  1.00  0.00     0.219 A 
HETATM    4  N   UNL     1     -44.632  58.697 -52.103  1.00  0.00    -0.200 NA
HETATM    5  C   UNL     1     -43.718  58.016 -52.795  1.00  0.00     0.174 A 
HETATM    6  N   UNL     1     -43.293  56.795 -52.508  1.00  0.00    -0.045 NA
ENDROOT
BRANCH   5   7
HETATM    7  C   UNL     1     -42.929  58.804 -53.823  1.00  0.00     0.316 C 
BRANCH   7   8
HETATM    8  N   UNL     1     -43.658  58.931 -55.174  1.00  0.00    -0.061 N 
HETATM    9  H   UNL     1     -43.996  59.908 -55.167  1.00  0.00     0.280 HD
HETATM   10  C   UNL     1     -42.718  58.795 -56.367  1.00  0.00     0.255 C 
HETATM   11  C   UNL     1     -43.492  59.065 -57.681  1.00  0.00     0.152 C 
HETATM   12  N   UNL     1     -44.697  58.213 -57.800  1.00  0.00    -0.364 N 
HETATM   13  C   UNL     1     -45.590  58.199 -56.616  1.00  0.00     0.152 C 
HETATM   14  C   UNL     1     -44.835  57.983 -55.283  1.00  0.00     0.255 C 
BRANCH  12  15
HETATM   15  C   UNL     1     -44.637  57.130 -58.652  1.00  0.00     0.102 A 
HETATM   16  N   UNL     1     -45.782  56.736 -59.240  1.00  0.00    -0.352 N 
HETATM   17  H   UNL     1     -46.631  57.231 -58.980  1.00  0.00     0.166 HD
HETATM   18  C   UNL     1     -45.874  55.695 -60.080  1.00  0.00     0.089 A 
HETATM   19  C   UNL     1     -44.745  54.954 -60.388  1.00  0.00     0.017 A 
HETATM   20  C   UNL     1     -43.538  55.302 -59.798  1.00  0.00     0.005 A 
HETATM   21  C   UNL     1     -43.483  56.385 -58.920  1.00  0.00     0.048 A 
ENDBRANCH  12  15
ENDBRANCH   7   8
ENDBRANCH   5   7
BRANCH   3  22
HETATM   22  N   UNL     1     -46.049  58.699 -50.278  1.00  0.00    -0.270 NA
HETATM   23  H   UNL     1     -46.710  59.188 -50.874  1.00  0.00     0.127 HD
HETATM   24  H   UNL     1     -45.620  59.277 -49.568  1.00  0.00     0.127 HD
ENDBRANCH   3  22
BRANCH   1  25
HETATM   25  N   UNL     1     -43.407  54.975 -51.024  1.00  0.00    -0.185 N 
HETATM   26  H   UNL     1     -44.084  54.477 -50.458  1.00  0.00     0.184 HD
BRANCH  25  27
HETATM   27  C   UNL     1     -42.269  54.214 -51.357  1.00  0.00     0.084 A 
HETATM   28  C   UNL     1     -41.343  53.887 -50.339  1.00  0.00     0.095 A 
HETATM   29  C   UNL     1     -40.199  53.139 -50.642  1.00  0.00     0.041 A 
HETATM   30  C   UNL     1     -39.951  52.740 -51.956  1.00  0.00     0.026 A 
HETATM   31  C   UNL     1     -40.841  53.089 -52.964  1.00  0.00     0.036 A 
HETATM   32  C   UNL     1     -41.989  53.825 -52.673  1.00  0.00     0.056 A 
HETATM   33 CL   UNL     1     -40.532  52.613 -54.589  1.00  0.00    -0.084 Cl
BRANCH  28  34
HETATM   34  O   UNL     1     -41.665  54.346 -49.084  1.00  0.00    -0.354 OA
HETATM   35  C   UNL     1     -40.635  54.284 -48.101  1.00  0.00     0.210 C 
ENDBRANCH  28  34
ENDBRANCH  25  27
ENDBRANCH   1  25
TORSDOF 7
ENDMDL
MODEL 4
REMARK VINA RESULT:      -8.2      2.204      3.169
REMARK  7 active torsions:
REMARK  status: ('A' for Active; 'I' for Inactive)
REMARK    1  A    between atoms: O_2  and  C_3 
REMARK    2  A    between atoms: C_4  and  N_5 
REMARK    3  A    between atoms: N_5  and  C_6 
REMARK    4  A    between atoms: C_8  and  N_9 
REMARK    5  A    between atoms: C_11  and  C_12 
REMARK    6  A    between atoms: C_12  and  N_13 
REMARK    7  A    between atoms: N_17  and  C_18 
ROOT
HETATM    1  C   UNL     1     -41.679  55.221 -51.962  1.00  0.00     0.731 A 
HETATM    2  N   UNL     1     -42.594  54.639 -51.195  1.00  0.00    -0.031 NA
HETATM    3  C   UNL     1     -43.700  55.324 -50.964  1.00  0.00     0.219 A 
HETATM    4  N   UNL     1     -43.924  56.565 -51.375  1.00  0.00    -0.200 NA
HETATM    5  C   UNL     1     -42.935  57.086 -52.104  1.00  0.00     0.174 A 
HETATM    6  N   UNL     1     -41.809  56.465 -52.421  1.00  0.00    -0.045 NA
ENDROOT
BRANCH   5   7
HETATM    7  C   UNL     1     -43.003  58.579 -52.358  1.00  0.00     0.316 C 
BRANCH   7   8
HETATM    8  N   UNL     1     -43.437  58.926 -53.795  1.00  0.00    -0.061 N 
HETATM    9  H   UNL     1     -43.901  59.843 -53.685  1.00  0.00     0.280 HD
HETATM   10  C   UNL     1     -42.254  59.137 -54.734  1.00  0.00     0.255 C 
HETATM   11  C   UNL     1     -42.759  59.611 -56.119  1.00  0.00     0.152 C 
HETATM   12  N   UNL     1     -43.780  58.698 -56.679  1.00  0.00    -0.364 N 
HETATM   13  C   UNL     1     -44.895  58.347 -55.766  1.00  0.00     0.152 C 
HETATM   14  C   UNL     1     -44.420  57.920 -54.356  1.00  0.00     0.255 C 
BRANCH  12  15
HETATM   15  C   UNL     1     -43.390  57.833 -57.681  1.00  0.00     0.102 A 
HETATM   16  N   UNL     1     -43.814  56.558 -57.603  1.00  0.00    -0.352 N 
HETATM   17  H   UNL     1     -44.355  56.298 -56.782  1.00  0.00     0.166 HD
HETATM   18  C   UNL     1     -43.504  55.608 -58.498  1.00  0.00     0.089 A 
HETATM   19  C   UNL     1     -42.702  55.918 -59.584  1.00  0.00     0.017 A 
HETATM   20  C   UNL     1     -42.220  57.214 -59.708  1.00  0.00     0.005 A 
HETATM   21  C   UNL     1     -42.556  58.173 -58.751  1.00  0.00     0.048 A 
ENDBRANCH  12  15
ENDBRANCH   7   8
ENDBRANCH   5   7
BRANCH   3  22
HETATM   22  N   UNL     1     -44.670  54.730 -50.187  1.00  0.00    -0.270 NA
HETATM   23  H   UNL     1     -44.369  53.800 -49.910  1.00  0.00     0.127 HD
HETATM   24  H   UNL     1     -45.582  54.761 -50.623  1.00  0.00     0.127 HD
ENDBRANCH   3  22
BRANCH   1  25
HETATM   25  N   UNL     1     -40.506  54.522 -52.191  1.00  0.00    -0.185 N 
HETATM   26  H   UNL     1     -39.670  55.042 -51.949  1.00  0.00     0.184 HD
BRANCH  25  27
HETATM   27  C   UNL     1     -40.260  53.186 -52.562  1.00  0.00     0.084 A 
HETATM   28  C   UNL     1     -40.455  52.801 -53.908  1.00  0.00     0.095 A 
HETATM   29  C   UNL     1     -40.227  51.478 -54.304  1.00  0.00     0.041 A 
HETATM   30  C   UNL     1     -39.836  50.524 -53.363  1.00  0.00     0.026 A 
HETATM   31  C   UNL     1     -39.677  50.890 -52.032  1.00  0.00     0.036 A 
HETATM   32  C   UNL     1     -39.892  52.207 -51.629  1.00  0.00     0.056 A 
HETATM   33 CL   UNL     1     -39.210  49.715 -50.865  1.00  0.00    -0.084 Cl
BRANCH  28  34
HETATM   34  O   UNL     1     -40.864  53.808 -54.752  1.00  0.00    -0.354 OA
HETATM   35  C   UNL     1     -42.237  53.800 -55.132  1.00  0.00     0.210 C 
ENDBRANCH  28  34
ENDBRANCH  25  27
ENDBRANCH   1  25
TORSDOF 7
ENDMDL
MODEL 5
REMARK VINA RESULT:      -8.1      2.125      3.003
REMARK  7 active torsions:
REMARK  status: ('A' for Active; 'I' for Inactive)
REMARK    1  A    between atoms: O_2  and  C_3 
REMARK    2  A    between atoms: C_4  and  N_5 
REMARK    3  A    between atoms: N_5  and  C_6 
REMARK    4  A    between atoms: C_8  and  N_9 
REMARK    5  A    between atoms: C_11  and  C_12 
REMARK    6  A    between atoms: C_12  and  N_13 
REMARK    7  A    between atoms: N_17  and  C_18 
ROOT
HETATM    1  C   UNL     1     -44.122  56.479 -51.621  1.00  0.00     0.731 A 
HETATM    2  N   UNL     1     -44.849  57.088 -50.692  1.00  0.00    -0.031 NA
HETATM    3  C   UNL     1     -45.160  58.354 -50.913  1.00  0.00     0.219 A 
HETATM    4  N   UNL     1     -44.736  59.069 -51.948  1.00  0.00    -0.200 NA
HETATM    5  C   UNL     1     -43.977  58.389 -52.808  1.00  0.00     0.174 A 
HETATM    6  N   UNL     1     -43.646  57.111 -52.693  1.00  0.00    -0.045 NA
ENDROOT
BRANCH   5   7
HETATM    7  C   UNL     1     -43.235  59.210 -53.844  1.00  0.00     0.316 C 
BRANCH   7   8
HETATM    8  N   UNL     1     -43.940  59.231 -55.214  1.00  0.00    -0.061 N 
HETATM    9  H   UNL     1     -44.350  60.179 -55.253  1.00  0.00     0.280 HD
HETATM   10  C   UNL     1     -42.965  59.121 -56.381  1.00  0.00     0.255 C 
HETATM   11  C   UNL     1     -43.725  59.283 -57.721  1.00  0.00     0.152 C 
HETATM   12  N   UNL     1     -44.860  58.338 -57.831  1.00  0.00    -0.364 N 
HETATM   13  C   UNL     1     -45.777  58.301 -56.666  1.00  0.00     0.152 C 
HETATM   14  C   UNL     1     -45.039  58.193 -55.309  1.00  0.00     0.255 C 
BRANCH  12  15
HETATM   15  C   UNL     1     -44.700  57.231 -58.638  1.00  0.00     0.102 A 
HETATM   16  N   UNL     1     -45.794  56.744 -59.252  1.00  0.00    -0.352 N 
HETATM   17  H   UNL     1     -46.682  57.192 -59.042  1.00  0.00     0.166 HD
HETATM   18  C   UNL     1     -45.788  55.670 -60.055  1.00  0.00     0.089 A 
HETATM   19  C   UNL     1     -44.604  54.992 -60.293  1.00  0.00     0.017 A 
HETATM   20  C   UNL     1     -43.444  55.438 -59.673  1.00  0.00     0.005 A 
HETATM   21  C   UNL     1     -43.491  56.553 -58.836  1.00  0.00     0.048 A 
ENDBRANCH  12  15
ENDBRANCH   7   8
ENDBRANCH   5   7
BRANCH   3  22
HETATM   22  N   UNL     1     -45.931  58.999 -49.971  1.00  0.00    -0.270 NA
HETATM   23  H   UNL     1     -46.858  58.586 -49.944  1.00  0.00     0.127 HD
HETATM   24  H   UNL     1     -45.924  60.003 -50.094  1.00  0.00     0.127 HD
ENDBRANCH   3  22
BRANCH   1  25
HETATM   25  N   UNL     1     -43.771  55.160 -51.387  1.00  0.00    -0.185 N 
HETATM   26  H   UNL     1     -44.518  54.502 -51.579  1.00  0.00     0.184 HD
BRANCH  25  27
HETATM   27  C   UNL     1     -42.541  54.553 -51.071  1.00  0.00     0.084 A 
HETATM   28  C   UNL     1     -41.856  53.829 -52.075  1.00  0.00     0.095 A 
HETATM   29  C   UNL     1     -40.636  53.207 -51.786  1.00  0.00     0.041 A 
HETATM   30  C   UNL     1     -40.104  53.270 -50.498  1.00  0.00     0.026 A 
HETATM   31  C   UNL     1     -40.791  53.951 -49.499  1.00  0.00     0.036 A 
HETATM   32  C   UNL     1     -42.003  54.583 -49.778  1.00  0.00     0.056 A 
HETATM   33 CL   UNL     1     -40.149  54.020 -47.905  1.00  0.00    -0.084 Cl
BRANCH  28  34
HETATM   34  O   UNL     1     -42.473  53.805 -53.304  1.00  0.00    -0.354 OA
HETATM   35  C   UNL     1     -41.682  53.362 -54.403  1.00  0.00     0.210 C 
ENDBRANCH  28  34
ENDBRANCH  25  27
ENDBRANCH   1  25
TORSDOF 7
ENDMDL
MODEL 6
REMARK VINA RESULT:      -8.0      2.874      4.220
REMARK  7 active torsions:
REMARK  status: ('A' for Active; 'I' for Inactive)
REMARK    1  A    between atoms: O_2  and  C_3 
REMARK    2  A    between atoms: C_4  and  N_5 
REMARK    3  A    between atoms: N_5  and  C_6 
REMARK    4  A    between atoms: C_8  and  N_9 
REMARK    5  A    between atoms: C_11  and  C_12 
REMARK    6  A    between atoms: C_12  and  N_13 
REMARK    7  A    between atoms: N_17  and  C_18 
ROOT
HETATM    1  C   UNL     1     -41.791  55.387 -54.098  1.00  0.00     0.731 A 
HETATM    2  N   UNL     1     -42.718  55.876 -53.281  1.00  0.00    -0.031 NA
HETATM    3  C   UNL     1     -43.779  56.425 -53.845  1.00  0.00     0.219 A 
HETATM    4  N   UNL     1     -43.944  56.589 -55.152  1.00  0.00    -0.200 NA
HETATM    5  C   UNL     1     -42.946  56.106 -55.894  1.00  0.00     0.174 A 
HETATM    6  N   UNL     1     -41.863  55.505 -55.423  1.00  0.00    -0.045 NA
ENDROOT
BRANCH   5   7
HETATM    7  C   UNL     1     -42.938  56.512 -57.354  1.00  0.00     0.316 C 
BRANCH   7   8
HETATM    8  N   UNL     1     -43.182  58.018 -57.563  1.00  0.00    -0.061 N 
HETATM    9  H   UNL     1     -44.071  58.184 -57.062  1.00  0.00     0.280 HD
HETATM   10  C   UNL     1     -42.125  58.887 -56.889  1.00  0.00     0.255 C 
HETATM   11  C   UNL     1     -42.505  60.382 -57.025  1.00  0.00     0.152 C 
HETATM   12  N   UNL     1     -42.748  60.765 -58.434  1.00  0.00    -0.364 N 
HETATM   13  C   UNL     1     -43.670  59.881 -59.188  1.00  0.00     0.152 C 
HETATM   14  C   UNL     1     -43.344  58.376 -59.026  1.00  0.00     0.255 C 
BRANCH  12  15
HETATM   15  C   UNL     1     -41.764  61.477 -59.087  1.00  0.00     0.102 A 
HETATM   16  N   UNL     1     -41.908  61.670 -60.410  1.00  0.00    -0.352 N 
HETATM   17  H   UNL     1     -42.710  61.234 -60.859  1.00  0.00     0.166 HD
HETATM   18  C   UNL     1     -41.025  62.333 -61.173  1.00  0.00     0.089 A 
HETATM   19  C   UNL     1     -39.884  62.868 -60.600  1.00  0.00     0.017 A 
HETATM   20  C   UNL     1     -39.671  62.687 -59.240  1.00  0.00     0.005 A 
HETATM   21  C   UNL     1     -40.607  61.982 -58.482  1.00  0.00     0.048 A 
ENDBRANCH  12  15
ENDBRANCH   7   8
ENDBRANCH   5   7
BRANCH   3  22
HETATM   22  N   UNL     1     -44.762  56.920 -53.017  1.00  0.00    -0.270 NA
HETATM   23  H   UNL     1     -45.631  57.017 -53.533  1.00  0.00     0.127 HD
HETATM   24  H   UNL     1     -44.468  57.758 -52.533  1.00  0.00     0.127 HD
ENDBRANCH   3  22
BRANCH   1  25
HETATM   25  N   UNL     1     -40.664  54.831 -53.517  1.00  0.00    -0.185 N 
HETATM   26  H   UNL     1     -39.965  55.516 -53.250  1.00  0.00     0.184 HD
BRANCH  25  27
HETATM   27  C   UNL     1     -40.365  53.519 -53.101  1.00  0.00     0.084 A 
HETATM   28  C   UNL     1     -40.200  53.259 -51.721  1.00  0.00     0.095 A 
HETATM   29  C   UNL     1     -39.894  51.967 -51.279  1.00  0.00     0.041 A 
HETATM   30  C   UNL     1     -39.717  50.935 -52.202  1.00  0.00     0.026 A 
HETATM   31  C   UNL     1     -39.844  51.194 -53.562  1.00  0.00     0.036 A 
HETATM   32  C   UNL     1     -40.159  52.476 -54.012  1.00  0.00     0.056 A 
HETATM   33 CL   UNL     1     -39.613  49.929 -54.705  1.00  0.00    -0.084 Cl
BRANCH  28  34
HETATM   34  O   UNL     1     -40.370  54.346 -50.895  1.00  0.00    -0.354 OA
HETATM   35  C   UNL     1     -39.731  54.283 -49.623  1.00  0.00     0.210 C 
ENDBRANCH  28  34
ENDBRANCH  25  27
ENDBRANCH   1  25
TORSDOF 7
ENDMDL
MODEL 7
REMARK VINA RESULT:      -7.9      3.151      6.774
REMARK  7 active torsions:
REMARK  status: ('A' for Active; 'I' for Inactive)
REMARK    1  A    between atoms: O_2  and  C_3 
REMARK    2  A    between atoms: C_4  and  N_5 
REMARK    3  A    between atoms: N_5  and  C_6 
REMARK    4  A    between atoms: C_8  and  N_9 
REMARK    5  A    between atoms: C_11  and  C_12 
REMARK    6  A    between atoms: C_12  and  N_13 
REMARK    7  A    between atoms: N_17  and  C_18 
ROOT
HETATM    1  C   UNL     1     -42.360  55.158 -54.807  1.00  0.00     0.731 A 
HETATM    2  N   UNL     1     -42.619  54.942 -56.091  1.00  0.00    -0.031 NA
HETATM    3  C   UNL     1     -42.574  55.991 -56.893  1.00  0.00     0.219 A 
HETATM    4  N   UNL     1     -42.366  57.241 -56.496  1.00  0.00    -0.200 NA
HETATM    5  C   UNL     1     -42.157  57.370 -55.185  1.00  0.00     0.174 A 
HETATM    6  N   UNL     1     -42.144  56.375 -54.310  1.00  0.00    -0.045 NA
ENDROOT
BRANCH   5   7
HETATM    7  C   UNL     1     -42.200  58.781 -54.634  1.00  0.00     0.316 C 
BRANCH   7   8
HETATM    8  N   UNL     1     -42.506  58.830 -53.125  1.00  0.00    -0.061 N 
HETATM    9  H   UNL     1     -42.344  57.856 -52.820  1.00  0.00     0.280 HD
HETATM   10  C   UNL     1     -41.526  59.706 -52.351  1.00  0.00     0.255 C 
HETATM   11  C   UNL     1     -41.811  59.602 -50.833  1.00  0.00     0.152 C 
HETATM   12  N   UNL     1     -43.225  59.904 -50.513  1.00  0.00    -0.364 N 
HETATM   13  C   UNL     1     -44.233  59.178 -51.324  1.00  0.00     0.152 C 
HETATM   14  C   UNL     1     -43.942  59.222 -52.844  1.00  0.00     0.255 C 
BRANCH  12  15
HETATM   15  C   UNL     1     -43.513  61.138 -49.969  1.00  0.00     0.102 A 
HETATM   16  N   UNL     1     -44.318  61.171 -48.892  1.00  0.00    -0.352 N 
HETATM   17  H   UNL     1     -44.708  60.287 -48.575  1.00  0.00     0.166 HD
HETATM   18  C   UNL     1     -44.691  62.299 -48.267  1.00  0.00     0.089 A 
HETATM   19  C   UNL     1     -44.239  63.524 -48.728  1.00  0.00     0.017 A 
HETATM   20  C   UNL     1     -43.418  63.555 -49.848  1.00  0.00     0.005 A 
HETATM   21  C   UNL     1     -43.061  62.361 -50.476  1.00  0.00     0.048 A 
ENDBRANCH  12  15
ENDBRANCH   7   8
ENDBRANCH   5   7
BRANCH   3  22
HETATM   22  N   UNL     1     -42.819  55.786 -58.233  1.00  0.00    -0.270 NA
HETATM   23  H   UNL     1     -42.059  55.253 -58.645  1.00  0.00     0.127 HD
HETATM   24  H   UNL     1     -43.037  56.646 -58.718  1.00  0.00     0.127 HD
ENDBRANCH   3  22
BRANCH   1  25
HETATM   25  N   UNL     1     -42.428  54.069 -53.954  1.00  0.00    -0.185 N 
HETATM   26  H   UNL     1     -43.377  53.791 -53.726  1.00  0.00     0.184 HD
BRANCH  25  27
HETATM   27  C   UNL     1     -41.442  53.193 -53.460  1.00  0.00     0.084 A 
HETATM   28  C   UNL     1     -40.864  53.457 -52.197  1.00  0.00     0.095 A 
HETATM   29  C   UNL     1     -39.875  52.610 -51.684  1.00  0.00     0.041 A 
HETATM   30  C   UNL     1     -39.432  51.518 -52.431  1.00  0.00     0.026 A 
HETATM   31  C   UNL     1     -39.973  51.275 -53.688  1.00  0.00     0.036 A 
HETATM   32  C   UNL     1     -40.966  52.107 -54.205  1.00  0.00     0.056 A 
HETATM   33 CL   UNL     1     -39.420  49.939 -54.621  1.00  0.00    -0.084 Cl
BRANCH  28  34
HETATM   34  O   UNL     1     -41.350  54.569 -51.550  1.00  0.00    -0.354 OA
HETATM   35  C   UNL     1     -40.757  54.884 -50.293  1.00  0.00     0.210 C 
ENDBRANCH  28  34
ENDBRANCH  25  27
ENDBRANCH   1  25
TORSDOF 7
ENDMDL
MODEL 8
REMARK VINA RESULT:      -7.8      1.475      2.139
REMARK  7 active torsions:
REMARK  status: ('A' for Active; 'I' for Inactive)
REMARK    1  A    between atoms: O_2  and  C_3 
REMARK    2  A    between atoms: C_4  and  N_5 
REMARK    3  A    between atoms: N_5  and  C_6 
REMARK    4  A    between atoms: C_8  and  N_9 
REMARK    5  A    between atoms: C_11  and  C_12 
REMARK    6  A    between atoms: C_12  and  N_13 
REMARK    7  A    between atoms: N_17  and  C_18 
ROOT
HETATM    1  C   UNL     1     -41.895  55.929 -51.979  1.00  0.00     0.731 A 
HETATM    2  N   UNL     1     -42.914  55.946 -51.128  1.00  0.00    -0.031 NA
HETATM    3  C   UNL     1     -43.961  56.678 -51.467  1.00  0.00     0.219 A 
HETATM    4  N   UNL     1     -44.032  57.446 -52.547  1.00  0.00    -0.200 NA
HETATM    5  C   UNL     1     -42.948  57.400 -53.322  1.00  0.00     0.174 A 
HETATM    6  N   UNL     1     -41.868  56.669 -53.087  1.00  0.00    -0.045 NA
ENDROOT
BRANCH   5   7
HETATM    7  C   UNL     1     -42.850  58.458 -54.403  1.00  0.00     0.316 C 
BRANCH   7   8
HETATM    8  N   UNL     1     -42.663  57.865 -55.813  1.00  0.00    -0.061 N 
HETATM    9  H   UNL     1     -41.643  57.706 -55.868  1.00  0.00     0.280 HD
HETATM   10  C   UNL     1     -43.333  56.505 -55.974  1.00  0.00     0.255 C 
HETATM   11  C   UNL     1     -42.994  55.910 -57.363  1.00  0.00     0.152 C 
HETATM   12  N   UNL     1     -43.325  56.846 -58.461  1.00  0.00    -0.364 N 
HETATM   13  C   UNL     1     -42.811  58.228 -58.302  1.00  0.00     0.152 C 
HETATM   14  C   UNL     1     -43.091  58.827 -56.902  1.00  0.00     0.255 C 
BRANCH  12  15
HETATM   15  C   UNL     1     -44.466  56.599 -59.196  1.00  0.00     0.102 A 
HETATM   16  N   UNL     1     -45.615  57.152 -58.766  1.00  0.00    -0.352 N 
HETATM   17  H   UNL     1     -45.581  57.677 -57.896  1.00  0.00     0.166 HD
HETATM   18  C   UNL     1     -46.800  56.988 -59.373  1.00  0.00     0.089 A 
HETATM   19  C   UNL     1     -46.888  56.210 -60.516  1.00  0.00     0.017 A 
HETATM   20  C   UNL     1     -45.738  55.600 -60.998  1.00  0.00     0.005 A 
HETATM   21  C   UNL     1     -44.526  55.785 -60.332  1.00  0.00     0.048 A 
ENDBRANCH  12  15
ENDBRANCH   7   8
ENDBRANCH   5   7
BRANCH   3  22
HETATM   22  N   UNL     1     -45.038  56.694 -50.608  1.00  0.00    -0.270 NA
HETATM   23  H   UNL     1     -45.258  57.651 -50.349  1.00  0.00     0.127 HD
HETATM   24  H   UNL     1     -44.910  56.068 -49.824  1.00  0.00     0.127 HD
ENDBRANCH   3  22
BRANCH   1  25
HETATM   25  N   UNL     1     -40.783  55.185 -51.622  1.00  0.00    -0.185 N 
HETATM   26  H   UNL     1     -40.130  55.689 -51.033  1.00  0.00     0.184 HD
BRANCH  25  27
HETATM   27  C   UNL     1     -40.457  53.827 -51.804  1.00  0.00     0.084 A 
HETATM   28  C   UNL     1     -40.103  53.375 -53.096  1.00  0.00     0.095 A 
HETATM   29  C   UNL     1     -39.783  52.030 -53.309  1.00  0.00     0.041 A 
HETATM   30  C   UNL     1     -39.844  51.120 -52.253  1.00  0.00     0.026 A 
HETATM   31  C   UNL     1     -40.226  51.553 -50.988  1.00  0.00     0.036 A 
HETATM   32  C   UNL     1     -40.537  52.893 -50.763  1.00  0.00     0.056 A 
HETATM   33 CL   UNL     1     -40.318  50.433 -49.685  1.00  0.00    -0.084 Cl
BRANCH  28  34
HETATM   34  O   UNL     1     -40.095  54.343 -54.074  1.00  0.00    -0.354 OA
HETATM   35  C   UNL     1     -40.529  53.939 -55.370  1.00  0.00     0.210 C 
ENDBRANCH  28  34
ENDBRANCH  25  27
ENDBRANCH   1  25
TORSDOF 7
ENDMDL
MODEL 9
REMARK VINA RESULT:      -7.5      2.504      3.369
REMARK  7 active torsions:
REMARK  status: ('A' for Active; 'I' for Inactive)
REMARK    1  A    between atoms: O_2  and  C_3 
REMARK    2  A    between atoms: C_4  and  N_5 
REMARK    3  A    between atoms: N_5  and  C_6 
REMARK    4  A    between atoms: C_8  and  N_9 
REMARK    5  A    between atoms: C_11  and  C_12 
REMARK    6  A    between atoms: C_12  and  N_13 
REMARK    7  A    between atoms: N_17  and  C_18 
ROOT
HETATM    1  C   UNL     1     -44.200  56.396 -51.728  1.00  0.00     0.731 A 
HETATM    2  N   UNL     1     -44.825  57.006 -50.728  1.00  0.00    -0.031 NA
HETATM    3  C   UNL     1     -45.190  58.260 -50.930  1.00  0.00     0.219 A 
HETATM    4  N   UNL     1     -44.911  58.965 -52.019  1.00  0.00    -0.200 NA
HETATM    5  C   UNL     1     -44.244  58.286 -52.954  1.00  0.00     0.174 A 
HETATM    6  N   UNL     1     -43.870  57.019 -52.860  1.00  0.00    -0.045 NA
ENDROOT
BRANCH   5   7
HETATM    7  C   UNL     1     -43.652  59.104 -54.085  1.00  0.00     0.316 C 
BRANCH   7   8
HETATM    8  N   UNL     1     -43.808  58.431 -55.461  1.00  0.00    -0.061 N 
HETATM    9  H   UNL     1     -44.221  57.512 -55.228  1.00  0.00     0.280 HD
HETATM   10  C   UNL     1     -44.806  59.151 -56.361  1.00  0.00     0.255 C 
HETATM   11  C   UNL     1     -45.011  58.349 -57.670  1.00  0.00     0.152 C 
HETATM   12  N   UNL     1     -43.728  58.063 -58.351  1.00  0.00    -0.364 N 
HETATM   13  C   UNL     1     -42.666  57.480 -57.496  1.00  0.00     0.152 C 
HETATM   14  C   UNL     1     -42.477  58.232 -56.156  1.00  0.00     0.255 C 
BRANCH  12  15
HETATM   15  C   UNL     1     -43.406  58.817 -59.460  1.00  0.00     0.102 A 
HETATM   16  N   UNL     1     -44.418  59.384 -60.142  1.00  0.00    -0.352 N 
HETATM   17  H   UNL     1     -45.363  59.179 -59.828  1.00  0.00     0.166 HD
HETATM   18  C   UNL     1     -44.254  60.133 -61.243  1.00  0.00     0.089 A 
HETATM   19  C   UNL     1     -42.981  60.361 -61.740  1.00  0.00     0.017 A 
HETATM   20  C   UNL     1     -41.898  59.787 -61.087  1.00  0.00     0.005 A 
HETATM   21  C   UNL     1     -42.109  59.005 -59.951  1.00  0.00     0.048 A 
ENDBRANCH  12  15
ENDBRANCH   7   8
ENDBRANCH   5   7
BRANCH   3  22
HETATM   22  N   UNL     1     -45.858  58.905 -49.913  1.00  0.00    -0.270 NA
HETATM   23  H   UNL     1     -45.208  59.141 -49.169  1.00  0.00     0.127 HD
HETATM   24  H   UNL     1     -46.675  58.393 -49.606  1.00  0.00     0.127 HD
ENDBRANCH   3  22
BRANCH   1  25
HETATM   25  N   UNL     1     -43.791  55.090 -51.518  1.00  0.00    -0.185 N 
HETATM   26  H   UNL     1     -44.517  54.404 -51.694  1.00  0.00     0.184 HD
BRANCH  25  27
HETATM   27  C   UNL     1     -42.529  54.528 -51.244  1.00  0.00     0.084 A 
HETATM   28  C   UNL     1     -41.811  53.912 -52.295  1.00  0.00     0.095 A 
HETATM   29  C   UNL     1     -40.558  53.337 -52.050  1.00  0.00     0.041 A 
HETATM   30  C   UNL     1     -40.026  53.340 -50.759  1.00  0.00     0.026 A 
HETATM   31  C   UNL     1     -40.745  53.914 -49.717  1.00  0.00     0.036 A 
HETATM   32  C   UNL     1     -41.989  54.498 -49.951  1.00  0.00     0.056 A 
HETATM   33 CL   UNL     1     -40.101  53.908 -48.121  1.00  0.00    -0.084 Cl
BRANCH  28  34
HETATM   34  O   UNL     1     -42.430  53.939 -53.522  1.00  0.00    -0.354 OA
HETATM   35  C   UNL     1     -41.723  54.586 -54.576  1.00  0.00     0.210 C 
ENDBRANCH  28  34
ENDBRANCH  25  27
ENDBRANCH   1  25
TORSDOF 7
ENDMDL
MODEL 10
REMARK VINA RESULT:      -7.5      3.785      7.586
REMARK  7 active torsions:
REMARK  status: ('A' for Active; 'I' for Inactive)
REMARK    1  A    between atoms: O_2  and  C_3 
REMARK    2  A    between atoms: C_4  and  N_5 
REMARK    3  A    between atoms: N_5  and  C_6 
REMARK    4  A    between atoms: C_8  and  N_9 
REMARK    5  A    between atoms: C_11  and  C_12 
REMARK    6  A    between atoms: C_12  and  N_13 
REMARK    7  A    between atoms: N_17  and  C_18 
ROOT
HETATM    1  C   UNL     1     -42.873  60.541 -54.294  1.00  0.00     0.731 A 
HETATM    2  N   UNL     1     -44.182  60.695 -54.454  1.00  0.00    -0.031 NA
HETATM    3  C   UNL     1     -44.916  60.732 -53.356  1.00  0.00     0.219 A 
HETATM    4  N   UNL     1     -44.451  60.553 -52.126  1.00  0.00    -0.200 NA
HETATM    5  C   UNL     1     -43.132  60.364 -52.063  1.00  0.00     0.174 A 
HETATM    6  N   UNL     1     -42.310  60.349 -53.102  1.00  0.00    -0.045 NA
ENDROOT
BRANCH   5   7
HETATM    7  C   UNL     1     -42.587  59.873 -50.736  1.00  0.00     0.316 C 
BRANCH   7   8
HETATM    8  N   UNL     1     -42.460  58.339 -50.667  1.00  0.00    -0.061 N 
HETATM    9  H   UNL     1     -42.889  58.109 -49.755  1.00  0.00     0.280 HD
HETATM   10  C   UNL     1     -43.284  57.630 -51.736  1.00  0.00     0.255 C 
HETATM   11  C   UNL     1     -43.216  56.098 -51.524  1.00  0.00     0.152 C 
HETATM   12  N   UNL     1     -41.820  55.609 -51.458  1.00  0.00    -0.364 N 
HETATM   13  C   UNL     1     -40.928  56.344 -50.528  1.00  0.00     0.152 C 
HETATM   14  C   UNL     1     -41.016  57.882 -50.683  1.00  0.00     0.255 C 
BRANCH  12  15
HETATM   15  C   UNL     1     -41.308  54.969 -52.568  1.00  0.00     0.102 A 
HETATM   16  N   UNL     1     -40.964  55.731 -53.622  1.00  0.00    -0.352 N 
HETATM   17  H   UNL     1     -41.150  56.729 -53.555  1.00  0.00     0.166 HD
HETATM   18  C   UNL     1     -40.465  55.245 -54.769  1.00  0.00     0.089 A 
HETATM   19  C   UNL     1     -40.277  53.880 -54.915  1.00  0.00     0.017 A 
HETATM   20  C   UNL     1     -40.631  53.041 -53.867  1.00  0.00     0.005 A 
HETATM   21  C   UNL     1     -41.157  53.584 -52.694  1.00  0.00     0.048 A 
ENDBRANCH  12  15
ENDBRANCH   7   8
ENDBRANCH   5   7
BRANCH   3  22
HETATM   22  N   UNL     1     -46.275  60.911 -53.499  1.00  0.00    -0.270 NA
HETATM   23  H   UNL     1     -46.769  60.096 -53.147  1.00  0.00     0.127 HD
HETATM   24  H   UNL     1     -46.529  61.179 -54.441  1.00  0.00     0.127 HD
ENDBRANCH   3  22
BRANCH   1  25
HETATM   25  N   UNL     1     -42.097  60.476 -55.439  1.00  0.00    -0.185 N 
HETATM   26  H   UNL     1     -41.280  61.075 -55.410  1.00  0.00     0.184 HD
BRANCH  25  27
HETATM   27  C   UNL     1     -42.152  59.639 -56.570  1.00  0.00     0.084 A 
HETATM   28  C   UNL     1     -41.970  60.207 -57.852  1.00  0.00     0.095 A 
HETATM   29  C   UNL     1     -42.027  59.401 -58.995  1.00  0.00     0.041 A 
HETATM   30  C   UNL     1     -42.298  58.037 -58.877  1.00  0.00     0.026 A 
HETATM   31  C   UNL     1     -42.512  57.481 -57.621  1.00  0.00     0.036 A 
HETATM   32  C   UNL     1     -42.447  58.273 -56.475  1.00  0.00     0.056 A 
HETATM   33 CL   UNL     1     -42.861  55.803 -57.470  1.00  0.00    -0.084 Cl
BRANCH  28  34
HETATM   34  O   UNL     1     -41.733  61.562 -57.865  1.00  0.00    -0.354 OA
HETATM   35  C   UNL     1     -40.533  61.991 -58.501  1.00  0.00     0.210 C 
ENDBRANCH  28  34
ENDBRANCH  25  27
ENDBRANCH   1  25
TORSDOF 7
ENDMDL
