MODEL 1
REMARK VINA RESULT:      -8.4      0.000      0.000
REMARK  7 active torsions:
REMARK  status: ('A' for Active; 'I' for Inactive)
REMARK    1  A    between atoms: C_3  and  C_4 
REMARK       I    between atoms: C_4  and  N_5 
REMARK    2  A    between atoms: N_5  and  C_6 
REMARK    3  A    between atoms: C_6  and  C_7 
REMARK    4  A    between atoms: C_7  and  O_8 
REMARK    5  A    between atoms: C_7  and  C_9 
REMARK    6  A    between atoms: C_18  and  N_19 
REMARK       I    between atoms: N_19  and  C_20 
REMARK    7  A    between atoms: C_20  and  C_21 
ROOT
HETATM    1  C   UNL     1     -44.415  58.016 -52.381  1.00  0.00     0.050 C 
HETATM    2  C   UNL     1     -43.916  56.904 -53.247  1.00  0.00    -0.037 A 
HETATM    3  C   UNL     1     -43.962  56.889 -54.636  1.00  0.00     0.080 A 
HETATM    4  S   UNL     1     -43.317  55.427 -55.261  1.00  0.00    -0.066 SA
HETATM    5  C   UNL     1     -42.908  54.843 -53.731  1.00  0.00     0.078 A 
HETATM    6  C   UNL     1     -43.300  55.710 -52.736  1.00  0.00     0.045 A 
ENDROOT
BRANCH   3   7
HETATM    7  C   UNL     1     -44.431  57.940 -55.537  1.00  0.00     0.259 C 
HETATM    8  N   UNL     1     -45.611  57.673 -56.192  1.00  0.00    -0.354 N 
HETATM    9  H   UNL     1     -46.156  56.877 -55.881  1.00  0.00     0.162 HD
HETATM   10  O   UNL     1     -43.831  58.998 -55.715  1.00  0.00    -0.267 OA
BRANCH   8  11
HETATM   11  C   UNL     1     -46.208  58.586 -57.148  1.00  0.00     0.159 C 
BRANCH  11  12
HETATM   12  C   UNL     1     -46.176  58.053 -58.594  1.00  0.00     0.169 C 
BRANCH  12  13
HETATM   13  O   UNL     1     -47.021  56.901 -58.697  1.00  0.00    -0.389 OA
HETATM   14  H   UNL     1     -46.498  56.141 -58.386  1.00  0.00     0.210 HD
ENDBRANCH  12  13
BRANCH  12  15
HETATM   15  C   UNL     1     -44.777  57.733 -59.094  1.00  0.00    -0.028 A 
HETATM   16  C   UNL     1     -43.870  58.776 -59.347  1.00  0.00     0.013 A 
HETATM   17  C   UNL     1     -42.575  58.498 -59.792  1.00  0.00     0.043 A 
HETATM   18  C   UNL     1     -42.180  57.180 -59.980  1.00  0.00     0.116 A 
HETATM   19  F   UNL     1     -40.938  56.917 -60.407  1.00  0.00    -0.206 F 
HETATM   20  C   UNL     1     -43.054  56.131 -59.729  1.00  0.00     0.043 A 
HETATM   21  C   UNL     1     -44.349  56.406 -59.287  1.00  0.00     0.013 A 
ENDBRANCH  12  15
ENDBRANCH  11  12
ENDBRANCH   8  11
ENDBRANCH   3   7
BRANCH   5  22
HETATM   22  N   UNL     1     -42.223  53.656 -53.544  1.00  0.00    -0.317 N 
HETATM   23  C   UNL     1     -40.896  53.408 -53.836  1.00  0.00     0.258 C 
HETATM   24  O   UNL     1     -40.119  54.162 -54.413  1.00  0.00    -0.267 OA
HETATM   25  H   UNL     1     -42.771  52.900 -53.150  1.00  0.00     0.169 HD
BRANCH  23  26
HETATM   26  C   UNL     1     -40.347  52.104 -53.346  1.00  0.00     0.054 A 
HETATM   27  C   UNL     1     -39.900  51.839 -52.043  1.00  0.00     0.049 A 
HETATM   28 CL   UNL     1     -39.982  52.981 -50.747  1.00  0.00    -0.083 Cl
HETATM   29  C   UNL     1     -39.373  50.578 -51.724  1.00  0.00     0.025 A 
HETATM   30  C   UNL     1     -39.296  49.574 -52.689  1.00  0.00     0.002 A 
HETATM   31  C   UNL     1     -39.753  49.818 -53.979  1.00  0.00     0.001 A 
HETATM   32  C   UNL     1     -40.276  51.072 -54.303  1.00  0.00     0.019 A 
ENDBRANCH  23  26
ENDBRANCH   5  22
TORSDOF 7
ENDMDL
MODEL 2
REMARK VINA RESULT:      -8.4      1.666      1.956
REMARK  7 active torsions:
REMARK  status: ('A' for Active; 'I' for Inactive)
REMARK    1  A    between atoms: C_3  and  C_4 
REMARK       I    between atoms: C_4  and  N_5 
REMARK    2  A    between atoms: N_5  and  C_6 
REMARK    3  A    between atoms: C_6  and  C_7 
REMARK    4  A    between atoms: C_7  and  O_8 
REMARK    5  A    between atoms: C_7  and  C_9 
REMARK    6  A    between atoms: C_18  and  N_19 
REMARK       I    between atoms: N_19  and  C_20 
REMARK    7  A    between atoms: C_20  and  C_21 
ROOT
HETATM    1  C   UNL     1     -41.374  59.266 -53.830  1.00  0.00     0.050 C 
HETATM    2  C   UNL     1     -41.967  57.898 -53.947  1.00  0.00    -0.037 A 
HETATM    3  C   UNL     1     -43.202  57.607 -54.514  1.00  0.00     0.080 A 
HETATM    4  S   UNL     1     -43.539  55.926 -54.434  1.00  0.00    -0.066 SA
HETATM    5  C   UNL     1     -42.047  55.565 -53.732  1.00  0.00     0.078 A 
HETATM    6  C   UNL     1     -41.307  56.702 -53.499  1.00  0.00     0.045 A 
ENDROOT
BRANCH   3   7
HETATM    7  C   UNL     1     -44.141  58.524 -55.157  1.00  0.00     0.259 C 
HETATM    8  N   UNL     1     -44.372  58.291 -56.494  1.00  0.00    -0.354 N 
HETATM    9  H   UNL     1     -44.035  57.420 -56.888  1.00  0.00     0.162 HD
HETATM   10  O   UNL     1     -44.698  59.448 -54.568  1.00  0.00    -0.267 OA
BRANCH   8  11
HETATM   11  C   UNL     1     -45.246  59.120 -57.300  1.00  0.00     0.159 C 
BRANCH  11  12
HETATM   12  C   UNL     1     -46.437  58.342 -57.894  1.00  0.00     0.169 C 
BRANCH  12  13
HETATM   13  O   UNL     1     -47.119  57.642 -56.848  1.00  0.00    -0.389 OA
HETATM   14  H   UNL     1     -46.528  56.925 -56.559  1.00  0.00     0.210 HD
ENDBRANCH  12  13
BRANCH  12  15
HETATM   15  C   UNL     1     -46.045  57.386 -59.008  1.00  0.00    -0.028 A 
HETATM   16  C   UNL     1     -44.688  57.122 -59.257  1.00  0.00     0.013 A 
HETATM   17  C   UNL     1     -44.311  56.233 -60.267  1.00  0.00     0.043 A 
HETATM   18  C   UNL     1     -45.287  55.600 -61.025  1.00  0.00     0.116 A 
HETATM   19  F   UNL     1     -44.922  54.748 -61.993  1.00  0.00    -0.206 F 
HETATM   20  C   UNL     1     -46.635  55.836 -60.793  1.00  0.00     0.043 A 
HETATM   21  C   UNL     1     -47.014  56.726 -59.787  1.00  0.00     0.013 A 
ENDBRANCH  12  15
ENDBRANCH  11  12
ENDBRANCH   8  11
ENDBRANCH   3   7
BRANCH   5  22
HETATM   22  N   UNL     1     -41.637  54.269 -53.478  1.00  0.00    -0.317 N 
HETATM   23  C   UNL     1     -40.595  53.594 -54.084  1.00  0.00     0.258 C 
HETATM   24  O   UNL     1     -39.920  53.985 -55.031  1.00  0.00    -0.267 OA
HETATM   25  H   UNL     1     -42.169  53.779 -52.768  1.00  0.00     0.169 HD
BRANCH  23  26
HETATM   26  C   UNL     1     -40.228  52.273 -53.482  1.00  0.00     0.054 A 
HETATM   27  C   UNL     1     -39.822  52.059 -52.156  1.00  0.00     0.049 A 
HETATM   28 CL   UNL     1     -39.750  53.306 -50.960  1.00  0.00    -0.083 Cl
HETATM   29  C   UNL     1     -39.470  50.771 -51.727  1.00  0.00     0.025 A 
HETATM   30  C   UNL     1     -39.529  49.688 -52.605  1.00  0.00     0.002 A 
HETATM   31  C   UNL     1     -39.948  49.883 -53.916  1.00  0.00     0.001 A 
HETATM   32  C   UNL     1     -40.296  51.164 -54.349  1.00  0.00     0.019 A 
ENDBRANCH  23  26
ENDBRANCH   5  22
TORSDOF 7
ENDMDL
MODEL 3
REMARK VINA RESULT:      -8.0      1.704      2.189
REMARK  7 active torsions:
REMARK  status: ('A' for Active; 'I' for Inactive)
REMARK    1  A    between atoms: C_3  and  C_4 
REMARK       I    between atoms: C_4  and  N_5 
REMARK    2  A    between atoms: N_5  and  C_6 
REMARK    3  A    between atoms: C_6  and  C_7 
REMARK    4  A    between atoms: C_7  and  O_8 
REMARK    5  A    between atoms: C_7  and  C_9 
REMARK    6  A    between atoms: C_18  and  N_19 
REMARK       I    between atoms: N_19  and  C_20 
REMARK    7  A    between atoms: C_20  and  C_21 
ROOT
HETATM    1  C   UNL     1     -44.196  58.343 -53.323  1.00  0.00     0.050 C 
HETATM    2  C   UNL     1     -43.672  57.156 -54.067  1.00  0.00    -0.037 A 
HETATM    3  C   UNL     1     -43.594  57.049 -55.451  1.00  0.00     0.080 A 
HETATM    4  S   UNL     1     -42.961  55.524 -55.919  1.00  0.00    -0.066 SA
HETATM    5  C   UNL     1     -42.717  55.030 -54.323  1.00  0.00     0.078 A 
HETATM    6  C   UNL     1     -43.157  55.976 -53.426  1.00  0.00     0.045 A 
ENDROOT
BRANCH   3   7
HETATM    7  C   UNL     1     -43.933  58.054 -56.456  1.00  0.00     0.259 C 
HETATM    8  N   UNL     1     -42.890  58.469 -57.252  1.00  0.00    -0.354 N 
HETATM    9  H   UNL     1     -42.029  57.938 -57.219  1.00  0.00     0.162 HD
HETATM   10  O   UNL     1     -45.064  58.515 -56.600  1.00  0.00    -0.267 OA
BRANCH   8  11
HETATM   11  C   UNL     1     -43.036  59.483 -58.279  1.00  0.00     0.159 C 
BRANCH  11  12
HETATM   12  C   UNL     1     -43.037  58.901 -59.707  1.00  0.00     0.169 C 
BRANCH  12  13
HETATM   13  O   UNL     1     -43.641  59.839 -60.604  1.00  0.00    -0.389 OA
HETATM   14  H   UNL     1     -42.964  60.075 -61.261  1.00  0.00     0.210 HD
ENDBRANCH  12  13
BRANCH  12  15
HETATM   15  C   UNL     1     -43.720  57.548 -59.812  1.00  0.00    -0.028 A 
HETATM   16  C   UNL     1     -42.957  56.371 -59.720  1.00  0.00     0.013 A 
HETATM   17  C   UNL     1     -43.571  55.119 -59.799  1.00  0.00     0.043 A 
HETATM   18  C   UNL     1     -44.948  55.037 -59.964  1.00  0.00     0.116 A 
HETATM   19  F   UNL     1     -45.533  53.835 -60.040  1.00  0.00    -0.206 F 
HETATM   20  C   UNL     1     -45.725  56.184 -60.050  1.00  0.00     0.043 A 
HETATM   21  C   UNL     1     -45.113  57.436 -59.973  1.00  0.00     0.013 A 
ENDBRANCH  12  15
ENDBRANCH  11  12
ENDBRANCH   8  11
ENDBRANCH   3   7
BRANCH   5  22
HETATM   22  N   UNL     1     -42.105  53.833 -53.999  1.00  0.00    -0.317 N 
HETATM   23  C   UNL     1     -40.778  53.501 -54.187  1.00  0.00     0.258 C 
HETATM   24  O   UNL     1     -39.931  54.168 -54.774  1.00  0.00    -0.267 OA
HETATM   25  H   UNL     1     -42.712  53.138 -53.580  1.00  0.00     0.169 HD
BRANCH  23  26
HETATM   26  C   UNL     1     -40.324  52.219 -53.560  1.00  0.00     0.054 A 
HETATM   27  C   UNL     1     -39.895  52.060 -52.234  1.00  0.00     0.049 A 
HETATM   28 CL   UNL     1     -39.890  53.335 -51.065  1.00  0.00    -0.083 Cl
HETATM   29  C   UNL     1     -39.461  50.805 -51.781  1.00  0.00     0.025 A 
HETATM   30  C   UNL     1     -39.461  49.702 -52.635  1.00  0.00     0.002 A 
HETATM   31  C   UNL     1     -39.901  49.842 -53.946  1.00  0.00     0.001 A 
HETATM   32  C   UNL     1     -40.331  51.090 -54.403  1.00  0.00     0.019 A 
ENDBRANCH  23  26
ENDBRANCH   5  22
TORSDOF 7
ENDMDL
MODEL 4
REMARK VINA RESULT:      -7.9      4.515      9.960
REMARK  7 active torsions:
REMARK  status: ('A' for Active; 'I' for Inactive)
REMARK    1  A    between atoms: C_3  and  C_4 
REMARK       I    between atoms: C_4  and  N_5 
REMARK    2  A    between atoms: N_5  and  C_6 
REMARK    3  A    between atoms: C_6  and  C_7 
REMARK    4  A    between atoms: C_7  and  O_8 
REMARK    5  A    between atoms: C_7  and  C_9 
REMARK    6  A    between atoms: C_18  and  N_19 
REMARK       I    between atoms: N_19  and  C_20 
REMARK    7  A    between atoms: C_20  and  C_21 
ROOT
HETATM    1  C   UNL     1     -43.852  55.122 -59.474  1.00  0.00     0.050 C 
HETATM    2  C   UNL     1     -43.224  56.454 -59.217  1.00  0.00    -0.037 A 
HETATM    3  C   UNL     1     -42.875  56.946 -57.964  1.00  0.00     0.080 A 
HETATM    4  S   UNL     1     -42.204  58.521 -58.082  1.00  0.00    -0.066 SA
HETATM    5  C   UNL     1     -42.297  58.536 -59.768  1.00  0.00     0.078 A 
HETATM    6  C   UNL     1     -42.880  57.388 -60.254  1.00  0.00     0.045 A 
ENDROOT
BRANCH   3   7
HETATM    7  C   UNL     1     -42.979  56.277 -56.669  1.00  0.00     0.259 C 
HETATM    8  N   UNL     1     -42.214  55.142 -56.527  1.00  0.00    -0.354 N 
HETATM    9  H   UNL     1     -41.511  54.953 -57.232  1.00  0.00     0.162 HD
HETATM   10  O   UNL     1     -43.695  56.679 -55.753  1.00  0.00    -0.267 OA
BRANCH   8  11
HETATM   11  C   UNL     1     -42.218  54.333 -55.323  1.00  0.00     0.159 C 
BRANCH  11  12
HETATM   12  C   UNL     1     -41.056  54.668 -54.366  1.00  0.00     0.169 C 
BRANCH  12  13
HETATM   13  O   UNL     1     -39.987  55.270 -55.105  1.00  0.00    -0.389 OA
HETATM   14  H   UNL     1     -40.383  55.977 -55.644  1.00  0.00     0.210 HD
ENDBRANCH  12  13
BRANCH  12  15
HETATM   15  C   UNL     1     -40.551  53.471 -53.579  1.00  0.00    -0.028 A 
HETATM   16  C   UNL     1     -40.177  52.297 -54.255  1.00  0.00     0.013 A 
HETATM   17  C   UNL     1     -39.695  51.194 -53.547  1.00  0.00     0.043 A 
HETATM   18  C   UNL     1     -39.580  51.260 -52.164  1.00  0.00     0.116 A 
HETATM   19  F   UNL     1     -39.118  50.199 -51.489  1.00  0.00    -0.206 F 
HETATM   20  C   UNL     1     -39.933  52.411 -51.474  1.00  0.00     0.043 A 
HETATM   21  C   UNL     1     -40.417  53.514 -52.178  1.00  0.00     0.013 A 
ENDBRANCH  12  15
ENDBRANCH  11  12
ENDBRANCH   8  11
ENDBRANCH   3   7
BRANCH   5  22
HETATM   22  N   UNL     1     -41.796  59.573 -60.533  1.00  0.00    -0.317 N 
HETATM   23  C   UNL     1     -42.156  60.905 -60.465  1.00  0.00     0.258 C 
HETATM   24  O   UNL     1     -43.063  61.386 -59.792  1.00  0.00    -0.267 OA
HETATM   25  H   UNL     1     -41.089  59.308 -61.209  1.00  0.00     0.169 HD
BRANCH  23  26
HETATM   26  C   UNL     1     -41.315  61.857 -61.257  1.00  0.00     0.054 A 
HETATM   27  C   UNL     1     -40.247  62.619 -60.760  1.00  0.00     0.049 A 
HETATM   28 CL   UNL     1     -39.674  62.523 -59.131  1.00  0.00    -0.083 Cl
HETATM   29  C   UNL     1     -39.560  63.502 -61.606  1.00  0.00     0.025 A 
HETATM   30  C   UNL     1     -39.921  63.627 -62.948  1.00  0.00     0.002 A 
HETATM   31  C   UNL     1     -40.965  62.864 -63.457  1.00  0.00     0.001 A 
HETATM   32  C   UNL     1     -41.654  61.985 -62.619  1.00  0.00     0.019 A 
ENDBRANCH  23  26
ENDBRANCH   5  22
TORSDOF 7
ENDMDL
MODEL 5
REMARK VINA RESULT:      -7.9      2.838      3.599
REMARK  7 active torsions:
REMARK  status: ('A' for Active; 'I' for Inactive)
REMARK    1  A    between atoms: C_3  and  C_4 
REMARK       I    between atoms: C_4  and  N_5 
REMARK    2  A    between atoms: N_5  and  C_6 
REMARK    3  A    between atoms: C_6  and  C_7 
REMARK    4  A    between atoms: C_7  and  O_8 
REMARK    5  A    between atoms: C_7  and  C_9 
REMARK    6  A    between atoms: C_18  and  N_19 
REMARK       I    between atoms: N_19  and  C_20 
REMARK    7  A    between atoms: C_20  and  C_21 
ROOT
HETATM    1  C   UNL     1     -44.739  57.931 -54.468  1.00  0.00     0.050 C 
HETATM    2  C   UNL     1     -43.938  56.792 -55.011  1.00  0.00    -0.037 A 
HETATM    3  C   UNL     1     -43.511  56.670 -56.328  1.00  0.00     0.080 A 
HETATM    4  S   UNL     1     -42.640  55.210 -56.565  1.00  0.00    -0.066 SA
HETATM    5  C   UNL     1     -42.751  54.771 -54.938  1.00  0.00     0.078 A 
HETATM    6  C   UNL     1     -43.487  55.682 -54.216  1.00  0.00     0.045 A 
ENDROOT
BRANCH   3   7
HETATM    7  C   UNL     1     -43.687  57.618 -57.427  1.00  0.00     0.259 C 
HETATM    8  N   UNL     1     -42.552  58.298 -57.807  1.00  0.00    -0.354 N 
HETATM    9  H   UNL     1     -41.663  57.977 -57.442  1.00  0.00     0.162 HD
HETATM   10  O   UNL     1     -44.763  57.813 -57.989  1.00  0.00    -0.267 OA
BRANCH   8  11
HETATM   11  C   UNL     1     -42.547  59.300 -58.855  1.00  0.00     0.159 C 
BRANCH  11  12
HETATM   12  C   UNL     1     -42.295  60.726 -58.326  1.00  0.00     0.169 C 
BRANCH  12  13
HETATM   13  O   UNL     1     -43.547  61.393 -58.136  1.00  0.00    -0.389 OA
HETATM   14  H   UNL     1     -44.237  60.706 -58.155  1.00  0.00     0.210 HD
ENDBRANCH  12  13
BRANCH  12  15
HETATM   15  C   UNL     1     -41.381  61.553 -59.216  1.00  0.00    -0.028 A 
HETATM   16  C   UNL     1     -40.296  62.246 -58.651  1.00  0.00     0.013 A 
HETATM   17  C   UNL     1     -39.438  62.997 -59.457  1.00  0.00     0.043 A 
HETATM   18  C   UNL     1     -39.655  63.055 -60.828  1.00  0.00     0.116 A 
HETATM   19  F   UNL     1     -38.830  63.777 -61.598  1.00  0.00    -0.206 F 
HETATM   20  C   UNL     1     -40.714  62.372 -61.411  1.00  0.00     0.043 A 
HETATM   21  C   UNL     1     -41.575  61.623 -60.608  1.00  0.00     0.013 A 
ENDBRANCH  12  15
ENDBRANCH  11  12
ENDBRANCH   8  11
ENDBRANCH   3   7
BRANCH   5  22
HETATM   22  N   UNL     1     -42.127  53.648 -54.425  1.00  0.00    -0.317 N 
HETATM   23  C   UNL     1     -40.779  53.350 -54.478  1.00  0.00     0.258 C 
HETATM   24  O   UNL     1     -39.914  53.973 -55.085  1.00  0.00    -0.267 OA
HETATM   25  H   UNL     1     -42.741  52.986 -53.965  1.00  0.00     0.169 HD
BRANCH  23  26
HETATM   26  C   UNL     1     -40.333  52.174 -53.666  1.00  0.00     0.054 A 
HETATM   27  C   UNL     1     -39.993  52.198 -52.305  1.00  0.00     0.049 A 
HETATM   28 CL   UNL     1     -40.111  53.607 -51.309  1.00  0.00    -0.083 Cl
HETATM   29  C   UNL     1     -39.555  51.026 -51.669  1.00  0.00     0.025 A 
HETATM   30  C   UNL     1     -39.460  49.827 -52.375  1.00  0.00     0.002 A 
HETATM   31  C   UNL     1     -39.810  49.787 -53.720  1.00  0.00     0.001 A 
HETATM   32  C   UNL     1     -40.245  50.950 -54.358  1.00  0.00     0.019 A 
ENDBRANCH  23  26
ENDBRANCH   5  22
TORSDOF 7
ENDMDL
MODEL 6
REMARK VINA RESULT:      -7.8      4.927      7.693
REMARK  7 active torsions:
REMARK  status: ('A' for Active; 'I' for Inactive)
REMARK    1  A    between atoms: C_3  and  C_4 
REMARK       I    between atoms: C_4  and  N_5 
REMARK    2  A    between atoms: N_5  and  C_6 
REMARK    3  A    between atoms: C_6  and  C_7 
REMARK    4  A    between atoms: C_7  and  O_8 
REMARK    5  A    between atoms: C_7  and  C_9 
REMARK    6  A    between atoms: C_18  and  N_19 
REMARK       I    between atoms: N_19  and  C_20 
REMARK    7  A    between atoms: C_20  and  C_21 
ROOT
HETATM    1  C   UNL     1     -45.095  57.882 -54.669  1.00  0.00     0.050 C 
HETATM    2  C   UNL     1     -43.998  57.223 -53.896  1.00  0.00    -0.037 A 
HETATM    3  C   UNL     1     -43.260  57.824 -52.882  1.00  0.00     0.080 A 
HETATM    4  S   UNL     1     -42.076  56.750 -52.258  1.00  0.00    -0.066 SA
HETATM    5  C   UNL     1     -42.570  55.478 -53.251  1.00  0.00     0.078 A 
HETATM    6  C   UNL     1     -43.587  55.860 -54.097  1.00  0.00     0.045 A 
ENDROOT
BRANCH   3   7
HETATM    7  C   UNL     1     -43.421  59.163 -52.319  1.00  0.00     0.259 C 
HETATM    8  N   UNL     1     -43.379  59.235 -50.946  1.00  0.00    -0.354 N 
HETATM    9  H   UNL     1     -43.065  58.417 -50.438  1.00  0.00     0.162 HD
HETATM   10  O   UNL     1     -43.584  60.172 -53.004  1.00  0.00    -0.267 OA
BRANCH   8  11
HETATM   11  C   UNL     1     -43.554  60.475 -50.215  1.00  0.00     0.159 C 
BRANCH  11  12
HETATM   12  C   UNL     1     -45.021  60.743 -49.820  1.00  0.00     0.169 C 
BRANCH  12  13
HETATM   13  O   UNL     1     -45.657  61.513 -50.846  1.00  0.00    -0.389 OA
HETATM   14  H   UNL     1     -46.616  61.455 -50.686  1.00  0.00     0.210 HD
ENDBRANCH  12  13
BRANCH  12  15
HETATM   15  C   UNL     1     -45.174  61.423 -48.470  1.00  0.00    -0.028 A 
HETATM   16  C   UNL     1     -45.485  60.658 -47.333  1.00  0.00     0.013 A 
HETATM   17  C   UNL     1     -45.613  61.266 -46.083  1.00  0.00     0.043 A 
HETATM   18  C   UNL     1     -45.426  62.637 -45.961  1.00  0.00     0.116 A 
HETATM   19  F   UNL     1     -45.551  63.217 -44.760  1.00  0.00    -0.206 F 
HETATM   20  C   UNL     1     -45.109  63.414 -47.067  1.00  0.00     0.043 A 
HETATM   21  C   UNL     1     -44.983  62.810 -48.318  1.00  0.00     0.013 A 
ENDBRANCH  12  15
ENDBRANCH  11  12
ENDBRANCH   8  11
ENDBRANCH   3   7
BRANCH   5  22
HETATM   22  N   UNL     1     -42.026  54.210 -53.164  1.00  0.00    -0.317 N 
HETATM   23  C   UNL     1     -40.861  53.763 -53.757  1.00  0.00     0.258 C 
HETATM   24  O   UNL     1     -40.162  54.379 -54.555  1.00  0.00    -0.267 OA
HETATM   25  H   UNL     1     -42.553  53.552 -52.600  1.00  0.00     0.169 HD
BRANCH  23  26
HETATM   26  C   UNL     1     -40.386  52.407 -53.335  1.00  0.00     0.054 A 
HETATM   27  C   UNL     1     -39.933  52.057 -52.054  1.00  0.00     0.049 A 
HETATM   28 CL   UNL     1     -39.920  53.143 -50.709  1.00  0.00    -0.083 Cl
HETATM   29  C   UNL     1     -39.481  50.753 -51.801  1.00  0.00     0.025 A 
HETATM   30  C   UNL     1     -39.484  49.790 -52.810  1.00  0.00     0.002 A 
HETATM   31  C   UNL     1     -39.948  50.119 -54.079  1.00  0.00     0.001 A 
HETATM   32  C   UNL     1     -40.397  51.416 -54.338  1.00  0.00     0.019 A 
ENDBRANCH  23  26
ENDBRANCH   5  22
TORSDOF 7
ENDMDL
MODEL 7
REMARK VINA RESULT:      -7.7      5.274      9.100
REMARK  7 active torsions:
REMARK  status: ('A' for Active; 'I' for Inactive)
REMARK    1  A    between atoms: C_3  and  C_4 
REMARK       I    between atoms: C_4  and  N_5 
REMARK    2  A    between atoms: N_5  and  C_6 
REMARK    3  A    between atoms: C_6  and  C_7 
REMARK    4  A    between atoms: C_7  and  O_8 
REMARK    5  A    between atoms: C_7  and  C_9 
REMARK    6  A    between atoms: C_18  and  N_19 
REMARK       I    between atoms: N_19  and  C_20 
REMARK    7  A    between atoms: C_20  and  C_21 
ROOT
HETATM    1  C   UNL     1     -40.313  58.936 -51.256  1.00  0.00     0.050 C 
HETATM    2  C   UNL     1     -41.616  59.656 -51.390  1.00  0.00    -0.037 A 
HETATM    3  C   UNL     1     -42.378  59.725 -52.551  1.00  0.00     0.080 A 
HETATM    4  S   UNL     1     -43.793  60.666 -52.309  1.00  0.00    -0.066 SA
HETATM    5  C   UNL     1     -43.456  60.922 -50.675  1.00  0.00     0.078 A 
HETATM    6  C   UNL     1     -42.257  60.355 -50.308  1.00  0.00     0.045 A 
ENDROOT
BRANCH   3   7
HETATM    7  C   UNL     1     -42.123  59.083 -53.839  1.00  0.00     0.259 C 
HETATM    8  N   UNL     1     -42.898  57.979 -54.112  1.00  0.00    -0.354 N 
HETATM    9  H   UNL     1     -43.694  57.799 -53.512  1.00  0.00     0.162 HD
HETATM   10  O   UNL     1     -41.279  59.480 -54.639  1.00  0.00    -0.267 OA
BRANCH   8  11
HETATM   11  C   UNL     1     -42.759  57.198 -55.326  1.00  0.00     0.159 C 
BRANCH  11  12
HETATM   12  C   UNL     1     -43.273  55.752 -55.176  1.00  0.00     0.169 C 
BRANCH  12  13
HETATM   13  O   UNL     1     -44.500  55.756 -54.439  1.00  0.00    -0.389 OA
HETATM   14  H   UNL     1     -45.172  56.163 -55.013  1.00  0.00     0.210 HD
ENDBRANCH  12  13
BRANCH  12  15
HETATM   15  C   UNL     1     -42.268  54.812 -54.533  1.00  0.00    -0.028 A 
HETATM   16  C   UNL     1     -42.448  54.403 -53.200  1.00  0.00     0.013 A 
HETATM   17  C   UNL     1     -41.542  53.527 -52.599  1.00  0.00     0.043 A 
HETATM   18  C   UNL     1     -40.458  53.051 -53.326  1.00  0.00     0.116 A 
HETATM   19  F   UNL     1     -39.591  52.211 -52.746  1.00  0.00    -0.206 F 
HETATM   20  C   UNL     1     -40.263  53.433 -54.646  1.00  0.00     0.043 A 
HETATM   21  C   UNL     1     -41.165  54.310 -55.249  1.00  0.00     0.013 A 
ENDBRANCH  12  15
ENDBRANCH  11  12
ENDBRANCH   8  11
ENDBRANCH   3   7
BRANCH   5  22
HETATM   22  N   UNL     1     -44.326  61.588 -49.830  1.00  0.00    -0.317 N 
HETATM   23  C   UNL     1     -45.405  61.049 -49.158  1.00  0.00     0.258 C 
HETATM   24  O   UNL     1     -45.850  59.912 -49.277  1.00  0.00    -0.267 OA
HETATM   25  H   UNL     1     -44.133  62.574 -49.703  1.00  0.00     0.169 HD
BRANCH  23  26
HETATM   26  C   UNL     1     -46.060  61.937 -48.145  1.00  0.00     0.054 A 
HETATM   27  C   UNL     1     -45.804  61.938 -46.766  1.00  0.00     0.049 A 
HETATM   28 CL   UNL     1     -44.610  60.941 -46.009  1.00  0.00    -0.083 Cl
HETATM   29  C   UNL     1     -46.516  62.800 -45.919  1.00  0.00     0.025 A 
HETATM   30  C   UNL     1     -47.475  63.671 -46.435  1.00  0.00     0.002 A 
HETATM   31  C   UNL     1     -47.726  63.693 -47.802  1.00  0.00     0.001 A 
HETATM   32  C   UNL     1     -47.023  62.834 -48.649  1.00  0.00     0.019 A 
ENDBRANCH  23  26
ENDBRANCH   5  22
TORSDOF 7
ENDMDL
MODEL 8
REMARK VINA RESULT:      -7.6      1.915      2.331
REMARK  7 active torsions:
REMARK  status: ('A' for Active; 'I' for Inactive)
REMARK    1  A    between atoms: C_3  and  C_4 
REMARK       I    between atoms: C_4  and  N_5 
REMARK    2  A    between atoms: N_5  and  C_6 
REMARK    3  A    between atoms: C_6  and  C_7 
REMARK    4  A    between atoms: C_7  and  O_8 
REMARK    5  A    between atoms: C_7  and  C_9 
REMARK    6  A    between atoms: C_18  and  N_19 
REMARK       I    between atoms: N_19  and  C_20 
REMARK    7  A    between atoms: C_20  and  C_21 
ROOT
HETATM    1  C   UNL     1     -44.762  57.872 -53.862  1.00  0.00     0.050 C 
HETATM    2  C   UNL     1     -44.019  56.778 -54.561  1.00  0.00    -0.037 A 
HETATM    3  C   UNL     1     -43.730  56.750 -55.921  1.00  0.00     0.080 A 
HETATM    4  S   UNL     1     -42.886  55.316 -56.344  1.00  0.00    -0.066 SA
HETATM    5  C   UNL     1     -42.829  54.767 -54.749  1.00  0.00     0.078 A 
HETATM    6  C   UNL     1     -43.488  55.621 -53.894  1.00  0.00     0.045 A 
ENDROOT
BRANCH   3   7
HETATM    7  C   UNL     1     -44.018  57.768 -56.929  1.00  0.00     0.259 C 
HETATM    8  N   UNL     1     -44.974  57.425 -57.858  1.00  0.00    -0.354 N 
HETATM    9  H   UNL     1     -45.530  56.597 -57.682  1.00  0.00     0.162 HD
HETATM   10  O   UNL     1     -43.459  58.862 -56.967  1.00  0.00    -0.267 OA
BRANCH   8  11
HETATM   11  C   UNL     1     -45.363  58.298 -58.949  1.00  0.00     0.159 C 
BRANCH  11  12
HETATM   12  C   UNL     1     -44.587  58.018 -60.252  1.00  0.00     0.169 C 
BRANCH  12  13
HETATM   13  O   UNL     1     -43.732  56.886 -60.064  1.00  0.00    -0.389 OA
HETATM   14  H   UNL     1     -44.307  56.133 -59.842  1.00  0.00     0.210 HD
ENDBRANCH  12  13
BRANCH  12  15
HETATM   15  C   UNL     1     -43.789  59.211 -60.753  1.00  0.00    -0.028 A 
HETATM   16  C   UNL     1     -44.458  60.325 -61.286  1.00  0.00     0.013 A 
HETATM   17  C   UNL     1     -43.740  61.436 -61.736  1.00  0.00     0.043 A 
HETATM   18  C   UNL     1     -42.354  61.440 -61.650  1.00  0.00     0.116 A 
HETATM   19  F   UNL     1     -41.669  62.506 -62.083  1.00  0.00    -0.206 F 
HETATM   20  C   UNL     1     -41.669  60.355 -61.119  1.00  0.00     0.043 A 
HETATM   21  C   UNL     1     -42.384  59.243 -60.671  1.00  0.00     0.013 A 
ENDBRANCH  12  15
ENDBRANCH  11  12
ENDBRANCH   8  11
ENDBRANCH   3   7
BRANCH   5  22
HETATM   22  N   UNL     1     -42.154  53.617 -54.380  1.00  0.00    -0.317 N 
HETATM   23  C   UNL     1     -40.788  53.461 -54.253  1.00  0.00     0.258 C 
HETATM   24  O   UNL     1     -39.925  54.281 -54.552  1.00  0.00    -0.267 OA
HETATM   25  H   UNL     1     -42.743  52.816 -54.185  1.00  0.00     0.169 HD
BRANCH  23  26
HETATM   26  C   UNL     1     -40.326  52.175 -53.640  1.00  0.00     0.054 A 
HETATM   27  C   UNL     1     -39.857  52.014 -52.327  1.00  0.00     0.049 A 
HETATM   28 CL   UNL     1     -39.805  53.290 -51.161  1.00  0.00    -0.083 Cl
HETATM   29  C   UNL     1     -39.420  50.755 -51.887  1.00  0.00     0.025 A 
HETATM   30  C   UNL     1     -39.456  49.652 -52.739  1.00  0.00     0.002 A 
HETATM   31  C   UNL     1     -39.936  49.795 -54.036  1.00  0.00     0.001 A 
HETATM   32  C   UNL     1     -40.369  51.046 -54.481  1.00  0.00     0.019 A 
ENDBRANCH  23  26
ENDBRANCH   5  22
TORSDOF 7
ENDMDL
MODEL 9
REMARK VINA RESULT:      -7.5      3.233      8.576
REMARK  7 active torsions:
REMARK  status: ('A' for Active; 'I' for Inactive)
REMARK    1  A    between atoms: C_3  and  C_4 
REMARK       I    between atoms: C_4  and  N_5 
REMARK    2  A    between atoms: N_5  and  C_6 
REMARK    3  A    between atoms: C_6  and  C_7 
REMARK    4  A    between atoms: C_7  and  O_8 
REMARK    5  A    between atoms: C_7  and  C_9 
REMARK    6  A    between atoms: C_18  and  N_19 
REMARK       I    between atoms: N_19  and  C_20 
REMARK    7  A    between atoms: C_20  and  C_21 
ROOT
HETATM    1  C   UNL     1     -40.376  58.735 -52.737  1.00  0.00     0.050 C 
HETATM    2  C   UNL     1     -41.429  57.898 -53.391  1.00  0.00    -0.037 A 
HETATM    3  C   UNL     1     -41.900  56.683 -52.908  1.00  0.00     0.080 A 
HETATM    4  S   UNL     1     -43.087  56.019 -53.954  1.00  0.00    -0.066 SA
HETATM    5  C   UNL     1     -43.046  57.346 -54.996  1.00  0.00     0.078 A 
HETATM    6  C   UNL     1     -42.106  58.271 -54.603  1.00  0.00     0.045 A 
ENDROOT
BRANCH   3   7
HETATM    7  C   UNL     1     -41.535  55.999 -51.668  1.00  0.00     0.259 C 
HETATM    8  N   UNL     1     -41.780  54.646 -51.646  1.00  0.00    -0.354 N 
HETATM    9  H   UNL     1     -42.015  54.192 -52.521  1.00  0.00     0.162 HD
HETATM   10  O   UNL     1     -41.042  56.572 -50.698  1.00  0.00    -0.267 OA
BRANCH   8  11
HETATM   11  C   UNL     1     -41.512  53.814 -50.489  1.00  0.00     0.159 C 
BRANCH  11  12
HETATM   12  C   UNL     1     -40.155  53.086 -50.569  1.00  0.00     0.169 C 
BRANCH  12  13
HETATM   13  O   UNL     1     -39.097  54.051 -50.580  1.00  0.00    -0.389 OA
HETATM   14  H   UNL     1     -38.750  54.076 -51.489  1.00  0.00     0.210 HD
ENDBRANCH  12  13
BRANCH  12  15
HETATM   15  C   UNL     1     -40.035  52.151 -51.761  1.00  0.00    -0.028 A 
HETATM   16  C   UNL     1     -39.725  50.795 -51.557  1.00  0.00     0.013 A 
HETATM   17  C   UNL     1     -39.627  49.919 -52.640  1.00  0.00     0.043 A 
HETATM   18  C   UNL     1     -39.843  50.391 -53.929  1.00  0.00     0.116 A 
HETATM   19  F   UNL     1     -39.748  49.548 -54.965  1.00  0.00    -0.206 F 
HETATM   20  C   UNL     1     -40.160  51.723 -54.156  1.00  0.00     0.043 A 
HETATM   21  C   UNL     1     -40.256  52.601 -53.076  1.00  0.00     0.013 A 
ENDBRANCH  12  15
ENDBRANCH  11  12
ENDBRANCH   8  11
ENDBRANCH   3   7
BRANCH   5  22
HETATM   22  N   UNL     1     -43.901  57.472 -56.076  1.00  0.00    -0.317 N 
HETATM   23  C   UNL     1     -43.563  57.410 -57.414  1.00  0.00     0.258 C 
HETATM   24  O   UNL     1     -42.430  57.343 -57.882  1.00  0.00    -0.267 OA
HETATM   25  H   UNL     1     -44.874  57.625 -55.841  1.00  0.00     0.169 HD
BRANCH  23  26
HETATM   26  C   UNL     1     -44.705  57.370 -58.381  1.00  0.00     0.054 A 
HETATM   27  C   UNL     1     -44.919  56.387 -59.359  1.00  0.00     0.049 A 
HETATM   28 CL   UNL     1     -43.912  54.995 -59.559  1.00  0.00    -0.083 Cl
HETATM   29  C   UNL     1     -46.016  56.486 -60.228  1.00  0.00     0.025 A 
HETATM   30  C   UNL     1     -46.910  57.552 -60.126  1.00  0.00     0.002 A 
HETATM   31  C   UNL     1     -46.720  58.523 -59.149  1.00  0.00     0.001 A 
HETATM   32  C   UNL     1     -45.628  58.430 -58.283  1.00  0.00     0.019 A 
ENDBRANCH  23  26
ENDBRANCH   5  22
TORSDOF 7
ENDMDL
MODEL 10
REMARK VINA RESULT:      -7.5     15.767     18.482
REMARK  7 active torsions:
REMARK  status: ('A' for Active; 'I' for Inactive)
REMARK    1  A    between atoms: C_3  and  C_4 
REMARK       I    between atoms: C_4  and  N_5 
REMARK    2  A    between atoms: N_5  and  C_6 
REMARK    3  A    between atoms: C_6  and  C_7 
REMARK    4  A    between atoms: C_7  and  O_8 
REMARK    5  A    between atoms: C_7  and  C_9 
REMARK    6  A    between atoms: C_18  and  N_19 
REMARK       I    between atoms: N_19  and  C_20 
REMARK    7  A    between atoms: C_20  and  C_21 
ROOT
HETATM    1  C   UNL     1     -32.032  40.197 -53.739  1.00  0.00     0.050 C 
HETATM    2  C   UNL     1     -32.657  39.999 -52.395  1.00  0.00    -0.037 A 
HETATM    3  C   UNL     1     -33.963  39.575 -52.174  1.00  0.00     0.080 A 
HETATM    4  S   UNL     1     -34.313  39.497 -50.496  1.00  0.00    -0.066 SA
HETATM    5  C   UNL     1     -32.745  39.941 -50.053  1.00  0.00     0.078 A 
HETATM    6  C   UNL     1     -31.963  40.206 -51.153  1.00  0.00     0.045 A 
ENDROOT
BRANCH   3   7
HETATM    7  C   UNL     1     -34.965  39.181 -53.162  1.00  0.00     0.259 C 
HETATM    8  N   UNL     1     -35.872  40.157 -53.505  1.00  0.00    -0.354 N 
HETATM    9  H   UNL     1     -35.683  41.106 -53.205  1.00  0.00     0.162 HD
HETATM   10  O   UNL     1     -35.017  38.060 -53.666  1.00  0.00    -0.267 OA
BRANCH   8  11
HETATM   11  C   UNL     1     -36.955  39.934 -54.444  1.00  0.00     0.159 C 
BRANCH  11  12
HETATM   12  C   UNL     1     -37.493  41.238 -55.067  1.00  0.00     0.169 C 
BRANCH  12  13
HETATM   13  O   UNL     1     -38.807  41.500 -54.564  1.00  0.00    -0.389 OA
HETATM   14  H   UNL     1     -39.280  40.649 -54.557  1.00  0.00     0.210 HD
ENDBRANCH  12  13
BRANCH  12  15
HETATM   15  C   UNL     1     -37.495  41.231 -56.586  1.00  0.00    -0.028 A 
HETATM   16  C   UNL     1     -38.273  40.287 -57.279  1.00  0.00     0.013 A 
HETATM   17  C   UNL     1     -38.299  40.278 -58.676  1.00  0.00     0.043 A 
HETATM   18  C   UNL     1     -37.555  41.213 -59.385  1.00  0.00     0.116 A 
HETATM   19  F   UNL     1     -37.582  41.200 -60.724  1.00  0.00    -0.206 F 
HETATM   20  C   UNL     1     -36.786  42.161 -58.724  1.00  0.00     0.043 A 
HETATM   21  C   UNL     1     -36.756  42.171 -57.329  1.00  0.00     0.013 A 
ENDBRANCH  12  15
ENDBRANCH  11  12
ENDBRANCH   8  11
ENDBRANCH   3   7
BRANCH   5  22
HETATM   22  N   UNL     1     -32.326  39.979 -48.736  1.00  0.00    -0.317 N 
HETATM   23  C   UNL     1     -31.727  38.957 -48.025  1.00  0.00     0.258 C 
HETATM   24  O   UNL     1     -31.562  37.801 -48.402  1.00  0.00    -0.267 OA
HETATM   25  H   UNL     1     -32.482  40.859 -48.258  1.00  0.00     0.169 HD
BRANCH  23  26
HETATM   26  C   UNL     1     -31.182  39.322 -46.679  1.00  0.00     0.054 A 
HETATM   27  C   UNL     1     -31.559  38.747 -45.456  1.00  0.00     0.049 A 
HETATM   28 CL   UNL     1     -32.688  37.445 -45.314  1.00  0.00    -0.083 Cl
HETATM   29  C   UNL     1     -30.992  39.208 -44.259  1.00  0.00     0.025 A 
HETATM   30  C   UNL     1     -30.044  40.231 -44.267  1.00  0.00     0.002 A 
HETATM   31  C   UNL     1     -29.648  40.797 -45.474  1.00  0.00     0.001 A 
HETATM   32  C   UNL     1     -30.211  40.344 -46.669  1.00  0.00     0.019 A 
ENDBRANCH  23  26
ENDBRANCH   5  22
TORSDOF 7
ENDMDL
