MODEL 1
REMARK VINA RESULT:      -8.6      0.000      0.000
REMARK  3 active torsions:
REMARK  status: ('A' for Active; 'I' for Inactive)
REMARK    1  A    between atoms: C_4  and  C_5 
REMARK    2  A    between atoms: C_11  and  C_12 
REMARK    3  A    between atoms: C_21  and  N_22 
ROOT
HETATM    1  C   UNL     1     -42.258  54.256 -52.224  1.00  0.00     0.098 C 
HETATM    2  N   UNL     1     -43.447  53.904 -51.691  1.00  0.00    -0.172 NA
HETATM    3  N   UNL     1     -44.004  55.060 -51.297  1.00  0.00    -0.256 N 
HETATM    4  H   UNL     1     -44.889  55.034 -50.804  1.00  0.00     0.191 HD
HETATM    5  C   UNL     1     -43.221  56.131 -51.558  1.00  0.00     0.175 C 
HETATM    6  C   UNL     1     -42.132  55.678 -52.264  1.00  0.00     0.036 C 
HETATM    7  C   UNL     1     -41.103  56.665 -52.720  1.00  0.00     0.077 C 
HETATM    8  C   UNL     1     -41.237  57.943 -51.848  1.00  0.00     0.076 C 
HETATM    9  C   UNL     1     -40.111  58.819 -51.804  1.00  0.00     0.100 C 
HETATM   10  N   UNL     1     -39.199  59.535 -51.797  1.00  0.00    -0.192 NA
HETATM   11  C   UNL     1     -42.360  58.233 -51.136  1.00  0.00     0.140 C 
HETATM   12  O   UNL     1     -43.458  57.357 -51.111  1.00  0.00    -0.279 OA
ENDROOT
BRANCH   7  13
HETATM   13  C   UNL     1     -41.157  57.071 -54.234  1.00  0.00     0.003 C 
HETATM   14  C   UNL     1     -41.998  58.327 -54.559  1.00  0.00     0.032 C 
HETATM   15  C   UNL     1     -43.420  58.049 -54.926  1.00  0.00    -0.030 C 
HETATM   16  C   UNL     1     -43.847  56.851 -55.341  1.00  0.00    -0.031 C 
HETATM   17  C   UNL     1     -42.954  55.663 -55.497  1.00  0.00     0.027 C 
HETATM   18  C   UNL     1     -41.475  55.920 -55.210  1.00  0.00     0.009 C 
ENDBRANCH   7  13
BRANCH  11  19
HETATM   19  N   UNL     1     -42.561  59.364 -50.377  1.00  0.00    -0.282 NA
HETATM   20  H   UNL     1     -43.032  60.133 -50.848  1.00  0.00     0.126 HD
HETATM   21  H   UNL     1     -42.957  59.149 -49.466  1.00  0.00     0.126 HD
ENDBRANCH  11  19
BRANCH   1  22
HETATM   22  C   UNL     1     -41.315  53.212 -52.632  1.00  0.00    -0.005 A 
HETATM   23  C   UNL     1     -40.356  52.743 -51.720  1.00  0.00     0.014 A 
HETATM   24  C   UNL     1     -39.456  51.739 -52.080  1.00  0.00     0.001 A 
HETATM   25  C   UNL     1     -39.495  51.199 -53.365  1.00  0.00     0.000 A 
HETATM   26  C   UNL     1     -40.424  51.673 -54.289  1.00  0.00     0.001 A 
HETATM   27  C   UNL     1     -41.325  52.679 -53.927  1.00  0.00     0.014 A 
ENDBRANCH   1  22
TORSDOF 3
ENDMDL
MODEL 2
REMARK VINA RESULT:      -8.5      1.716      2.216
REMARK  3 active torsions:
REMARK  status: ('A' for Active; 'I' for Inactive)
REMARK    1  A    between atoms: C_4  and  C_5 
REMARK    2  A    between atoms: C_11  and  C_12 
REMARK    3  A    between atoms: C_21  and  N_22 
ROOT
HETATM    1  C   UNL     1     -40.719  53.792 -51.032  1.00  0.00     0.098 C 
HETATM    2  N   UNL     1     -40.685  53.447 -49.728  1.00  0.00    -0.172 NA
HETATM    3  N   UNL     1     -40.962  54.580 -49.064  1.00  0.00    -0.256 N 
HETATM    4  H   UNL     1     -40.930  54.575 -48.052  1.00  0.00     0.191 HD
HETATM    5  C   UNL     1     -41.171  55.630 -49.891  1.00  0.00     0.175 C 
HETATM    6  C   UNL     1     -41.142  55.148 -51.178  1.00  0.00     0.036 C 
HETATM    7  C   UNL     1     -41.380  56.095 -52.312  1.00  0.00     0.077 C 
HETATM    8  C   UNL     1     -41.108  57.537 -51.805  1.00  0.00     0.076 C 
HETATM    9  C   UNL     1     -40.848  58.534 -52.792  1.00  0.00     0.100 C 
HETATM   10  N   UNL     1     -40.664  59.340 -53.606  1.00  0.00    -0.192 NA
HETATM   11  C   UNL     1     -41.096  57.862 -50.483  1.00  0.00     0.140 C 
HETATM   12  O   UNL     1     -41.285  56.889 -49.488  1.00  0.00    -0.279 OA
ENDROOT
BRANCH   7  13
HETATM   13  C   UNL     1     -42.805  56.046 -52.968  1.00  0.00     0.003 C 
HETATM   14  C   UNL     1     -43.415  54.634 -53.131  1.00  0.00     0.032 C 
HETATM   15  C   UNL     1     -43.149  53.987 -54.452  1.00  0.00    -0.030 C 
HETATM   16  C   UNL     1     -42.786  54.672 -55.542  1.00  0.00    -0.031 C 
HETATM   17  C   UNL     1     -42.620  56.157 -55.569  1.00  0.00     0.027 C 
HETATM   18  C   UNL     1     -42.960  56.872 -54.261  1.00  0.00     0.009 C 
ENDBRANCH   7  13
BRANCH  11  19
HETATM   19  N   UNL     1     -40.901  59.123 -49.966  1.00  0.00    -0.282 NA
HETATM   20  H   UNL     1     -39.931  59.402 -49.837  1.00  0.00     0.126 HD
HETATM   21  H   UNL     1     -41.460  59.825 -50.446  1.00  0.00     0.126 HD
ENDBRANCH  11  19
BRANCH   1  22
HETATM   22  C   UNL     1     -40.318  52.813 -52.046  1.00  0.00    -0.005 A 
HETATM   23  C   UNL     1     -39.929  51.522 -51.654  1.00  0.00     0.014 A 
HETATM   24  C   UNL     1     -39.556  50.567 -52.602  1.00  0.00     0.001 A 
HETATM   25  C   UNL     1     -39.555  50.897 -53.956  1.00  0.00     0.000 A 
HETATM   26  C   UNL     1     -39.913  52.182 -54.358  1.00  0.00     0.001 A 
HETATM   27  C   UNL     1     -40.286  53.138 -53.408  1.00  0.00     0.014 A 
ENDBRANCH   1  22
TORSDOF 3
ENDMDL
MODEL 3
REMARK VINA RESULT:      -8.5      2.107      2.784
REMARK  3 active torsions:
REMARK  status: ('A' for Active; 'I' for Inactive)
REMARK    1  A    between atoms: C_4  and  C_5 
REMARK    2  A    between atoms: C_11  and  C_12 
REMARK    3  A    between atoms: C_21  and  N_22 
ROOT
HETATM    1  C   UNL     1     -40.381  53.844 -51.107  1.00  0.00     0.098 C 
HETATM    2  N   UNL     1     -40.089  53.572 -49.818  1.00  0.00    -0.172 NA
HETATM    3  N   UNL     1     -40.256  54.737 -49.173  1.00  0.00    -0.256 N 
HETATM    4  H   UNL     1     -40.028  54.788 -48.187  1.00  0.00     0.191 HD
HETATM    5  C   UNL     1     -40.642  55.738 -49.997  1.00  0.00     0.175 C 
HETATM    6  C   UNL     1     -40.852  55.185 -51.238  1.00  0.00     0.036 C 
HETATM    7  C   UNL     1     -41.325  56.067 -52.352  1.00  0.00     0.077 C 
HETATM    8  C   UNL     1     -40.989  57.537 -51.983  1.00  0.00     0.076 C 
HETATM    9  C   UNL     1     -40.946  58.480 -53.053  1.00  0.00     0.100 C 
HETATM   10  N   UNL     1     -40.939  59.241 -53.928  1.00  0.00    -0.192 NA
HETATM   11  C   UNL     1     -40.728  57.934 -50.708  1.00  0.00     0.140 C 
HETATM   12  O   UNL     1     -40.701  57.015 -49.645  1.00  0.00    -0.279 OA
ENDROOT
BRANCH   7  13
HETATM   13  C   UNL     1     -42.848  55.966 -52.716  1.00  0.00     0.003 C 
HETATM   14  C   UNL     1     -43.791  56.875 -51.894  1.00  0.00     0.032 C 
HETATM   15  C   UNL     1     -44.379  56.232 -50.680  1.00  0.00    -0.030 C 
HETATM   16  C   UNL     1     -44.440  54.906 -50.513  1.00  0.00    -0.031 C 
HETATM   17  C   UNL     1     -43.942  53.921 -51.521  1.00  0.00     0.027 C 
HETATM   18  C   UNL     1     -43.404  54.532 -52.815  1.00  0.00     0.009 C 
ENDBRANCH   7  13
BRANCH  11  19
HETATM   19  N   UNL     1     -40.463  59.223 -50.305  1.00  0.00    -0.282 NA
HETATM   20  H   UNL     1     -41.113  59.617 -49.628  1.00  0.00     0.126 HD
HETATM   21  H   UNL     1     -39.488  59.352 -50.046  1.00  0.00     0.126 HD
ENDBRANCH  11  19
BRANCH   1  22
HETATM   22  C   UNL     1     -40.164  52.814 -52.127  1.00  0.00    -0.005 A 
HETATM   23  C   UNL     1     -39.695  51.546 -51.749  1.00  0.00     0.014 A 
HETATM   24  C   UNL     1     -39.494  50.544 -52.700  1.00  0.00     0.001 A 
HETATM   25  C   UNL     1     -39.746  50.804 -54.046  1.00  0.00     0.000 A 
HETATM   26  C   UNL     1     -40.186  52.066 -54.439  1.00  0.00     0.001 A 
HETATM   27  C   UNL     1     -40.387  53.069 -53.486  1.00  0.00     0.014 A 
ENDBRANCH   1  22
TORSDOF 3
ENDMDL
MODEL 4
REMARK VINA RESULT:      -7.9      2.310      5.798
REMARK  3 active torsions:
REMARK  status: ('A' for Active; 'I' for Inactive)
REMARK    1  A    between atoms: C_4  and  C_5 
REMARK    2  A    between atoms: C_11  and  C_12 
REMARK    3  A    between atoms: C_21  and  N_22 
ROOT
HETATM    1  C   UNL     1     -42.513  57.768 -52.584  1.00  0.00     0.098 C 
HETATM    2  N   UNL     1     -43.574  58.501 -52.981  1.00  0.00    -0.172 NA
HETATM    3  N   UNL     1     -44.313  57.664 -53.726  1.00  0.00    -0.256 N 
HETATM    4  H   UNL     1     -45.141  58.021 -54.189  1.00  0.00     0.191 HD
HETATM    5  C   UNL     1     -43.767  56.430 -53.819  1.00  0.00     0.175 C 
HETATM    6  C   UNL     1     -42.663  56.410 -53.001  1.00  0.00     0.036 C 
HETATM    7  C   UNL     1     -41.874  55.144 -52.880  1.00  0.00     0.077 C 
HETATM    8  C   UNL     1     -42.189  54.257 -54.115  1.00  0.00     0.076 C 
HETATM    9  C   UNL     1     -41.250  53.230 -54.433  1.00  0.00     0.100 C 
HETATM   10  N   UNL     1     -40.493  52.383 -54.664  1.00  0.00    -0.192 NA
HETATM   11  C   UNL     1     -43.295  54.436 -54.887  1.00  0.00     0.140 C 
HETATM   12  O   UNL     1     -44.203  55.479 -54.635  1.00  0.00    -0.279 OA
ENDROOT
BRANCH   7  13
HETATM   13  C   UNL     1     -42.107  54.304 -51.575  1.00  0.00     0.003 C 
HETATM   14  C   UNL     1     -42.479  55.119 -50.316  1.00  0.00     0.032 C 
HETATM   15  C   UNL     1     -41.319  55.511 -49.458  1.00  0.00    -0.030 C 
HETATM   16  C   UNL     1     -40.131  54.899 -49.513  1.00  0.00    -0.031 C 
HETATM   17  C   UNL     1     -39.832  53.751 -50.423  1.00  0.00     0.027 C 
HETATM   18  C   UNL     1     -41.013  53.263 -51.262  1.00  0.00     0.009 C 
ENDBRANCH   7  13
BRANCH  11  19
HETATM   19  N   UNL     1     -43.656  53.665 -55.968  1.00  0.00    -0.282 NA
HETATM   20  H   UNL     1     -44.021  52.740 -55.749  1.00  0.00     0.126 HD
HETATM   21  H   UNL     1     -44.234  54.177 -56.629  1.00  0.00     0.126 HD
ENDBRANCH  11  19
BRANCH   1  22
HETATM   22  C   UNL     1     -41.418  58.419 -51.860  1.00  0.00    -0.005 A 
HETATM   23  C   UNL     1     -41.643  58.939 -50.576  1.00  0.00     0.014 A 
HETATM   24  C   UNL     1     -40.612  59.551 -49.860  1.00  0.00     0.001 A 
HETATM   25  C   UNL     1     -39.345  59.664 -50.428  1.00  0.00     0.000 A 
HETATM   26  C   UNL     1     -39.114  59.177 -51.713  1.00  0.00     0.001 A 
HETATM   27  C   UNL     1     -40.146  58.564 -52.429  1.00  0.00     0.014 A 
ENDBRANCH   1  22
TORSDOF 3
ENDMDL
MODEL 5
REMARK VINA RESULT:      -7.6     15.181     17.907
REMARK  3 active torsions:
REMARK  status: ('A' for Active; 'I' for Inactive)
REMARK    1  A    between atoms: C_4  and  C_5 
REMARK    2  A    between atoms: C_11  and  C_12 
REMARK    3  A    between atoms: C_21  and  N_22 
ROOT
HETATM    1  C   UNL     1     -34.052  40.517 -54.495  1.00  0.00     0.098 C 
HETATM    2  N   UNL     1     -34.028  41.594 -55.307  1.00  0.00    -0.172 NA
HETATM    3  N   UNL     1     -35.061  42.352 -54.909  1.00  0.00    -0.256 N 
HETATM    4  H   UNL     1     -35.279  43.196 -55.425  1.00  0.00     0.191 HD
HETATM    5  C   UNL     1     -35.742  41.802 -53.877  1.00  0.00     0.175 C 
HETATM    6  C   UNL     1     -35.059  40.673 -53.494  1.00  0.00     0.036 C 
HETATM    7  C   UNL     1     -35.573  39.872 -52.338  1.00  0.00     0.077 C 
HETATM    8  C   UNL     1     -37.072  40.221 -52.135  1.00  0.00     0.076 C 
HETATM    9  C   UNL     1     -37.862  39.287 -51.401  1.00  0.00     0.100 C 
HETATM   10  N   UNL     1     -38.487  38.532 -50.780  1.00  0.00    -0.192 NA
HETATM   11  C   UNL     1     -37.639  41.353 -52.637  1.00  0.00     0.140 C 
HETATM   12  O   UNL     1     -36.900  42.257 -53.418  1.00  0.00    -0.279 OA
ENDROOT
BRANCH   7  13
HETATM   13  C   UNL     1     -34.817  40.059 -50.976  1.00  0.00     0.003 C 
HETATM   14  C   UNL     1     -33.729  41.157 -50.962  1.00  0.00     0.032 C 
HETATM   15  C   UNL     1     -32.350  40.676 -51.281  1.00  0.00    -0.030 C 
HETATM   16  C   UNL     1     -31.984  39.393 -51.187  1.00  0.00    -0.031 C 
HETATM   17  C   UNL     1     -32.903  38.301 -50.742  1.00  0.00     0.027 C 
HETATM   18  C   UNL     1     -34.302  38.758 -50.328  1.00  0.00     0.009 C 
ENDBRANCH   7  13
BRANCH  11  19
HETATM   19  N   UNL     1     -38.947  41.743 -52.463  1.00  0.00    -0.282 NA
HETATM   20  H   UNL     1     -39.592  41.470 -53.201  1.00  0.00     0.126 HD
HETATM   21  H   UNL     1     -39.291  41.527 -51.530  1.00  0.00     0.126 HD
ENDBRANCH  11  19
BRANCH   1  22
HETATM   22  C   UNL     1     -33.134  39.404 -54.748  1.00  0.00    -0.005 A 
HETATM   23  C   UNL     1     -31.767  39.657 -54.939  1.00  0.00     0.014 A 
HETATM   24  C   UNL     1     -30.870  38.612 -55.167  1.00  0.00     0.001 A 
HETATM   25  C   UNL     1     -31.333  37.299 -55.220  1.00  0.00     0.000 A 
HETATM   26  C   UNL     1     -32.691  37.035 -55.058  1.00  0.00     0.001 A 
HETATM   27  C   UNL     1     -33.589  38.082 -54.830  1.00  0.00     0.014 A 
ENDBRANCH   1  22
TORSDOF 3
ENDMDL
MODEL 6
REMARK VINA RESULT:      -7.5      2.643      4.281
REMARK  3 active torsions:
REMARK  status: ('A' for Active; 'I' for Inactive)
REMARK    1  A    between atoms: C_4  and  C_5 
REMARK    2  A    between atoms: C_11  and  C_12 
REMARK    3  A    between atoms: C_21  and  N_22 
ROOT
HETATM    1  C   UNL     1     -43.563  56.704 -53.264  1.00  0.00     0.098 C 
HETATM    2  N   UNL     1     -43.971  56.517 -54.537  1.00  0.00    -0.172 NA
HETATM    3  N   UNL     1     -44.743  57.579 -54.812  1.00  0.00    -0.256 N 
HETATM    4  H   UNL     1     -45.217  57.623 -55.706  1.00  0.00     0.191 HD
HETATM    5  C   UNL     1     -44.843  58.434 -53.768  1.00  0.00     0.175 C 
HETATM    6  C   UNL     1     -44.003  57.974 -52.782  1.00  0.00     0.036 C 
HETATM    7  C   UNL     1     -43.886  58.753 -51.509  1.00  0.00     0.077 C 
HETATM    8  C   UNL     1     -45.140  59.659 -51.377  1.00  0.00     0.076 C 
HETATM    9  C   UNL     1     -45.453  60.147 -50.074  1.00  0.00     0.100 C 
HETATM   10  N   UNL     1     -45.682  60.557 -49.013  1.00  0.00    -0.192 NA
HETATM   11  C   UNL     1     -45.931  59.978 -52.437  1.00  0.00     0.140 C 
HETATM   12  O   UNL     1     -45.683  59.460 -53.720  1.00  0.00    -0.279 OA
ENDROOT
BRANCH   7  13
HETATM   13  C   UNL     1     -42.599  59.637 -51.355  1.00  0.00     0.003 C 
HETATM   14  C   UNL     1     -42.023  60.212 -52.669  1.00  0.00     0.032 C 
HETATM   15  C   UNL     1     -40.966  59.372 -53.310  1.00  0.00    -0.030 C 
HETATM   16  C   UNL     1     -40.275  58.437 -52.648  1.00  0.00    -0.031 C 
HETATM   17  C   UNL     1     -40.470  58.136 -51.197  1.00  0.00     0.027 C 
HETATM   18  C   UNL     1     -41.485  59.026 -50.480  1.00  0.00     0.009 C 
ENDBRANCH   7  13
BRANCH  11  19
HETATM   19  N   UNL     1     -47.031  60.805 -52.400  1.00  0.00    -0.282 NA
HETATM   20  H   UNL     1     -46.836  61.793 -52.253  1.00  0.00     0.126 HD
HETATM   21  H   UNL     1     -47.667  60.633 -53.175  1.00  0.00     0.126 HD
ENDBRANCH  11  19
BRANCH   1  22
HETATM   22  C   UNL     1     -42.808  55.646 -52.588  1.00  0.00    -0.005 A 
HETATM   23  C   UNL     1     -41.761  54.998 -53.261  1.00  0.00     0.014 A 
HETATM   24  C   UNL     1     -41.016  53.997 -52.632  1.00  0.00     0.001 A 
HETATM   25  C   UNL     1     -41.321  53.623 -51.325  1.00  0.00     0.000 A 
HETATM   26  C   UNL     1     -42.374  54.239 -50.654  1.00  0.00     0.001 A 
HETATM   27  C   UNL     1     -43.119  55.241 -51.283  1.00  0.00     0.014 A 
ENDBRANCH   1  22
TORSDOF 3
ENDMDL
MODEL 7
REMARK VINA RESULT:      -7.4      2.627      4.360
REMARK  3 active torsions:
REMARK  status: ('A' for Active; 'I' for Inactive)
REMARK    1  A    between atoms: C_4  and  C_5 
REMARK    2  A    between atoms: C_11  and  C_12 
REMARK    3  A    between atoms: C_21  and  N_22 
ROOT
HETATM    1  C   UNL     1     -41.946  55.185 -52.840  1.00  0.00     0.098 C 
HETATM    2  N   UNL     1     -41.837  54.233 -53.789  1.00  0.00    -0.172 NA
HETATM    3  N   UNL     1     -42.536  54.704 -54.833  1.00  0.00    -0.256 N 
HETATM    4  H   UNL     1     -42.647  54.119 -55.653  1.00  0.00     0.191 HD
HETATM    5  C   UNL     1     -43.086  55.915 -54.588  1.00  0.00     0.175 C 
HETATM    6  C   UNL     1     -42.636  56.325 -53.356  1.00  0.00     0.036 C 
HETATM    7  C   UNL     1     -43.063  57.662 -52.837  1.00  0.00     0.077 C 
HETATM    8  C   UNL     1     -44.346  58.091 -53.599  1.00  0.00     0.076 C 
HETATM    9  C   UNL     1     -45.160  59.092 -52.987  1.00  0.00     0.100 C 
HETATM   10  N   UNL     1     -45.798  59.924 -52.492  1.00  0.00    -0.192 NA
HETATM   11  C   UNL     1     -44.712  57.544 -54.790  1.00  0.00     0.140 C 
HETATM   12  O   UNL     1     -43.964  56.513 -55.383  1.00  0.00    -0.279 OA
ENDROOT
BRANCH   7  13
HETATM   13  C   UNL     1     -42.002  58.814 -52.935  1.00  0.00     0.003 C 
HETATM   14  C   UNL     1     -40.529  58.381 -52.757  1.00  0.00     0.032 C 
HETATM   15  C   UNL     1     -40.014  58.477 -51.357  1.00  0.00    -0.030 C 
HETATM   16  C   UNL     1     -40.591  59.233 -50.417  1.00  0.00    -0.031 C 
HETATM   17  C   UNL     1     -41.802  60.074 -50.659  1.00  0.00     0.027 C 
HETATM   18  C   UNL     1     -42.318  60.070 -52.098  1.00  0.00     0.009 C 
ENDBRANCH   7  13
BRANCH  11  19
HETATM   19  N   UNL     1     -45.811  57.903 -55.536  1.00  0.00    -0.282 NA
HETATM   20  H   UNL     1     -46.676  57.418 -55.310  1.00  0.00     0.126 HD
HETATM   21  H   UNL     1     -45.921  58.912 -55.596  1.00  0.00     0.126 HD
ENDBRANCH  11  19
BRANCH   1  22
HETATM   22  C   UNL     1     -41.411  54.931 -51.500  1.00  0.00    -0.005 A 
HETATM   23  C   UNL     1     -40.398  53.976 -51.323  1.00  0.00     0.014 A 
HETATM   24  C   UNL     1     -39.861  53.726 -50.059  1.00  0.00     0.001 A 
HETATM   25  C   UNL     1     -40.344  54.420 -48.951  1.00  0.00     0.000 A 
HETATM   26  C   UNL     1     -41.368  55.351 -49.106  1.00  0.00     0.001 A 
HETATM   27  C   UNL     1     -41.905  55.601 -50.373  1.00  0.00     0.014 A 
ENDBRANCH   1  22
TORSDOF 3
ENDMDL
MODEL 8
REMARK VINA RESULT:      -7.4      2.381      4.398
REMARK  3 active torsions:
REMARK  status: ('A' for Active; 'I' for Inactive)
REMARK    1  A    between atoms: C_4  and  C_5 
REMARK    2  A    between atoms: C_11  and  C_12 
REMARK    3  A    between atoms: C_21  and  N_22 
ROOT
HETATM    1  C   UNL     1     -41.141  57.470 -53.371  1.00  0.00     0.098 C 
HETATM    2  N   UNL     1     -40.047  58.244 -53.530  1.00  0.00    -0.172 NA
HETATM    3  N   UNL     1     -40.208  59.252 -52.658  1.00  0.00    -0.256 N 
HETATM    4  H   UNL     1     -39.527  60.002 -52.645  1.00  0.00     0.191 HD
HETATM    5  C   UNL     1     -41.357  59.151 -51.952  1.00  0.00     0.175 C 
HETATM    6  C   UNL     1     -41.940  57.953 -52.291  1.00  0.00     0.036 C 
HETATM    7  C   UNL     1     -43.223  57.559 -51.628  1.00  0.00     0.077 C 
HETATM    8  C   UNL     1     -43.888  58.841 -51.059  1.00  0.00     0.076 C 
HETATM    9  C   UNL     1     -45.287  58.778 -50.782  1.00  0.00     0.100 C 
HETATM   10  N   UNL     1     -46.418  58.704 -50.537  1.00  0.00    -0.192 NA
HETATM   11  C   UNL     1     -43.198  59.993 -50.838  1.00  0.00     0.140 C 
HETATM   12  O   UNL     1     -41.835  60.103 -51.161  1.00  0.00    -0.279 OA
ENDROOT
BRANCH   7  13
HETATM   13  C   UNL     1     -43.111  56.491 -50.484  1.00  0.00     0.003 C 
HETATM   14  C   UNL     1     -41.673  56.113 -50.062  1.00  0.00     0.032 C 
HETATM   15  C   UNL     1     -41.104  54.926 -50.771  1.00  0.00    -0.030 C 
HETATM   16  C   UNL     1     -41.860  54.019 -51.400  1.00  0.00    -0.031 C 
HETATM   17  C   UNL     1     -43.353  54.081 -51.454  1.00  0.00     0.027 C 
HETATM   18  C   UNL     1     -43.984  55.234 -50.674  1.00  0.00     0.009 C 
ENDBRANCH   7  13
BRANCH  11  19
HETATM   19  N   UNL     1     -43.714  61.150 -50.301  1.00  0.00    -0.282 NA
HETATM   20  H   UNL     1     -43.139  61.603 -49.594  1.00  0.00     0.126 HD
HETATM   21  H   UNL     1     -44.047  61.790 -51.017  1.00  0.00     0.126 HD
ENDBRANCH  11  19
BRANCH   1  22
HETATM   22  C   UNL     1     -41.361  56.341 -54.279  1.00  0.00    -0.005 A 
HETATM   23  C   UNL     1     -40.372  55.356 -54.420  1.00  0.00     0.014 A 
HETATM   24  C   UNL     1     -40.565  54.263 -55.268  1.00  0.00     0.001 A 
HETATM   25  C   UNL     1     -41.747  54.151 -55.997  1.00  0.00     0.000 A 
HETATM   26  C   UNL     1     -42.727  55.134 -55.887  1.00  0.00     0.001 A 
HETATM   27  C   UNL     1     -42.533  56.228 -55.038  1.00  0.00     0.014 A 
ENDBRANCH   1  22
TORSDOF 3
ENDMDL
MODEL 9
REMARK VINA RESULT:      -7.4      2.904      4.362
REMARK  3 active torsions:
REMARK  status: ('A' for Active; 'I' for Inactive)
REMARK    1  A    between atoms: C_4  and  C_5 
REMARK    2  A    between atoms: C_11  and  C_12 
REMARK    3  A    between atoms: C_21  and  N_22 
ROOT
HETATM    1  C   UNL     1     -41.043  57.077 -53.743  1.00  0.00     0.098 C 
HETATM    2  N   UNL     1     -40.353  57.802 -52.838  1.00  0.00    -0.172 NA
HETATM    3  N   UNL     1     -40.583  59.081 -53.171  1.00  0.00    -0.256 N 
HETATM    4  H   UNL     1     -40.108  59.815 -52.659  1.00  0.00     0.191 HD
HETATM    5  C   UNL     1     -41.391  59.200 -54.250  1.00  0.00     0.175 C 
HETATM    6  C   UNL     1     -41.812  57.936 -54.585  1.00  0.00     0.036 C 
HETATM    7  C   UNL     1     -42.755  57.769 -55.736  1.00  0.00     0.077 C 
HETATM    8  C   UNL     1     -42.658  59.034 -56.631  1.00  0.00     0.076 C 
HETATM    9  C   UNL     1     -43.120  58.914 -57.976  1.00  0.00     0.100 C 
HETATM   10  N   UNL     1     -43.522  58.811 -59.058  1.00  0.00    -0.192 NA
HETATM   11  C   UNL     1     -42.146  60.213 -56.184  1.00  0.00     0.140 C 
HETATM   12  O   UNL     1     -41.626  60.341 -54.885  1.00  0.00    -0.279 OA
ENDROOT
BRANCH   7  13
HETATM   13  C   UNL     1     -44.260  57.518 -55.367  1.00  0.00     0.003 C 
HETATM   14  C   UNL     1     -45.130  58.787 -55.218  1.00  0.00     0.032 C 
HETATM   15  C   UNL     1     -45.223  59.322 -53.825  1.00  0.00    -0.030 C 
HETATM   16  C   UNL     1     -44.945  58.589 -52.741  1.00  0.00    -0.031 C 
HETATM   17  C   UNL     1     -44.525  57.156 -52.797  1.00  0.00     0.027 C 
HETATM   18  C   UNL     1     -44.493  56.542 -54.197  1.00  0.00     0.009 C 
ENDBRANCH   7  13
BRANCH  11  19
HETATM   19  N   UNL     1     -42.067  61.381 -56.908  1.00  0.00    -0.282 NA
HETATM   20  H   UNL     1     -41.797  61.279 -57.884  1.00  0.00     0.126 HD
HETATM   21  H   UNL     1     -42.886  61.970 -56.778  1.00  0.00     0.126 HD
ENDBRANCH  11  19
BRANCH   1  22
HETATM   22  C   UNL     1     -40.899  55.619 -53.758  1.00  0.00    -0.005 A 
HETATM   23  C   UNL     1     -41.257  54.871 -52.626  1.00  0.00     0.014 A 
HETATM   24  C   UNL     1     -41.143  53.479 -52.622  1.00  0.00     0.001 A 
HETATM   25  C   UNL     1     -40.654  52.819 -53.748  1.00  0.00     0.000 A 
HETATM   26  C   UNL     1     -40.270  53.551 -54.869  1.00  0.00     0.001 A 
HETATM   27  C   UNL     1     -40.385  54.944 -54.873  1.00  0.00     0.014 A 
ENDBRANCH   1  22
TORSDOF 3
ENDMDL
MODEL 10
REMARK VINA RESULT:      -7.2      2.586      4.304
REMARK  3 active torsions:
REMARK  status: ('A' for Active; 'I' for Inactive)
REMARK    1  A    between atoms: C_4  and  C_5 
REMARK    2  A    between atoms: C_11  and  C_12 
REMARK    3  A    between atoms: C_21  and  N_22 
ROOT
HETATM    1  C   UNL     1     -41.165  57.350 -51.378  1.00  0.00     0.098 C 
HETATM    2  N   UNL     1     -40.560  58.334 -50.682  1.00  0.00    -0.172 NA
HETATM    3  N   UNL     1     -40.689  59.429 -51.448  1.00  0.00    -0.256 N 
HETATM    4  H   UNL     1     -40.248  60.291 -51.150  1.00  0.00     0.191 HD
HETATM    5  C   UNL     1     -41.351  59.181 -52.602  1.00  0.00     0.175 C 
HETATM    6  C   UNL     1     -41.784  57.878 -52.551  1.00  0.00     0.036 C 
HETATM    7  C   UNL     1     -42.584  57.336 -53.695  1.00  0.00     0.077 C 
HETATM    8  C   UNL     1     -42.320  58.229 -54.938  1.00  0.00     0.076 C 
HETATM    9  C   UNL     1     -42.616  57.666 -56.215  1.00  0.00     0.100 C 
HETATM   10  N   UNL     1     -42.885  57.207 -57.245  1.00  0.00    -0.192 NA
HETATM   11  C   UNL     1     -41.814  59.489 -54.844  1.00  0.00     0.140 C 
HETATM   12  O   UNL     1     -41.454  60.043 -53.604  1.00  0.00    -0.279 OA
ENDROOT
BRANCH   7  13
HETATM   13  C   UNL     1     -44.132  57.225 -53.466  1.00  0.00     0.003 C 
HETATM   14  C   UNL     1     -44.984  58.339 -54.116  1.00  0.00     0.032 C 
HETATM   15  C   UNL     1     -45.272  59.506 -53.228  1.00  0.00    -0.030 C 
HETATM   16  C   UNL     1     -45.177  59.451 -51.895  1.00  0.00    -0.031 C 
HETATM   17  C   UNL     1     -44.788  58.219 -51.144  1.00  0.00     0.027 C 
HETATM   18  C   UNL     1     -44.562  56.976 -52.006  1.00  0.00     0.009 C 
ENDBRANCH   7  13
BRANCH  11  19
HETATM   19  N   UNL     1     -41.593  60.347 -55.897  1.00  0.00    -0.282 NA
HETATM   20  H   UNL     1     -40.797  60.123 -56.489  1.00  0.00     0.126 HD
HETATM   21  H   UNL     1     -42.443  60.537 -56.423  1.00  0.00     0.126 HD
ENDBRANCH  11  19
BRANCH   1  22
HETATM   22  C   UNL     1     -41.086  55.970 -50.890  1.00  0.00    -0.005 A 
HETATM   23  C   UNL     1     -40.901  54.918 -51.801  1.00  0.00     0.014 A 
HETATM   24  C   UNL     1     -40.808  53.597 -51.359  1.00  0.00     0.001 A 
HETATM   25  C   UNL     1     -40.914  53.310 -50.000  1.00  0.00     0.000 A 
HETATM   26  C   UNL     1     -41.124  54.341 -49.087  1.00  0.00     0.001 A 
HETATM   27  C   UNL     1     -41.217  55.664 -49.529  1.00  0.00     0.014 A 
ENDBRANCH   1  22
TORSDOF 3
ENDMDL
