MODEL 1
REMARK VINA RESULT:     -10.0      0.000      0.000
REMARK  6 active torsions:
REMARK  status: ('A' for Active; 'I' for Inactive)
REMARK    1  A    between atoms: C_8  and  C_9 
REMARK    2  A    between atoms: C_9  and  C_10 
REMARK    3  A    between atoms: C_10  and  N_11 
REMARK       I    between atoms: N_11  and  C_12 
REMARK    4  A    between atoms: C_12  and  C_13 
REMARK    5  A    between atoms: C_18  and  C_19 
REMARK    6  A    between atoms: C_29  and  C_30 
ROOT
HETATM    1  C   UNL     1     -43.563  56.600 -55.787  1.00  0.00     0.148 C 
HETATM    2  N   UNL     1     -43.056  55.814 -56.768  1.00  0.00    -0.165 NA
HETATM    3  N   UNL     1     -43.354  56.494 -57.887  1.00  0.00    -0.240 N 
HETATM    4  C   UNL     1     -43.885  57.730 -57.664  1.00  0.00     0.123 C 
HETATM    5  N   UNL     1     -44.087  58.586 -58.684  1.00  0.00    -0.366 N 
HETATM    6  C   UNL     1     -43.353  58.468 -59.948  1.00  0.00     0.118 C 
HETATM    7  C   UNL     1     -42.459  57.204 -60.022  1.00  0.00     0.066 C 
HETATM    8  C   UNL     1     -43.006  56.024 -59.210  1.00  0.00     0.221 C 
HETATM    9  C   UNL     1     -44.113  57.801 -56.318  1.00  0.00     0.088 C 
HETATM   10  H   UNL     1     -44.446  59.522 -58.495  1.00  0.00     0.161 HD
ENDROOT
BRANCH   1  11
HETATM   11  C   UNL     1     -43.498  56.228 -54.365  1.00  0.00     0.272 C 
HETATM   12  N   UNL     1     -42.754  55.095 -54.128  1.00  0.00    -0.355 N 
HETATM   13  H   UNL     1     -42.247  54.726 -54.927  1.00  0.00     0.162 HD
HETATM   14  O   UNL     1     -44.041  56.882 -53.480  1.00  0.00    -0.266 OA
BRANCH  12  15
HETATM   15  C   UNL     1     -42.501  54.615 -52.788  1.00  0.00     0.127 C 
BRANCH  15  16
HETATM   16  C   UNL     1     -41.016  54.582 -52.427  1.00  0.00     0.060 C 
BRANCH  16  17
HETATM   17  C   UNL     1     -40.570  53.250 -51.905  1.00  0.00    -0.029 A 
HETATM   18  C   UNL     1     -40.248  52.080 -52.665  1.00  0.00    -0.002 A 
HETATM   19  C   UNL     1     -40.230  51.773 -54.043  1.00  0.00     0.014 A 
HETATM   20  C   UNL     1     -39.889  51.079 -51.760  1.00  0.00     0.042 A 
HETATM   21  C   UNL     1     -39.857  50.489 -54.460  1.00  0.00     0.001 A 
HETATM   22  C   UNL     1     -39.505  49.514 -53.530  1.00  0.00     0.002 A 
HETATM   23  C   UNL     1     -39.513  49.792 -52.161  1.00  0.00     0.030 A 
HETATM   24  N   UNL     1     -39.988  51.618 -50.499  1.00  0.00    -0.365 N 
HETATM   25  H   UNL     1     -39.788  51.117 -49.645  1.00  0.00     0.165 HD
HETATM   26  C   UNL     1     -40.401  52.920 -50.573  1.00  0.00     0.096 A 
ENDBRANCH  16  17
ENDBRANCH  15  16
ENDBRANCH  12  15
ENDBRANCH   1  11
BRANCH   8  27
HETATM   27  C   UNL     1     -44.198  55.367 -59.866  1.00  0.00     0.409 C 
HETATM   28  F   UNL     1     -44.200  54.025 -59.707  1.00  0.00    -0.169 F 
HETATM   29  F   UNL     1     -45.386  55.838 -59.436  1.00  0.00    -0.169 F 
HETATM   30  F   UNL     1     -44.159  55.593 -61.207  1.00  0.00    -0.169 F 
ENDBRANCH   8  27
BRANCH   6  31
HETATM   31  C   UNL     1     -42.523  59.732 -60.131  1.00  0.00    -0.033 A 
HETATM   32  C   UNL     1     -41.923  60.360 -59.027  1.00  0.00     0.049 A 
HETATM   33  C   UNL     1     -41.166  61.492 -59.256  1.00  0.00     0.105 A 
HETATM   34  C   UNL     1     -40.992  62.012 -60.517  1.00  0.00     0.105 A 
HETATM   35  O   UNL     1     -40.515  62.216 -58.305  1.00  0.00    -0.323 OA
HETATM   36  O   UNL     1     -40.213  63.127 -60.519  1.00  0.00    -0.323 OA
HETATM   37  C   UNL     1     -41.556  61.428 -61.626  1.00  0.00     0.040 A 
HETATM   38  C   UNL     1     -39.903  63.243 -59.116  1.00  0.00     0.352 A 
HETATM   39  C   UNL     1     -42.320  60.276 -61.428  1.00  0.00     0.012 A 
ENDBRANCH   6  31
TORSDOF 6
ENDMDL
MODEL 2
REMARK VINA RESULT:      -9.8      3.656      9.273
REMARK  6 active torsions:
REMARK  status: ('A' for Active; 'I' for Inactive)
REMARK    1  A    between atoms: C_8  and  C_9 
REMARK    2  A    between atoms: C_9  and  C_10 
REMARK    3  A    between atoms: C_10  and  N_11 
REMARK       I    between atoms: N_11  and  C_12 
REMARK    4  A    between atoms: C_12  and  C_13 
REMARK    5  A    between atoms: C_18  and  C_19 
REMARK    6  A    between atoms: C_29  and  C_30 
ROOT
HETATM    1  C   UNL     1     -42.154  59.194 -55.941  1.00  0.00     0.148 C 
HETATM    2  N   UNL     1     -41.562  59.586 -54.787  1.00  0.00    -0.165 NA
HETATM    3  N   UNL     1     -41.908  58.616 -53.923  1.00  0.00    -0.240 N 
HETATM    4  C   UNL     1     -42.556  57.563 -54.497  1.00  0.00     0.123 C 
HETATM    5  N   UNL     1     -42.824  56.450 -53.787  1.00  0.00    -0.366 N 
HETATM    6  C   UNL     1     -42.065  56.103 -52.581  1.00  0.00     0.118 C 
HETATM    7  C   UNL     1     -41.055  57.198 -52.155  1.00  0.00     0.066 C 
HETATM    8  C   UNL     1     -41.499  58.616 -52.535  1.00  0.00     0.221 C 
HETATM    9  C   UNL     1     -42.808  57.938 -55.788  1.00  0.00     0.088 C 
HETATM   10  H   UNL     1     -43.272  55.655 -54.243  1.00  0.00     0.161 HD
ENDROOT
BRANCH   1  11
HETATM   11  C   UNL     1     -42.073  59.986 -57.178  1.00  0.00     0.272 C 
HETATM   12  N   UNL     1     -43.149  59.804 -58.016  1.00  0.00    -0.355 N 
HETATM   13  H   UNL     1     -43.913  59.252 -57.638  1.00  0.00     0.162 HD
HETATM   14  O   UNL     1     -41.143  60.749 -57.421  1.00  0.00    -0.266 OA
BRANCH  12  15
HETATM   15  C   UNL     1     -43.297  60.556 -59.242  1.00  0.00     0.127 C 
BRANCH  15  16
HETATM   16  C   UNL     1     -42.893  59.767 -60.488  1.00  0.00     0.060 C 
BRANCH  16  17
HETATM   17  C   UNL     1     -42.795  58.292 -60.239  1.00  0.00    -0.029 A 
HETATM   18  C   UNL     1     -43.865  57.341 -60.211  1.00  0.00    -0.002 A 
HETATM   19  C   UNL     1     -45.263  57.424 -60.388  1.00  0.00     0.014 A 
HETATM   20  C   UNL     1     -43.306  56.090 -59.939  1.00  0.00     0.042 A 
HETATM   21  C   UNL     1     -46.042  56.264 -60.288  1.00  0.00     0.001 A 
HETATM   22  C   UNL     1     -45.453  55.033 -60.015  1.00  0.00     0.002 A 
HETATM   23  C   UNL     1     -44.071  54.923 -59.836  1.00  0.00     0.030 A 
HETATM   24  N   UNL     1     -41.950  56.273 -59.807  1.00  0.00    -0.365 N 
HETATM   25  H   UNL     1     -41.290  55.535 -59.606  1.00  0.00     0.165 HD
HETATM   26  C   UNL     1     -41.631  57.592 -59.980  1.00  0.00     0.096 A 
ENDBRANCH  16  17
ENDBRANCH  15  16
ENDBRANCH  12  15
ENDBRANCH   1  11
BRANCH   8  27
HETATM   27  C   UNL     1     -42.616  59.133 -51.658  1.00  0.00     0.409 C 
HETATM   28  F   UNL     1     -43.527  59.848 -52.353  1.00  0.00    -0.169 F 
HETATM   29  F   UNL     1     -43.271  58.168 -50.983  1.00  0.00    -0.169 F 
HETATM   30  F   UNL     1     -42.102  59.976 -50.722  1.00  0.00    -0.169 F 
ENDBRANCH   8  27
BRANCH   6  31
HETATM   31  C   UNL     1     -41.356  54.779 -52.836  1.00  0.00    -0.033 A 
HETATM   32  C   UNL     1     -40.983  53.950 -51.764  1.00  0.00     0.049 A 
HETATM   33  C   UNL     1     -40.361  52.752 -52.055  1.00  0.00     0.105 A 
HETATM   34  C   UNL     1     -40.098  52.360 -53.347  1.00  0.00     0.105 A 
HETATM   35  O   UNL     1     -39.942  51.835 -51.143  1.00  0.00    -0.323 OA
HETATM   36  O   UNL     1     -39.480  51.151 -53.411  1.00  0.00    -0.323 OA
HETATM   37  C   UNL     1     -40.449  53.138 -54.426  1.00  0.00     0.040 A 
HETATM   38  C   UNL     1     -39.396  50.817 -52.011  1.00  0.00     0.352 A 
HETATM   39  C   UNL     1     -41.089  54.351 -54.164  1.00  0.00     0.012 A 
ENDBRANCH   6  31
TORSDOF 6
ENDMDL
MODEL 3
REMARK VINA RESULT:      -9.8      3.045     10.158
REMARK  6 active torsions:
REMARK  status: ('A' for Active; 'I' for Inactive)
REMARK    1  A    between atoms: C_8  and  C_9 
REMARK    2  A    between atoms: C_9  and  C_10 
REMARK    3  A    between atoms: C_10  and  N_11 
REMARK       I    between atoms: N_11  and  C_12 
REMARK    4  A    between atoms: C_12  and  C_13 
REMARK    5  A    between atoms: C_18  and  C_19 
REMARK    6  A    between atoms: C_29  and  C_30 
ROOT
HETATM    1  C   UNL     1     -42.690  57.045 -58.058  1.00  0.00     0.148 C 
HETATM    2  N   UNL     1     -42.669  57.907 -57.013  1.00  0.00    -0.165 NA
HETATM    3  N   UNL     1     -43.072  57.146 -55.982  1.00  0.00    -0.240 N 
HETATM    4  C   UNL     1     -43.202  55.822 -56.283  1.00  0.00     0.123 C 
HETATM    5  N   UNL     1     -43.446  54.917 -55.315  1.00  0.00    -0.366 N 
HETATM    6  C   UNL     1     -43.121  55.184 -53.910  1.00  0.00     0.118 C 
HETATM    7  C   UNL     1     -42.621  56.629 -53.659  1.00  0.00     0.066 C 
HETATM    8  C   UNL     1     -43.211  57.655 -54.635  1.00  0.00     0.221 C 
HETATM    9  C   UNL     1     -43.045  55.731 -57.638  1.00  0.00     0.088 C 
HETATM   10  H   UNL     1     -43.498  53.926 -55.552  1.00  0.00     0.161 HD
ENDROOT
BRANCH   1  11
HETATM   11  C   UNL     1     -42.349  57.457 -59.428  1.00  0.00     0.272 C 
HETATM   12  N   UNL     1     -42.310  58.821 -59.597  1.00  0.00    -0.355 N 
HETATM   13  H   UNL     1     -42.399  59.372 -58.748  1.00  0.00     0.162 HD
HETATM   14  O   UNL     1     -42.103  56.654 -60.323  1.00  0.00    -0.266 OA
BRANCH  12  15
HETATM   15  C   UNL     1     -41.913  59.425 -60.849  1.00  0.00     0.127 C 
BRANCH  15  16
HETATM   16  C   UNL     1     -42.222  60.920 -60.924  1.00  0.00     0.060 C 
BRANCH  16  17
HETATM   17  C   UNL     1     -41.305  61.750 -60.077  1.00  0.00    -0.029 A 
HETATM   18  C   UNL     1     -40.256  62.617 -60.522  1.00  0.00    -0.002 A 
HETATM   19  C   UNL     1     -39.745  62.979 -61.787  1.00  0.00     0.014 A 
HETATM   20  C   UNL     1     -39.667  63.178 -59.387  1.00  0.00     0.042 A 
HETATM   21  C   UNL     1     -38.675  63.879 -61.869  1.00  0.00     0.001 A 
HETATM   22  C   UNL     1     -38.111  64.419 -60.717  1.00  0.00     0.002 A 
HETATM   23  C   UNL     1     -38.598  64.079 -59.451  1.00  0.00     0.030 A 
HETATM   24  N   UNL     1     -40.331  62.672 -58.294  1.00  0.00    -0.365 N 
HETATM   25  H   UNL     1     -40.116  62.905 -57.335  1.00  0.00     0.165 HD
HETATM   26  C   UNL     1     -41.314  61.809 -58.696  1.00  0.00     0.096 A 
ENDBRANCH  16  17
ENDBRANCH  15  16
ENDBRANCH  12  15
ENDBRANCH   1  11
BRANCH   8  27
HETATM   27  C   UNL     1     -44.657  57.976 -54.340  1.00  0.00     0.409 C 
HETATM   28  F   UNL     1     -44.914  59.301 -54.401  1.00  0.00    -0.169 F 
HETATM   29  F   UNL     1     -45.532  57.344 -55.148  1.00  0.00    -0.169 F 
HETATM   30  F   UNL     1     -44.958  57.586 -53.071  1.00  0.00    -0.169 F 
ENDBRANCH   8  27
BRANCH   6  31
HETATM   31  C   UNL     1     -42.082  54.163 -53.464  1.00  0.00    -0.033 A 
HETATM   32  C   UNL     1     -41.688  53.123 -54.322  1.00  0.00     0.049 A 
HETATM   33  C   UNL     1     -40.728  52.238 -53.872  1.00  0.00     0.105 A 
HETATM   34  C   UNL     1     -40.161  52.348 -52.624  1.00  0.00     0.105 A 
HETATM   35  O   UNL     1     -40.231  51.184 -54.573  1.00  0.00    -0.323 OA
HETATM   36  O   UNL     1     -39.240  51.378 -52.381  1.00  0.00    -0.323 OA
HETATM   37  C   UNL     1     -40.513  53.354 -51.754  1.00  0.00     0.040 A 
HETATM   38  C   UNL     1     -39.279  50.651 -53.625  1.00  0.00     0.352 A 
HETATM   39  C   UNL     1     -41.475  54.270 -52.184  1.00  0.00     0.012 A 
ENDBRANCH   6  31
TORSDOF 6
ENDMDL
MODEL 4
REMARK VINA RESULT:      -9.6      3.448      9.468
REMARK  6 active torsions:
REMARK  status: ('A' for Active; 'I' for Inactive)
REMARK    1  A    between atoms: C_8  and  C_9 
REMARK    2  A    between atoms: C_9  and  C_10 
REMARK    3  A    between atoms: C_10  and  N_11 
REMARK       I    between atoms: N_11  and  C_12 
REMARK    4  A    between atoms: C_12  and  C_13 
REMARK    5  A    between atoms: C_18  and  C_19 
REMARK    6  A    between atoms: C_29  and  C_30 
ROOT
HETATM    1  C   UNL     1     -42.428  58.679 -55.316  1.00  0.00     0.148 C 
HETATM    2  N   UNL     1     -42.376  59.033 -54.009  1.00  0.00    -0.165 NA
HETATM    3  N   UNL     1     -42.795  57.924 -53.376  1.00  0.00    -0.240 N 
HETATM    4  C   UNL     1     -42.966  56.846 -54.193  1.00  0.00     0.123 C 
HETATM    5  N   UNL     1     -43.230  55.629 -53.681  1.00  0.00    -0.366 N 
HETATM    6  C   UNL     1     -42.890  55.284 -52.297  1.00  0.00     0.118 C 
HETATM    7  C   UNL     1     -42.346  56.484 -51.481  1.00  0.00     0.066 C 
HETATM    8  C   UNL     1     -42.912  57.835 -51.937  1.00  0.00     0.221 C 
HETATM    9  C   UNL     1     -42.818  57.318 -55.469  1.00  0.00     0.088 C 
HETATM   10  H   UNL     1     -43.312  54.825 -54.304  1.00  0.00     0.161 HD
ENDROOT
BRANCH   1  11
HETATM   11  C   UNL     1     -42.083  59.610 -56.400  1.00  0.00     0.272 C 
HETATM   12  N   UNL     1     -42.205  59.060 -57.655  1.00  0.00    -0.355 N 
HETATM   13  H   UNL     1     -42.626  58.137 -57.692  1.00  0.00     0.162 HD
HETATM   14  O   UNL     1     -41.740  60.771 -56.197  1.00  0.00    -0.266 OA
BRANCH  12  15
HETATM   15  C   UNL     1     -41.992  59.840 -58.854  1.00  0.00     0.127 C 
BRANCH  15  16
HETATM   16  C   UNL     1     -42.165  59.030 -60.140  1.00  0.00     0.060 C 
BRANCH  16  17
HETATM   17  C   UNL     1     -43.547  58.472 -60.298  1.00  0.00    -0.029 A 
HETATM   18  C   UNL     1     -43.956  57.107 -60.157  1.00  0.00    -0.002 A 
HETATM   19  C   UNL     1     -43.285  55.903 -59.850  1.00  0.00     0.014 A 
HETATM   20  C   UNL     1     -45.330  57.054 -60.398  1.00  0.00     0.042 A 
HETATM   21  C   UNL     1     -44.007  54.704 -59.796  1.00  0.00     0.001 A 
HETATM   22  C   UNL     1     -45.377  54.688 -60.042  1.00  0.00     0.002 A 
HETATM   23  C   UNL     1     -46.066  55.865 -60.347  1.00  0.00     0.030 A 
HETATM   24  N   UNL     1     -45.742  58.337 -60.674  1.00  0.00    -0.365 N 
HETATM   25  H   UNL     1     -46.694  58.599 -60.888  1.00  0.00     0.165 HD
HETATM   26  C   UNL     1     -44.679  59.197 -60.621  1.00  0.00     0.096 A 
ENDBRANCH  16  17
ENDBRANCH  15  16
ENDBRANCH  12  15
ENDBRANCH   1  11
BRANCH   8  27
HETATM   27  C   UNL     1     -44.347  58.041 -51.512  1.00  0.00     0.409 C 
HETATM   28  F   UNL     1     -44.544  59.241 -50.923  1.00  0.00    -0.169 F 
HETATM   29  F   UNL     1     -45.237  57.919 -52.517  1.00  0.00    -0.169 F 
HETATM   30  F   UNL     1     -44.683  57.102 -50.587  1.00  0.00    -0.169 F 
ENDBRANCH   8  27
BRANCH   6  31
HETATM   31  C   UNL     1     -41.879  54.146 -52.328  1.00  0.00    -0.033 A 
HETATM   32  C   UNL     1     -41.673  53.405 -53.504  1.00  0.00     0.049 A 
HETATM   33  C   UNL     1     -40.729  52.397 -53.480  1.00  0.00     0.105 A 
HETATM   34  C   UNL     1     -40.001  52.105 -52.351  1.00  0.00     0.105 A 
HETATM   35  O   UNL     1     -40.403  51.592 -54.527  1.00  0.00    -0.323 OA
HETATM   36  O   UNL     1     -39.128  51.080 -52.543  1.00  0.00    -0.323 OA
HETATM   37  C   UNL     1     -40.166  52.807 -51.180  1.00  0.00     0.040 A 
HETATM   38  C   UNL     1     -39.378  50.768 -53.928  1.00  0.00     0.352 A 
HETATM   39  C   UNL     1     -41.107  53.839 -51.175  1.00  0.00     0.012 A 
ENDBRANCH   6  31
TORSDOF 6
ENDMDL
MODEL 5
REMARK VINA RESULT:      -9.5      5.518      9.799
REMARK  6 active torsions:
REMARK  status: ('A' for Active; 'I' for Inactive)
REMARK    1  A    between atoms: C_8  and  C_9 
REMARK    2  A    between atoms: C_9  and  C_10 
REMARK    3  A    between atoms: C_10  and  N_11 
REMARK       I    between atoms: N_11  and  C_12 
REMARK    4  A    between atoms: C_12  and  C_13 
REMARK    5  A    between atoms: C_18  and  C_19 
REMARK    6  A    between atoms: C_29  and  C_30 
ROOT
HETATM    1  C   UNL     1     -41.998  58.644 -52.911  1.00  0.00     0.148 C 
HETATM    2  N   UNL     1     -43.041  58.050 -53.539  1.00  0.00    -0.165 NA
HETATM    3  N   UNL     1     -42.460  57.035 -54.200  1.00  0.00    -0.240 N 
HETATM    4  C   UNL     1     -41.139  56.863 -53.909  1.00  0.00     0.123 C 
HETATM    5  N   UNL     1     -40.465  55.793 -54.373  1.00  0.00    -0.366 N 
HETATM    6  C   UNL     1     -41.155  54.564 -54.779  1.00  0.00     0.118 C 
HETATM    7  C   UNL     1     -42.699  54.688 -54.750  1.00  0.00     0.066 C 
HETATM    8  C   UNL     1     -43.200  56.111 -55.031  1.00  0.00     0.221 C 
HETATM    9  C   UNL     1     -40.783  57.938 -53.142  1.00  0.00     0.088 C 
HETATM   10  H   UNL     1     -39.489  55.658 -54.111  1.00  0.00     0.161 HD
ENDROOT
BRANCH   1  11
HETATM   11  C   UNL     1     -42.158  59.847 -52.080  1.00  0.00     0.272 C 
HETATM   12  N   UNL     1     -42.879  60.846 -52.694  1.00  0.00    -0.355 N 
HETATM   13  H   UNL     1     -43.309  60.596 -53.579  1.00  0.00     0.162 HD
HETATM   14  O   UNL     1     -41.708  59.936 -50.941  1.00  0.00    -0.266 OA
BRANCH  12  15
HETATM   15  C   UNL     1     -43.216  62.074 -52.011  1.00  0.00     0.127 C 
BRANCH  15  16
HETATM   16  C   UNL     1     -44.691  62.161 -51.616  1.00  0.00     0.060 C 
BRANCH  16  17
HETATM   17  C   UNL     1     -44.962  61.617 -50.247  1.00  0.00    -0.029 A 
HETATM   18  C   UNL     1     -44.973  62.338 -49.009  1.00  0.00    -0.002 A 
HETATM   19  C   UNL     1     -44.755  63.686 -48.652  1.00  0.00     0.014 A 
HETATM   20  C   UNL     1     -45.267  61.424 -47.995  1.00  0.00     0.042 A 
HETATM   21  C   UNL     1     -44.840  64.067 -47.306  1.00  0.00     0.001 A 
HETATM   22  C   UNL     1     -45.136  63.130 -46.320  1.00  0.00     0.002 A 
HETATM   23  C   UNL     1     -45.357  61.789 -46.646  1.00  0.00     0.030 A 
HETATM   24  N   UNL     1     -45.430  60.196 -48.591  1.00  0.00    -0.365 N 
HETATM   25  H   UNL     1     -45.650  59.344 -48.095  1.00  0.00     0.165 HD
HETATM   26  C   UNL     1     -45.244  60.298 -49.942  1.00  0.00     0.096 A 
ENDBRANCH  16  17
ENDBRANCH  15  16
ENDBRANCH  12  15
ENDBRANCH   1  11
BRANCH   8  27
HETATM   27  C   UNL     1     -43.075  56.497 -56.487  1.00  0.00     0.409 C 
HETATM   28  F   UNL     1     -44.148  57.186 -56.931  1.00  0.00    -0.169 F 
HETATM   29  F   UNL     1     -41.971  57.218 -56.767  1.00  0.00    -0.169 F 
HETATM   30  F   UNL     1     -43.001  55.371 -57.248  1.00  0.00    -0.169 F 
ENDBRANCH   8  27
BRANCH   6  31
HETATM   31  C   UNL     1     -40.684  53.436 -53.870  1.00  0.00    -0.033 A 
HETATM   32  C   UNL     1     -40.515  52.135 -54.373  1.00  0.00     0.049 A 
HETATM   33  C   UNL     1     -40.067  51.157 -53.508  1.00  0.00     0.105 A 
HETATM   34  C   UNL     1     -39.789  51.421 -52.187  1.00  0.00     0.105 A 
HETATM   35  O   UNL     1     -39.846  49.854 -53.830  1.00  0.00    -0.323 OA
HETATM   36  O   UNL     1     -39.362  50.320 -51.513  1.00  0.00    -0.323 OA
HETATM   37  C   UNL     1     -39.935  52.680 -51.654  1.00  0.00     0.040 A 
HETATM   38  C   UNL     1     -39.387  49.334 -52.563  1.00  0.00     0.352 A 
HETATM   39  C   UNL     1     -40.378  53.694 -52.506  1.00  0.00     0.012 A 
ENDBRANCH   6  31
TORSDOF 6
ENDMDL
MODEL 6
REMARK VINA RESULT:      -9.3      5.884      9.997
REMARK  6 active torsions:
REMARK  status: ('A' for Active; 'I' for Inactive)
REMARK    1  A    between atoms: C_8  and  C_9 
REMARK    2  A    between atoms: C_9  and  C_10 
REMARK    3  A    between atoms: C_10  and  N_11 
REMARK       I    between atoms: N_11  and  C_12 
REMARK    4  A    between atoms: C_12  and  C_13 
REMARK    5  A    between atoms: C_18  and  C_19 
REMARK    6  A    between atoms: C_29  and  C_30 
ROOT
HETATM    1  C   UNL     1     -42.073  58.447 -52.965  1.00  0.00     0.148 C 
HETATM    2  N   UNL     1     -43.094  57.843 -53.622  1.00  0.00    -0.165 NA
HETATM    3  N   UNL     1     -42.482  56.851 -54.289  1.00  0.00    -0.240 N 
HETATM    4  C   UNL     1     -41.163  56.699 -53.977  1.00  0.00     0.123 C 
HETATM    5  N   UNL     1     -40.461  55.650 -54.447  1.00  0.00    -0.366 N 
HETATM    6  C   UNL     1     -41.119  54.415 -54.886  1.00  0.00     0.118 C 
HETATM    7  C   UNL     1     -42.666  54.510 -54.882  1.00  0.00     0.066 C 
HETATM    8  C   UNL     1     -43.189  55.927 -55.149  1.00  0.00     0.221 C 
HETATM    9  C   UNL     1     -40.842  57.767 -53.186  1.00  0.00     0.088 C 
HETATM   10  H   UNL     1     -39.486  55.529 -54.170  1.00  0.00     0.161 HD
ENDROOT
BRANCH   1  11
HETATM   11  C   UNL     1     -42.272  59.632 -52.118  1.00  0.00     0.272 C 
HETATM   12  N   UNL     1     -43.469  60.272 -52.341  1.00  0.00    -0.355 N 
HETATM   13  H   UNL     1     -44.114  59.794 -52.964  1.00  0.00     0.162 HD
HETATM   14  O   UNL     1     -41.453  59.996 -51.279  1.00  0.00    -0.266 OA
BRANCH  12  15
HETATM   15  C   UNL     1     -43.886  61.409 -51.551  1.00  0.00     0.127 C 
BRANCH  15  16
HETATM   16  C   UNL     1     -44.508  61.017 -50.210  1.00  0.00     0.060 C 
BRANCH  16  17
HETATM   17  C   UNL     1     -44.700  62.184 -49.291  1.00  0.00    -0.029 A 
HETATM   18  C   UNL     1     -44.830  62.158 -47.865  1.00  0.00    -0.002 A 
HETATM   19  C   UNL     1     -44.826  61.134 -46.894  1.00  0.00     0.014 A 
HETATM   20  C   UNL     1     -44.995  63.476 -47.435  1.00  0.00     0.042 A 
HETATM   21  C   UNL     1     -44.987  61.463 -45.542  1.00  0.00     0.001 A 
HETATM   22  C   UNL     1     -45.150  62.788 -45.148  1.00  0.00     0.002 A 
HETATM   23  C   UNL     1     -45.156  63.822 -46.088  1.00  0.00     0.030 A 
HETATM   24  N   UNL     1     -44.966  64.273 -48.555  1.00  0.00    -0.365 N 
HETATM   25  H   UNL     1     -45.064  65.279 -48.544  1.00  0.00     0.165 HD
HETATM   26  C   UNL     1     -44.794  63.508 -49.676  1.00  0.00     0.096 A 
ENDBRANCH  16  17
ENDBRANCH  15  16
ENDBRANCH  12  15
ENDBRANCH   1  11
BRANCH   8  27
HETATM   27  C   UNL     1     -43.046  56.340 -56.595  1.00  0.00     0.409 C 
HETATM   28  F   UNL     1     -44.145  56.972 -57.062  1.00  0.00    -0.169 F 
HETATM   29  F   UNL     1     -41.979  57.128 -56.835  1.00  0.00    -0.169 F 
HETATM   30  F   UNL     1     -42.885  55.231 -57.368  1.00  0.00    -0.169 F 
ENDBRANCH   8  27
BRANCH   6  31
HETATM   31  C   UNL     1     -40.642  53.281 -53.987  1.00  0.00    -0.033 A 
HETATM   32  C   UNL     1     -40.867  53.325 -52.601  1.00  0.00     0.049 A 
HETATM   33  C   UNL     1     -40.430  52.260 -51.838  1.00  0.00     0.105 A 
HETATM   34  C   UNL     1     -39.788  51.178 -52.393  1.00  0.00     0.105 A 
HETATM   35  O   UNL     1     -40.570  52.140 -50.490  1.00  0.00    -0.323 OA
HETATM   36  O   UNL     1     -39.443  50.244 -51.468  1.00  0.00    -0.323 OA
HETATM   37  C   UNL     1     -39.552  51.091 -53.745  1.00  0.00     0.040 A 
HETATM   38  C   UNL     1     -39.953  50.853 -50.266  1.00  0.00     0.352 A 
HETATM   39  C   UNL     1     -39.991  52.149 -54.545  1.00  0.00     0.012 A 
ENDBRANCH   6  31
TORSDOF 6
ENDMDL
MODEL 7
REMARK VINA RESULT:      -9.3      3.991      5.219
REMARK  6 active torsions:
REMARK  status: ('A' for Active; 'I' for Inactive)
REMARK    1  A    between atoms: C_8  and  C_9 
REMARK    2  A    between atoms: C_9  and  C_10 
REMARK    3  A    between atoms: C_10  and  N_11 
REMARK       I    between atoms: N_11  and  C_12 
REMARK    4  A    between atoms: C_12  and  C_13 
REMARK    5  A    between atoms: C_18  and  C_19 
REMARK    6  A    between atoms: C_29  and  C_30 
ROOT
HETATM    1  C   UNL     1     -43.981  57.344 -52.701  1.00  0.00     0.148 C 
HETATM    2  N   UNL     1     -44.807  58.409 -52.843  1.00  0.00    -0.165 NA
HETATM    3  N   UNL     1     -44.542  58.835 -54.089  1.00  0.00    -0.240 N 
HETATM    4  C   UNL     1     -43.709  58.017 -54.794  1.00  0.00     0.123 C 
HETATM    5  N   UNL     1     -43.480  58.231 -56.104  1.00  0.00    -0.366 N 
HETATM    6  C   UNL     1     -44.414  58.997 -56.935  1.00  0.00     0.118 C 
HETATM    7  C   UNL     1     -45.577  59.629 -56.130  1.00  0.00     0.066 C 
HETATM    8  C   UNL     1     -45.197  59.979 -54.686  1.00  0.00     0.221 C 
HETATM    9  C   UNL     1     -43.259  57.084 -53.900  1.00  0.00     0.088 C 
HETATM   10  H   UNL     1     -42.888  57.584 -56.625  1.00  0.00     0.161 HD
ENDROOT
BRANCH   1  11
HETATM   11  C   UNL     1     -43.902  56.567 -51.454  1.00  0.00     0.272 C 
HETATM   12  N   UNL     1     -42.790  55.761 -51.380  1.00  0.00    -0.355 N 
HETATM   13  H   UNL     1     -42.107  55.884 -52.122  1.00  0.00     0.162 HD
HETATM   14  O   UNL     1     -44.741  56.652 -50.562  1.00  0.00    -0.266 OA
BRANCH  12  15
HETATM   15  C   UNL     1     -42.489  54.982 -50.199  1.00  0.00     0.127 C 
BRANCH  15  16
HETATM   16  C   UNL     1     -40.997  54.691 -50.032  1.00  0.00     0.060 C 
BRANCH  16  17
HETATM   17  C   UNL     1     -40.572  53.418 -50.697  1.00  0.00    -0.029 A 
HETATM   18  C   UNL     1     -40.424  53.176 -52.101  1.00  0.00    -0.002 A 
HETATM   19  C   UNL     1     -40.602  53.961 -53.261  1.00  0.00     0.014 A 
HETATM   20  C   UNL     1     -40.014  51.850 -52.257  1.00  0.00     0.042 A 
HETATM   21  C   UNL     1     -40.368  53.395 -54.521  1.00  0.00     0.001 A 
HETATM   22  C   UNL     1     -39.960  52.069 -54.640  1.00  0.00     0.002 A 
HETATM   23  C   UNL     1     -39.775  51.271 -53.508  1.00  0.00     0.030 A 
HETATM   24  N   UNL     1     -39.917  51.306 -50.998  1.00  0.00    -0.365 N 
HETATM   25  H   UNL     1     -39.640  50.354 -50.806  1.00  0.00     0.165 HD
HETATM   26  C   UNL     1     -40.254  52.237 -50.053  1.00  0.00     0.096 A 
ENDBRANCH  16  17
ENDBRANCH  15  16
ENDBRANCH  12  15
ENDBRANCH   1  11
BRANCH   8  27
HETATM   27  C   UNL     1     -44.310  61.199 -54.595  1.00  0.00     0.409 C 
HETATM   28  F   UNL     1     -44.715  62.061 -53.636  1.00  0.00    -0.169 F 
HETATM   29  F   UNL     1     -43.010  60.914 -54.377  1.00  0.00    -0.169 F 
HETATM   30  F   UNL     1     -44.361  61.883 -55.770  1.00  0.00    -0.169 F 
ENDBRANCH   8  27
BRANCH   6  31
HETATM   31  C   UNL     1     -44.946  58.071 -58.022  1.00  0.00    -0.033 A 
HETATM   32  C   UNL     1     -44.068  57.269 -58.770  1.00  0.00     0.049 A 
HETATM   33  C   UNL     1     -44.608  56.434 -59.729  1.00  0.00     0.105 A 
HETATM   34  C   UNL     1     -45.961  56.373 -59.966  1.00  0.00     0.105 A 
HETATM   35  O   UNL     1     -43.905  55.592 -60.533  1.00  0.00    -0.323 OA
HETATM   36  O   UNL     1     -46.280  55.489 -60.949  1.00  0.00    -0.323 OA
HETATM   37  C   UNL     1     -46.857  57.136 -59.254  1.00  0.00     0.040 A 
HETATM   38  C   UNL     1     -44.974  54.988 -61.295  1.00  0.00     0.352 A 
HETATM   39  C   UNL     1     -46.342  57.984 -58.271  1.00  0.00     0.012 A 
ENDBRANCH   6  31
TORSDOF 6
ENDMDL
MODEL 8
REMARK VINA RESULT:      -9.0      2.618      4.123
REMARK  6 active torsions:
REMARK  status: ('A' for Active; 'I' for Inactive)
REMARK    1  A    between atoms: C_8  and  C_9 
REMARK    2  A    between atoms: C_9  and  C_10 
REMARK    3  A    between atoms: C_10  and  N_11 
REMARK       I    between atoms: N_11  and  C_12 
REMARK    4  A    between atoms: C_12  and  C_13 
REMARK    5  A    between atoms: C_18  and  C_19 
REMARK    6  A    between atoms: C_29  and  C_30 
ROOT
HETATM    1  C   UNL     1     -42.853  55.724 -55.656  1.00  0.00     0.148 C 
HETATM    2  N   UNL     1     -42.576  55.056 -56.802  1.00  0.00    -0.165 NA
HETATM    3  N   UNL     1     -43.095  55.852 -57.751  1.00  0.00    -0.240 N 
HETATM    4  C   UNL     1     -43.550  57.051 -57.287  1.00  0.00     0.123 C 
HETATM    5  N   UNL     1     -43.952  58.012 -58.141  1.00  0.00    -0.366 N 
HETATM    6  C   UNL     1     -43.504  58.041 -59.537  1.00  0.00     0.118 C 
HETATM    7  C   UNL     1     -42.664  56.802 -59.937  1.00  0.00     0.066 C 
HETATM    8  C   UNL     1     -43.042  55.534 -59.162  1.00  0.00     0.221 C 
HETATM    9  C   UNL     1     -43.487  56.971 -55.923  1.00  0.00     0.088 C 
HETATM   10  H   UNL     1     -44.250  58.918 -57.778  1.00  0.00     0.161 HD
ENDROOT
BRANCH   1  11
HETATM   11  C   UNL     1     -42.493  55.200 -54.330  1.00  0.00     0.272 C 
HETATM   12  N   UNL     1     -43.582  54.905 -53.543  1.00  0.00    -0.355 N 
HETATM   13  H   UNL     1     -44.486  54.968 -54.002  1.00  0.00     0.162 HD
HETATM   14  O   UNL     1     -41.331  55.024 -53.976  1.00  0.00    -0.266 OA
BRANCH  12  15
HETATM   15  C   UNL     1     -43.440  54.301 -52.237  1.00  0.00     0.127 C 
BRANCH  15  16
HETATM   16  C   UNL     1     -43.746  55.264 -51.090  1.00  0.00     0.060 C 
BRANCH  16  17
HETATM   17  C   UNL     1     -42.761  56.388 -50.991  1.00  0.00    -0.029 A 
HETATM   18  C   UNL     1     -42.903  57.719 -51.503  1.00  0.00    -0.002 A 
HETATM   19  C   UNL     1     -43.916  58.398 -52.214  1.00  0.00     0.014 A 
HETATM   20  C   UNL     1     -41.738  58.418 -51.182  1.00  0.00     0.042 A 
HETATM   21  C   UNL     1     -43.726  59.738 -52.575  1.00  0.00     0.001 A 
HETATM   22  C   UNL     1     -42.552  60.405 -52.239  1.00  0.00     0.002 A 
HETATM   23  C   UNL     1     -41.534  59.757 -51.534  1.00  0.00     0.030 A 
HETATM   24  N   UNL     1     -40.918  57.548 -50.502  1.00  0.00    -0.365 N 
HETATM   25  H   UNL     1     -40.002  57.784 -50.147  1.00  0.00     0.165 HD
HETATM   26  C   UNL     1     -41.520  56.324 -50.386  1.00  0.00     0.096 A 
ENDBRANCH  16  17
ENDBRANCH  15  16
ENDBRANCH  12  15
ENDBRANCH   1  11
BRANCH   8  27
HETATM   27  C   UNL     1     -44.355  54.941 -59.617  1.00  0.00     0.409 C 
HETATM   28  F   UNL     1     -45.414  55.703 -59.264  1.00  0.00    -0.169 F 
HETATM   29  F   UNL     1     -44.424  54.722 -60.945  1.00  0.00    -0.169 F 
HETATM   30  F   UNL     1     -44.537  53.733 -59.019  1.00  0.00    -0.169 F 
ENDBRANCH   8  27
BRANCH   6  31
HETATM   31  C   UNL     1     -42.715  59.326 -59.753  1.00  0.00    -0.033 A 
HETATM   32  C   UNL     1     -42.020  59.925 -58.689  1.00  0.00     0.049 A 
HETATM   33  C   UNL     1     -41.306  61.078 -58.948  1.00  0.00     0.105 A 
HETATM   34  C   UNL     1     -41.262  61.645 -60.200  1.00  0.00     0.105 A 
HETATM   35  O   UNL     1     -40.577  61.780 -58.039  1.00  0.00    -0.323 OA
HETATM   36  O   UNL     1     -40.504  62.774 -60.236  1.00  0.00    -0.323 OA
HETATM   37  C   UNL     1     -41.922  61.090 -61.271  1.00  0.00     0.040 A 
HETATM   38  C   UNL     1     -40.061  62.846 -58.866  1.00  0.00     0.352 A 
HETATM   39  C   UNL     1     -42.647  59.918 -61.043  1.00  0.00     0.012 A 
ENDBRANCH   6  31
TORSDOF 6
ENDMDL
MODEL 9
REMARK VINA RESULT:      -9.0      1.954      2.419
REMARK  6 active torsions:
REMARK  status: ('A' for Active; 'I' for Inactive)
REMARK    1  A    between atoms: C_8  and  C_9 
REMARK    2  A    between atoms: C_9  and  C_10 
REMARK    3  A    between atoms: C_10  and  N_11 
REMARK       I    between atoms: N_11  and  C_12 
REMARK    4  A    between atoms: C_12  and  C_13 
REMARK    5  A    between atoms: C_18  and  C_19 
REMARK    6  A    between atoms: C_29  and  C_30 
ROOT
HETATM    1  C   UNL     1     -42.071  59.096 -55.694  1.00  0.00     0.148 C 
HETATM    2  N   UNL     1     -42.159  58.181 -56.689  1.00  0.00    -0.165 NA
HETATM    3  N   UNL     1     -42.547  58.915 -57.745  1.00  0.00    -0.240 N 
HETATM    4  C   UNL     1     -42.566  60.258 -57.514  1.00  0.00     0.123 C 
HETATM    5  N   UNL     1     -42.783  61.127 -58.521  1.00  0.00    -0.366 N 
HETATM    6  C   UNL     1     -42.538  60.762 -59.920  1.00  0.00     0.118 C 
HETATM    7  C   UNL     1     -42.156  59.272 -60.109  1.00  0.00     0.066 C 
HETATM    8  C   UNL     1     -42.779  58.347 -59.056  1.00  0.00     0.221 C 
HETATM    9  C   UNL     1     -42.345  60.409 -56.173  1.00  0.00     0.088 C 
HETATM   10  H   UNL     1     -42.752  62.130 -58.338  1.00  0.00     0.161 HD
ENDROOT
BRANCH   1  11
HETATM   11  C   UNL     1     -41.705  58.733 -54.317  1.00  0.00     0.272 C 
HETATM   12  N   UNL     1     -42.120  57.473 -53.953  1.00  0.00    -0.355 N 
HETATM   13  H   UNL     1     -42.515  56.907 -54.699  1.00  0.00     0.162 HD
HETATM   14  O   UNL     1     -41.071  59.479 -53.577  1.00  0.00    -0.266 OA
BRANCH  12  15
HETATM   15  C   UNL     1     -41.785  56.899 -52.669  1.00  0.00     0.127 C 
BRANCH  15  16
HETATM   16  C   UNL     1     -42.402  55.519 -52.444  1.00  0.00     0.060 C 
BRANCH  16  17
HETATM   17  C   UNL     1     -41.411  54.508 -51.953  1.00  0.00    -0.029 A 
HETATM   18  C   UNL     1     -40.919  53.359 -52.652  1.00  0.00    -0.002 A 
HETATM   19  C   UNL     1     -41.156  52.807 -53.929  1.00  0.00     0.014 A 
HETATM   20  C   UNL     1     -40.020  52.707 -51.806  1.00  0.00     0.042 A 
HETATM   21  C   UNL     1     -40.490  51.634 -54.308  1.00  0.00     0.001 A 
HETATM   22  C   UNL     1     -39.600  51.009 -53.440  1.00  0.00     0.002 A 
HETATM   23  C   UNL     1     -39.346  51.536 -52.170  1.00  0.00     0.030 A 
HETATM   24  N   UNL     1     -39.966  53.430 -50.638  1.00  0.00    -0.365 N 
HETATM   25  H   UNL     1     -39.394  53.189 -49.841  1.00  0.00     0.165 HD
HETATM   26  C   UNL     1     -40.801  54.512 -50.712  1.00  0.00     0.096 A 
ENDBRANCH  16  17
ENDBRANCH  15  16
ENDBRANCH  12  15
ENDBRANCH   1  11
BRANCH   8  27
HETATM   27  C   UNL     1     -44.257  58.122 -59.277  1.00  0.00     0.409 C 
HETATM   28  F   UNL     1     -44.634  56.857 -58.992  1.00  0.00    -0.169 F 
HETATM   29  F   UNL     1     -45.047  58.960 -58.577  1.00  0.00    -0.169 F 
HETATM   30  F   UNL     1     -44.553  58.323 -60.590  1.00  0.00    -0.169 F 
ENDBRANCH   8  27
BRANCH   6  31
HETATM   31  C   UNL     1     -41.446  61.676 -60.461  1.00  0.00    -0.033 A 
HETATM   32  C   UNL     1     -40.606  62.383 -59.585  1.00  0.00     0.049 A 
HETATM   33  C   UNL     1     -39.621  63.181 -60.132  1.00  0.00     0.105 A 
HETATM   34  C   UNL     1     -39.447  63.300 -61.491  1.00  0.00     0.105 A 
HETATM   35  O   UNL     1     -38.723  63.926 -59.431  1.00  0.00    -0.323 OA
HETATM   36  O   UNL     1     -38.423  64.133 -61.816  1.00  0.00    -0.323 OA
HETATM   37  C   UNL     1     -40.242  62.622 -62.385  1.00  0.00     0.040 A 
HETATM   38  C   UNL     1     -37.960  64.516 -60.506  1.00  0.00     0.352 A 
HETATM   39  C   UNL     1     -41.243  61.799 -61.862  1.00  0.00     0.012 A 
ENDBRANCH   6  31
TORSDOF 6
ENDMDL
MODEL 10
REMARK VINA RESULT:      -8.7      3.527      4.885
REMARK  6 active torsions:
REMARK  status: ('A' for Active; 'I' for Inactive)
REMARK    1  A    between atoms: C_8  and  C_9 
REMARK    2  A    between atoms: C_9  and  C_10 
REMARK    3  A    between atoms: C_10  and  N_11 
REMARK       I    between atoms: N_11  and  C_12 
REMARK    4  A    between atoms: C_12  and  C_13 
REMARK    5  A    between atoms: C_18  and  C_19 
REMARK    6  A    between atoms: C_29  and  C_30 
ROOT
HETATM    1  C   UNL     1     -43.915  57.570 -54.508  1.00  0.00     0.148 C 
HETATM    2  N   UNL     1     -44.007  58.869 -54.883  1.00  0.00    -0.165 NA
HETATM    3  N   UNL     1     -43.795  58.819 -56.208  1.00  0.00    -0.240 N 
HETATM    4  C   UNL     1     -43.723  57.555 -56.715  1.00  0.00     0.123 C 
HETATM    5  N   UNL     1     -43.670  57.348 -58.045  1.00  0.00    -0.366 N 
HETATM    6  C   UNL     1     -44.151  58.351 -59.000  1.00  0.00     0.118 C 
HETATM    7  C   UNL     1     -44.575  59.683 -58.332  1.00  0.00     0.066 C 
HETATM    8  C   UNL     1     -43.793  59.996 -57.050  1.00  0.00     0.221 C 
HETATM    9  C   UNL     1     -43.712  56.720 -55.632  1.00  0.00     0.088 C 
HETATM   10  H   UNL     1     -43.660  56.395 -58.408  1.00  0.00     0.161 HD
ENDROOT
BRANCH   1  11
HETATM   11  C   UNL     1     -44.048  57.142 -53.107  1.00  0.00     0.272 C 
HETATM   12  N   UNL     1     -43.183  56.130 -52.759  1.00  0.00    -0.355 N 
HETATM   13  H   UNL     1     -42.487  55.887 -53.457  1.00  0.00     0.162 HD
HETATM   14  O   UNL     1     -44.842  57.657 -52.325  1.00  0.00    -0.266 OA
BRANCH  12  15
HETATM   15  C   UNL     1     -43.101  55.628 -51.405  1.00  0.00     0.127 C 
BRANCH  15  16
HETATM   16  C   UNL     1     -41.675  55.604 -50.855  1.00  0.00     0.060 C 
BRANCH  16  17
HETATM   17  C   UNL     1     -41.051  54.243 -50.907  1.00  0.00    -0.029 A 
HETATM   18  C   UNL     1     -40.649  53.513 -52.072  1.00  0.00    -0.002 A 
HETATM   19  C   UNL     1     -40.686  53.772 -53.459  1.00  0.00     0.014 A 
HETATM   20  C   UNL     1     -40.123  52.293 -51.641  1.00  0.00     0.042 A 
HETATM   21  C   UNL     1     -40.201  52.810 -54.355  1.00  0.00     0.001 A 
HETATM   22  C   UNL     1     -39.683  51.605 -53.891  1.00  0.00     0.002 A 
HETATM   23  C   UNL     1     -39.633  51.323 -52.523  1.00  0.00     0.030 A 
HETATM   24  N   UNL     1     -40.201  52.281 -50.268  1.00  0.00    -0.365 N 
HETATM   25  H   UNL     1     -39.891  51.518 -49.684  1.00  0.00     0.165 HD
HETATM   26  C   UNL     1     -40.760  53.445 -49.816  1.00  0.00     0.096 A 
ENDBRANCH  16  17
ENDBRANCH  15  16
ENDBRANCH  12  15
ENDBRANCH   1  11
BRANCH   8  27
HETATM   27  C   UNL     1     -42.376  60.443 -57.325  1.00  0.00     0.409 C 
HETATM   28  F   UNL     1     -41.739  60.852 -56.206  1.00  0.00    -0.169 F 
HETATM   29  F   UNL     1     -41.613  59.505 -57.920  1.00  0.00    -0.169 F 
HETATM   30  F   UNL     1     -42.395  61.512 -58.167  1.00  0.00    -0.169 F 
ENDBRANCH   8  27
BRANCH   6  31
HETATM   31  C   UNL     1     -45.310  57.742 -59.780  1.00  0.00    -0.033 A 
HETATM   32  C   UNL     1     -46.297  58.562 -60.351  1.00  0.00     0.049 A 
HETATM   33  C   UNL     1     -47.313  57.956 -61.064  1.00  0.00     0.105 A 
HETATM   34  C   UNL     1     -47.382  56.592 -61.221  1.00  0.00     0.105 A 
HETATM   35  O   UNL     1     -48.340  58.599 -61.682  1.00  0.00    -0.323 OA
HETATM   36  O   UNL     1     -48.459  56.204 -61.955  1.00  0.00    -0.323 OA
HETATM   37  C   UNL     1     -46.435  55.751 -60.684  1.00  0.00     0.040 A 
HETATM   38  C   UNL     1     -49.055  57.482 -62.256  1.00  0.00     0.352 A 
HETATM   39  C   UNL     1     -45.390  56.335 -59.965  1.00  0.00     0.012 A 
ENDBRANCH   6  31
TORSDOF 6
ENDMDL
