MODEL 1
REMARK VINA RESULT:      -7.8      0.000      0.000
REMARK  8 active torsions:
REMARK  status: ('A' for Active; 'I' for Inactive)
REMARK    1  A    between atoms: C_2  and  C_3 
REMARK    2  A    between atoms: C_3  and  O_4 
REMARK    3  A    between atoms: O_4  and  C_5 
REMARK    4  A    between atoms: C_8  and  C_9 
REMARK    5  A    between atoms: C_13  and  C_14 
REMARK       I    between atoms: C_14  and  N_15 
REMARK    6  A    between atoms: N_15  and  N_16 
REMARK    7  A    between atoms: C_17  and  C_18 
REMARK    8  A    between atoms: C_19  and  O_20 
ROOT
HETATM    1  C   UNL     1     -43.411  56.451 -52.361  1.00  0.00     0.089 A 
HETATM    2  N   UNL     1     -43.917  57.179 -53.367  1.00  0.00    -0.174 NA
HETATM    3  N   UNL     1     -44.725  58.068 -52.769  1.00  0.00    -0.272 N 
HETATM    4  H   UNL     1     -45.233  58.736 -53.341  1.00  0.00     0.189 HD
HETATM    5  C   UNL     1     -44.738  57.984 -51.404  1.00  0.00     0.121 A 
HETATM    6  C   UNL     1     -43.910  56.918 -51.114  1.00  0.00     0.071 A 
ENDROOT
BRANCH   5   7
HETATM    7  C   UNL     1     -45.499  58.908 -50.600  1.00  0.00     0.289 C 
HETATM    8  N   UNL     1     -44.790  60.020 -50.173  1.00  0.00    -0.242 N 
HETATM    9  H   UNL     1     -43.823  60.142 -50.438  1.00  0.00     0.192 HD
HETATM   10  O   UNL     1     -46.685  58.711 -50.349  1.00  0.00    -0.264 OA
BRANCH   8  11
HETATM   11  N   UNL     1     -45.421  61.008 -49.475  1.00  0.00    -0.183 NA
HETATM   12  C   UNL     1     -44.987  61.205 -48.270  1.00  0.00     0.153 C 
BRANCH  12  13
HETATM   13  C   UNL     1     -45.564  62.259 -47.414  1.00  0.00     0.016 A 
HETATM   14  C   UNL     1     -46.753  62.073 -46.700  1.00  0.00     0.077 A 
HETATM   15  C   UNL     1     -47.265  63.102 -45.913  1.00  0.00     0.037 A 
HETATM   16  C   UNL     1     -46.591  64.322 -45.837  1.00  0.00     0.003 A 
HETATM   17  C   UNL     1     -45.406  64.513 -46.546  1.00  0.00     0.001 A 
HETATM   18  C   UNL     1     -44.889  63.483 -47.336  1.00  0.00     0.016 A 
BRANCH  14  19
HETATM   19  O   UNL     1     -47.474  60.910 -46.724  1.00  0.00    -0.360 OA
HETATM   20  H   UNL     1     -48.224  61.021 -47.352  1.00  0.00     0.217 HD
ENDBRANCH  14  19
ENDBRANCH  12  13
ENDBRANCH   8  11
ENDBRANCH   5   7
BRANCH   1  21
HETATM   21  C   UNL     1     -42.447  55.373 -52.589  1.00  0.00    -0.005 A 
HETATM   22  C   UNL     1     -42.319  54.328 -51.665  1.00  0.00     0.016 A 
HETATM   23  C   UNL     1     -41.451  53.257 -51.907  1.00  0.00     0.037 A 
HETATM   24  C   UNL     1     -40.698  53.220 -53.079  1.00  0.00     0.068 A 
HETATM   25  C   UNL     1     -40.783  54.281 -53.980  1.00  0.00     0.037 A 
HETATM   26  C   UNL     1     -41.656  55.348 -53.745  1.00  0.00     0.016 A 
BRANCH  24  27
HETATM   27  O   UNL     1     -39.835  52.222 -53.434  1.00  0.00    -0.351 OA
BRANCH  27  28
HETATM   28  C   UNL     1     -39.539  51.266 -52.414  1.00  0.00     0.175 C 
BRANCH  28  29
HETATM   29  C   UNL     1     -39.626  49.877 -53.040  1.00  0.00     0.022 C 
HETATM   30  C   UNL     1     -39.836  49.944 -54.542  1.00  0.00     0.007 C 
ENDBRANCH  28  29
ENDBRANCH  27  28
ENDBRANCH  24  27
ENDBRANCH   1  21
TORSDOF 8
ENDMDL
MODEL 2
REMARK VINA RESULT:      -7.6      7.683     11.429
REMARK  8 active torsions:
REMARK  status: ('A' for Active; 'I' for Inactive)
REMARK    1  A    between atoms: C_2  and  C_3 
REMARK    2  A    between atoms: C_3  and  O_4 
REMARK    3  A    between atoms: O_4  and  C_5 
REMARK    4  A    between atoms: C_8  and  C_9 
REMARK    5  A    between atoms: C_13  and  C_14 
REMARK       I    between atoms: C_14  and  N_15 
REMARK    6  A    between atoms: N_15  and  N_16 
REMARK    7  A    between atoms: C_17  and  C_18 
REMARK    8  A    between atoms: C_19  and  O_20 
ROOT
HETATM    1  C   UNL     1     -42.632  57.366 -58.155  1.00  0.00     0.089 A 
HETATM    2  N   UNL     1     -43.515  56.480 -58.638  1.00  0.00    -0.174 NA
HETATM    3  N   UNL     1     -43.565  55.511 -57.712  1.00  0.00    -0.272 N 
HETATM    4  H   UNL     1     -44.175  54.713 -57.864  1.00  0.00     0.189 HD
HETATM    5  C   UNL     1     -42.782  55.743 -56.615  1.00  0.00     0.121 A 
HETATM    6  C   UNL     1     -42.141  56.934 -56.891  1.00  0.00     0.071 A 
ENDROOT
BRANCH   5   7
HETATM    7  C   UNL     1     -42.769  54.837 -55.494  1.00  0.00     0.289 C 
HETATM    8  N   UNL     1     -41.625  54.059 -55.393  1.00  0.00    -0.242 N 
HETATM    9  H   UNL     1     -40.877  54.162 -56.066  1.00  0.00     0.192 HD
HETATM   10  O   UNL     1     -43.701  54.794 -54.694  1.00  0.00    -0.264 OA
BRANCH   8  11
HETATM   11  N   UNL     1     -41.456  53.222 -54.330  1.00  0.00    -0.183 NA
HETATM   12  C   UNL     1     -40.395  52.481 -54.365  1.00  0.00     0.153 C 
BRANCH  12  13
HETATM   13  C   UNL     1     -40.078  51.547 -53.268  1.00  0.00     0.016 A 
HETATM   14  C   UNL     1     -39.834  50.188 -53.490  1.00  0.00     0.077 A 
HETATM   15  C   UNL     1     -39.551  49.343 -52.420  1.00  0.00     0.037 A 
HETATM   16  C   UNL     1     -39.511  49.854 -51.121  1.00  0.00     0.003 A 
HETATM   17  C   UNL     1     -39.754  51.208 -50.893  1.00  0.00     0.001 A 
HETATM   18  C   UNL     1     -40.038  52.058 -51.964  1.00  0.00     0.016 A 
BRANCH  14  19
HETATM   19  O   UNL     1     -39.857  49.611 -54.731  1.00  0.00    -0.360 OA
HETATM   20  H   UNL     1     -39.220  48.860 -54.737  1.00  0.00     0.217 HD
ENDBRANCH  14  19
ENDBRANCH  12  13
ENDBRANCH   8  11
ENDBRANCH   5   7
BRANCH   1  21
HETATM   21  C   UNL     1     -42.305  58.605 -58.863  1.00  0.00    -0.005 A 
HETATM   22  C   UNL     1     -42.312  58.645 -60.263  1.00  0.00     0.016 A 
HETATM   23  C   UNL     1     -42.069  59.841 -60.950  1.00  0.00     0.037 A 
HETATM   24  C   UNL     1     -41.815  61.013 -60.240  1.00  0.00     0.068 A 
HETATM   25  C   UNL     1     -41.759  60.971 -58.847  1.00  0.00     0.037 A 
HETATM   26  C   UNL     1     -42.009  59.780 -58.159  1.00  0.00     0.016 A 
BRANCH  24  27
HETATM   27  O   UNL     1     -41.585  62.240 -60.795  1.00  0.00    -0.351 OA
BRANCH  27  28
HETATM   28  C   UNL     1     -40.844  63.157 -59.988  1.00  0.00     0.175 C 
BRANCH  28  29
HETATM   29  C   UNL     1     -39.435  63.252 -60.566  1.00  0.00     0.022 C 
HETATM   30  C   UNL     1     -39.434  63.126 -62.079  1.00  0.00     0.007 C 
ENDBRANCH  28  29
ENDBRANCH  27  28
ENDBRANCH  24  27
ENDBRANCH   1  21
TORSDOF 8
ENDMDL
MODEL 3
REMARK VINA RESULT:      -7.6      2.052      2.493
REMARK  8 active torsions:
REMARK  status: ('A' for Active; 'I' for Inactive)
REMARK    1  A    between atoms: C_2  and  C_3 
REMARK    2  A    between atoms: C_3  and  O_4 
REMARK    3  A    between atoms: O_4  and  C_5 
REMARK    4  A    between atoms: C_8  and  C_9 
REMARK    5  A    between atoms: C_13  and  C_14 
REMARK       I    between atoms: C_14  and  N_15 
REMARK    6  A    between atoms: N_15  and  N_16 
REMARK    7  A    between atoms: C_17  and  C_18 
REMARK    8  A    between atoms: C_19  and  O_20 
ROOT
HETATM    1  C   UNL     1     -41.307  56.848 -52.969  1.00  0.00     0.089 A 
HETATM    2  N   UNL     1     -41.018  57.899 -53.750  1.00  0.00    -0.174 NA
HETATM    3  N   UNL     1     -41.327  58.971 -53.005  1.00  0.00    -0.272 N 
HETATM    4  H   UNL     1     -41.194  59.899 -53.396  1.00  0.00     0.189 HD
HETATM    5  C   UNL     1     -41.769  58.670 -51.746  1.00  0.00     0.121 A 
HETATM    6  C   UNL     1     -41.792  57.291 -51.707  1.00  0.00     0.071 A 
ENDROOT
BRANCH   5   7
HETATM    7  C   UNL     1     -42.081  59.704 -50.791  1.00  0.00     0.289 C 
HETATM    8  N   UNL     1     -43.433  59.984 -50.664  1.00  0.00    -0.242 N 
HETATM    9  H   UNL     1     -44.114  59.470 -51.206  1.00  0.00     0.192 HD
HETATM   10  O   UNL     1     -41.201  60.261 -50.139  1.00  0.00    -0.264 OA
BRANCH   8  11
HETATM   11  N   UNL     1     -43.863  60.884 -49.734  1.00  0.00    -0.183 NA
HETATM   12  C   UNL     1     -45.055  60.683 -49.270  1.00  0.00     0.153 C 
BRANCH  12  13
HETATM   13  C   UNL     1     -45.634  61.568 -48.241  1.00  0.00     0.016 A 
HETATM   14  C   UNL     1     -45.249  61.502 -46.897  1.00  0.00     0.077 A 
HETATM   15  C   UNL     1     -45.832  62.351 -45.960  1.00  0.00     0.037 A 
HETATM   16  C   UNL     1     -46.803  63.270 -46.361  1.00  0.00     0.003 A 
HETATM   17  C   UNL     1     -47.192  63.339 -47.699  1.00  0.00     0.001 A 
HETATM   18  C   UNL     1     -46.609  62.490 -48.642  1.00  0.00     0.016 A 
BRANCH  14  19
HETATM   19  O   UNL     1     -44.307  60.629 -46.424  1.00  0.00    -0.360 OA
HETATM   20  H   UNL     1     -43.440  61.095 -46.390  1.00  0.00     0.217 HD
ENDBRANCH  14  19
ENDBRANCH  12  13
ENDBRANCH   8  11
ENDBRANCH   5   7
BRANCH   1  21
HETATM   21  C   UNL     1     -41.084  55.469 -53.405  1.00  0.00    -0.005 A 
HETATM   22  C   UNL     1     -40.451  55.205 -54.627  1.00  0.00     0.016 A 
HETATM   23  C   UNL     1     -40.170  53.892 -55.022  1.00  0.00     0.037 A 
HETATM   24  C   UNL     1     -40.522  52.825 -54.197  1.00  0.00     0.068 A 
HETATM   25  C   UNL     1     -41.197  53.077 -53.002  1.00  0.00     0.037 A 
HETATM   26  C   UNL     1     -41.470  54.388 -52.602  1.00  0.00     0.016 A 
BRANCH  24  27
HETATM   27  O   UNL     1     -40.283  51.506 -54.464  1.00  0.00    -0.351 OA
BRANCH  27  28
HETATM   28  C   UNL     1     -39.203  50.913 -53.740  1.00  0.00     0.175 C 
BRANCH  28  29
HETATM   29  C   UNL     1     -39.744  49.675 -53.030  1.00  0.00     0.022 C 
HETATM   30  C   UNL     1     -39.563  49.761 -51.525  1.00  0.00     0.007 C 
ENDBRANCH  28  29
ENDBRANCH  27  28
ENDBRANCH  24  27
ENDBRANCH   1  21
TORSDOF 8
ENDMDL
MODEL 4
REMARK VINA RESULT:      -7.4      6.952      9.464
REMARK  8 active torsions:
REMARK  status: ('A' for Active; 'I' for Inactive)
REMARK    1  A    between atoms: C_2  and  C_3 
REMARK    2  A    between atoms: C_3  and  O_4 
REMARK    3  A    between atoms: O_4  and  C_5 
REMARK    4  A    between atoms: C_8  and  C_9 
REMARK    5  A    between atoms: C_13  and  C_14 
REMARK       I    between atoms: C_14  and  N_15 
REMARK    6  A    between atoms: N_15  and  N_16 
REMARK    7  A    between atoms: C_17  and  C_18 
REMARK    8  A    between atoms: C_19  and  O_20 
ROOT
HETATM    1  C   UNL     1     -42.593  55.467 -54.923  1.00  0.00     0.089 A 
HETATM    2  N   UNL     1     -43.731  55.976 -54.427  1.00  0.00    -0.174 NA
HETATM    3  N   UNL     1     -44.242  56.705 -55.431  1.00  0.00    -0.272 N 
HETATM    4  H   UNL     1     -45.117  57.200 -55.286  1.00  0.00     0.189 HD
HETATM    5  C   UNL     1     -43.509  56.661 -56.585  1.00  0.00     0.121 A 
HETATM    6  C   UNL     1     -42.414  55.882 -56.272  1.00  0.00     0.071 A 
ENDROOT
BRANCH   5   7
HETATM    7  C   UNL     1     -43.950  57.332 -57.783  1.00  0.00     0.289 C 
HETATM    8  N   UNL     1     -45.193  56.927 -58.247  1.00  0.00    -0.242 N 
HETATM    9  H   UNL     1     -45.720  56.224 -57.747  1.00  0.00     0.192 HD
HETATM   10  O   UNL     1     -43.270  58.205 -58.315  1.00  0.00    -0.264 OA
BRANCH   8  11
HETATM   11  N   UNL     1     -45.757  57.544 -59.325  1.00  0.00    -0.183 NA
HETATM   12  C   UNL     1     -46.804  56.962 -59.818  1.00  0.00     0.153 C 
BRANCH  12  13
HETATM   13  C   UNL     1     -47.525  57.536 -60.969  1.00  0.00     0.016 A 
HETATM   14  C   UNL     1     -47.723  58.914 -61.116  1.00  0.00     0.077 A 
HETATM   15  C   UNL     1     -48.421  59.408 -62.214  1.00  0.00     0.037 A 
HETATM   16  C   UNL     1     -48.925  58.527 -63.173  1.00  0.00     0.003 A 
HETATM   17  C   UNL     1     -48.732  57.153 -63.032  1.00  0.00     0.001 A 
HETATM   18  C   UNL     1     -48.032  56.654 -61.931  1.00  0.00     0.016 A 
BRANCH  14  19
HETATM   19  O   UNL     1     -47.263  59.841 -60.220  1.00  0.00    -0.360 OA
HETATM   20  H   UNL     1     -48.016  60.128 -59.655  1.00  0.00     0.217 HD
ENDBRANCH  14  19
ENDBRANCH  12  13
ENDBRANCH   8  11
ENDBRANCH   5   7
BRANCH   1  21
HETATM   21  C   UNL     1     -41.734  54.576 -54.142  1.00  0.00    -0.005 A 
HETATM   22  C   UNL     1     -41.803  54.572 -52.742  1.00  0.00     0.016 A 
HETATM   23  C   UNL     1     -41.036  53.676 -51.988  1.00  0.00     0.037 A 
HETATM   24  C   UNL     1     -40.189  52.773 -52.627  1.00  0.00     0.068 A 
HETATM   25  C   UNL     1     -40.078  52.804 -54.017  1.00  0.00     0.037 A 
HETATM   26  C   UNL     1     -40.850  53.692 -54.773  1.00  0.00     0.016 A 
BRANCH  24  27
HETATM   27  O   UNL     1     -39.409  51.840 -52.002  1.00  0.00    -0.351 OA
BRANCH  27  28
HETATM   28  C   UNL     1     -39.932  51.314 -50.780  1.00  0.00     0.175 C 
BRANCH  28  29
HETATM   29  C   UNL     1     -39.824  49.793 -50.845  1.00  0.00     0.022 C 
HETATM   30  C   UNL     1     -39.591  49.302 -52.263  1.00  0.00     0.007 C 
ENDBRANCH  28  29
ENDBRANCH  27  28
ENDBRANCH  24  27
ENDBRANCH   1  21
TORSDOF 8
ENDMDL
MODEL 5
REMARK VINA RESULT:      -7.3      7.521     11.394
REMARK  8 active torsions:
REMARK  status: ('A' for Active; 'I' for Inactive)
REMARK    1  A    between atoms: C_2  and  C_3 
REMARK    2  A    between atoms: C_3  and  O_4 
REMARK    3  A    between atoms: O_4  and  C_5 
REMARK    4  A    between atoms: C_8  and  C_9 
REMARK    5  A    between atoms: C_13  and  C_14 
REMARK       I    between atoms: C_14  and  N_15 
REMARK    6  A    between atoms: N_15  and  N_16 
REMARK    7  A    between atoms: C_17  and  C_18 
REMARK    8  A    between atoms: C_19  and  O_20 
ROOT
HETATM    1  C   UNL     1     -42.593  58.479 -58.633  1.00  0.00     0.089 A 
HETATM    2  N   UNL     1     -43.582  57.690 -59.077  1.00  0.00    -0.174 NA
HETATM    3  N   UNL     1     -43.672  56.712 -58.162  1.00  0.00    -0.272 N 
HETATM    4  H   UNL     1     -44.363  55.978 -58.290  1.00  0.00     0.189 HD
HETATM    5  C   UNL     1     -42.810  56.849 -57.109  1.00  0.00     0.121 A 
HETATM    6  C   UNL     1     -42.075  57.979 -57.406  1.00  0.00     0.071 A 
ENDROOT
BRANCH   5   7
HETATM    7  C   UNL     1     -42.820  55.924 -56.003  1.00  0.00     0.289 C 
HETATM    8  N   UNL     1     -41.815  54.969 -56.040  1.00  0.00    -0.242 N 
HETATM    9  H   UNL     1     -41.140  54.966 -56.793  1.00  0.00     0.192 HD
HETATM   10  O   UNL     1     -43.650  56.011 -55.102  1.00  0.00    -0.264 OA
BRANCH   8  11
HETATM   11  N   UNL     1     -41.667  54.088 -55.009  1.00  0.00    -0.183 NA
HETATM   12  C   UNL     1     -40.517  53.497 -54.938  1.00  0.00     0.153 C 
BRANCH  12  13
HETATM   13  C   UNL     1     -40.216  52.539 -53.858  1.00  0.00     0.016 A 
HETATM   14  C   UNL     1     -40.199  52.914 -52.510  1.00  0.00     0.077 A 
HETATM   15  C   UNL     1     -39.897  51.976 -51.526  1.00  0.00     0.037 A 
HETATM   16  C   UNL     1     -39.611  50.657 -51.885  1.00  0.00     0.003 A 
HETATM   17  C   UNL     1     -39.626  50.278 -53.227  1.00  0.00     0.001 A 
HETATM   18  C   UNL     1     -39.928  51.216 -54.217  1.00  0.00     0.016 A 
BRANCH  14  19
HETATM   19  O   UNL     1     -40.465  54.185 -52.077  1.00  0.00    -0.360 OA
HETATM   20  H   UNL     1     -40.820  54.703 -52.835  1.00  0.00     0.217 HD
ENDBRANCH  14  19
ENDBRANCH  12  13
ENDBRANCH   8  11
ENDBRANCH   5   7
BRANCH   1  21
HETATM   21  C   UNL     1     -42.190  59.695 -59.341  1.00  0.00    -0.005 A 
HETATM   22  C   UNL     1     -41.752  60.819 -58.629  1.00  0.00     0.016 A 
HETATM   23  C   UNL     1     -41.300  61.962 -59.298  1.00  0.00     0.037 A 
HETATM   24  C   UNL     1     -41.282  61.994 -60.692  1.00  0.00     0.068 A 
HETATM   25  C   UNL     1     -41.762  60.897 -61.407  1.00  0.00     0.037 A 
HETATM   26  C   UNL     1     -42.206  59.751 -60.741  1.00  0.00     0.016 A 
BRANCH  24  27
HETATM   27  O   UNL     1     -40.845  63.041 -61.454  1.00  0.00    -0.351 OA
BRANCH  27  28
HETATM   28  C   UNL     1     -39.499  62.946 -61.924  1.00  0.00     0.175 C 
BRANCH  28  29
HETATM   29  C   UNL     1     -38.769  64.219 -61.505  1.00  0.00     0.022 C 
HETATM   30  C   UNL     1     -38.381  64.193 -60.037  1.00  0.00     0.007 C 
ENDBRANCH  28  29
ENDBRANCH  27  28
ENDBRANCH  24  27
ENDBRANCH   1  21
TORSDOF 8
ENDMDL
MODEL 6
REMARK VINA RESULT:      -7.2      2.439     11.176
REMARK  8 active torsions:
REMARK  status: ('A' for Active; 'I' for Inactive)
REMARK    1  A    between atoms: C_2  and  C_3 
REMARK    2  A    between atoms: C_3  and  O_4 
REMARK    3  A    between atoms: O_4  and  C_5 
REMARK    4  A    between atoms: C_8  and  C_9 
REMARK    5  A    between atoms: C_13  and  C_14 
REMARK       I    between atoms: C_14  and  N_15 
REMARK    6  A    between atoms: N_15  and  N_16 
REMARK    7  A    between atoms: C_17  and  C_18 
REMARK    8  A    between atoms: C_19  and  O_20 
ROOT
HETATM    1  C   UNL     1     -44.880  61.169 -48.624  1.00  0.00     0.089 A 
HETATM    2  N   UNL     1     -45.854  60.285 -48.888  1.00  0.00    -0.174 NA
HETATM    3  N   UNL     1     -45.421  59.616 -49.968  1.00  0.00    -0.272 N 
HETATM    4  H   UNL     1     -46.005  58.885 -50.362  1.00  0.00     0.189 HD
HETATM    5  C   UNL     1     -44.180  59.995 -50.401  1.00  0.00     0.121 A 
HETATM    6  C   UNL     1     -43.817  61.026 -49.558  1.00  0.00     0.071 A 
ENDROOT
BRANCH   5   7
HETATM    7  C   UNL     1     -43.535  59.333 -51.507  1.00  0.00     0.289 C 
HETATM    8  N   UNL     1     -42.966  58.107 -51.195  1.00  0.00    -0.242 N 
HETATM    9  H   UNL     1     -43.033  57.738 -50.256  1.00  0.00     0.192 HD
HETATM   10  O   UNL     1     -43.526  59.827 -52.632  1.00  0.00    -0.264 OA
BRANCH   8  11
HETATM   11  N   UNL     1     -42.398  57.345 -52.173  1.00  0.00    -0.183 NA
HETATM   12  C   UNL     1     -41.978  56.178 -51.801  1.00  0.00     0.153 C 
BRANCH  12  13
HETATM   13  C   UNL     1     -41.366  55.243 -52.763  1.00  0.00     0.016 A 
HETATM   14  C   UNL     1     -41.145  55.587 -54.101  1.00  0.00     0.077 A 
HETATM   15  C   UNL     1     -40.574  54.667 -54.976  1.00  0.00     0.037 A 
HETATM   16  C   UNL     1     -40.221  53.396 -54.517  1.00  0.00     0.003 A 
HETATM   17  C   UNL     1     -40.439  53.047 -53.185  1.00  0.00     0.001 A 
HETATM   18  C   UNL     1     -41.012  53.968 -52.304  1.00  0.00     0.016 A 
BRANCH  14  19
HETATM   19  O   UNL     1     -41.465  56.809 -54.629  1.00  0.00    -0.360 OA
HETATM   20  H   UNL     1     -40.697  57.133 -55.153  1.00  0.00     0.217 HD
ENDBRANCH  14  19
ENDBRANCH  12  13
ENDBRANCH   8  11
ENDBRANCH   5   7
BRANCH   1  21
HETATM   21  C   UNL     1     -44.951  62.088 -47.487  1.00  0.00    -0.005 A 
HETATM   22  C   UNL     1     -45.072  61.594 -46.182  1.00  0.00     0.016 A 
HETATM   23  C   UNL     1     -45.071  62.461 -45.082  1.00  0.00     0.037 A 
HETATM   24  C   UNL     1     -44.951  63.836 -45.278  1.00  0.00     0.068 A 
HETATM   25  C   UNL     1     -44.880  64.339 -46.577  1.00  0.00     0.037 A 
HETATM   26  C   UNL     1     -44.871  63.475 -47.676  1.00  0.00     0.016 A 
BRANCH  24  27
HETATM   27  O   UNL     1     -44.917  64.776 -44.287  1.00  0.00    -0.351 OA
BRANCH  27  28
HETATM   28  C   UNL     1     -45.329  64.329 -42.993  1.00  0.00     0.175 C 
BRANCH  28  29
HETATM   29  C   UNL     1     -44.174  64.575 -42.027  1.00  0.00     0.022 C 
HETATM   30  C   UNL     1     -42.932  63.793 -42.416  1.00  0.00     0.007 C 
ENDBRANCH  28  29
ENDBRANCH  27  28
ENDBRANCH  24  27
ENDBRANCH   1  21
TORSDOF 8
ENDMDL
MODEL 7
REMARK VINA RESULT:      -7.1     19.623     21.789
REMARK  8 active torsions:
REMARK  status: ('A' for Active; 'I' for Inactive)
REMARK    1  A    between atoms: C_2  and  C_3 
REMARK    2  A    between atoms: C_3  and  O_4 
REMARK    3  A    between atoms: O_4  and  C_5 
REMARK    4  A    between atoms: C_8  and  C_9 
REMARK    5  A    between atoms: C_13  and  C_14 
REMARK       I    between atoms: C_14  and  N_15 
REMARK    6  A    between atoms: N_15  and  N_16 
REMARK    7  A    between atoms: C_17  and  C_18 
REMARK    8  A    between atoms: C_19  and  O_20 
ROOT
HETATM    1  C   UNL     1     -33.790  40.314 -54.001  1.00  0.00     0.089 A 
HETATM    2  N   UNL     1     -32.543  40.745 -54.240  1.00  0.00    -0.174 NA
HETATM    3  N   UNL     1     -31.839  40.361 -53.165  1.00  0.00    -0.272 N 
HETATM    4  H   UNL     1     -30.849  40.585 -53.116  1.00  0.00     0.189 HD
HETATM    5  C   UNL     1     -32.563  39.654 -52.244  1.00  0.00     0.121 A 
HETATM    6  C   UNL     1     -33.846  39.633 -52.753  1.00  0.00     0.071 A 
ENDROOT
BRANCH   5   7
HETATM    7  C   UNL     1     -31.946  39.107 -51.062  1.00  0.00     0.289 C 
HETATM    8  N   UNL     1     -31.368  40.048 -50.223  1.00  0.00    -0.242 N 
HETATM    9  H   UNL     1     -31.411  41.032 -50.454  1.00  0.00     0.192 HD
HETATM   10  O   UNL     1     -31.966  37.901 -50.828  1.00  0.00    -0.264 OA
BRANCH   8  11
HETATM   11  N   UNL     1     -30.825  39.665 -49.033  1.00  0.00    -0.183 NA
HETATM   12  C   UNL     1     -31.551  39.899 -47.986  1.00  0.00     0.153 C 
BRANCH  12  13
HETATM   13  C   UNL     1     -31.094  39.513 -46.637  1.00  0.00     0.016 A 
HETATM   14  C   UNL     1     -30.039  40.166 -45.991  1.00  0.00     0.077 A 
HETATM   15  C   UNL     1     -29.636  39.758 -44.722  1.00  0.00     0.037 A 
HETATM   16  C   UNL     1     -30.285  38.694 -44.093  1.00  0.00     0.003 A 
HETATM   17  C   UNL     1     -31.338  38.039 -44.733  1.00  0.00     0.001 A 
HETATM   18  C   UNL     1     -31.745  38.446 -46.005  1.00  0.00     0.016 A 
BRANCH  14  19
HETATM   19  O   UNL     1     -29.351  41.213 -46.540  1.00  0.00    -0.360 OA
HETATM   20  H   UNL     1     -29.294  41.073 -47.513  1.00  0.00     0.217 HD
ENDBRANCH  14  19
ENDBRANCH  12  13
ENDBRANCH   8  11
ENDBRANCH   5   7
BRANCH   1  21
HETATM   21  C   UNL     1     -34.879  40.511 -54.959  1.00  0.00    -0.005 A 
HETATM   22  C   UNL     1     -35.754  39.460 -55.265  1.00  0.00     0.016 A 
HETATM   23  C   UNL     1     -36.840  39.656 -56.126  1.00  0.00     0.037 A 
HETATM   24  C   UNL     1     -37.062  40.910 -56.694  1.00  0.00     0.068 A 
HETATM   25  C   UNL     1     -36.168  41.948 -56.433  1.00  0.00     0.037 A 
HETATM   26  C   UNL     1     -35.088  41.756 -55.566  1.00  0.00     0.016 A 
BRANCH  24  27
HETATM   27  O   UNL     1     -38.095  41.228 -57.530  1.00  0.00    -0.351 OA
BRANCH  27  28
HETATM   28  C   UNL     1     -38.219  40.415 -58.699  1.00  0.00     0.175 C 
BRANCH  28  29
HETATM   29  C   UNL     1     -37.204  40.915 -59.723  1.00  0.00     0.022 C 
HETATM   30  C   UNL     1     -37.370  42.397 -60.010  1.00  0.00     0.007 C 
ENDBRANCH  28  29
ENDBRANCH  27  28
ENDBRANCH  24  27
ENDBRANCH   1  21
TORSDOF 8
ENDMDL
MODEL 8
REMARK VINA RESULT:      -7.0      1.881      1.953
REMARK  8 active torsions:
REMARK  status: ('A' for Active; 'I' for Inactive)
REMARK    1  A    between atoms: C_2  and  C_3 
REMARK    2  A    between atoms: C_3  and  O_4 
REMARK    3  A    between atoms: O_4  and  C_5 
REMARK    4  A    between atoms: C_8  and  C_9 
REMARK    5  A    between atoms: C_13  and  C_14 
REMARK       I    between atoms: C_14  and  N_15 
REMARK    6  A    between atoms: N_15  and  N_16 
REMARK    7  A    between atoms: C_17  and  C_18 
REMARK    8  A    between atoms: C_19  and  O_20 
ROOT
HETATM    1  C   UNL     1     -42.057  57.985 -52.464  1.00  0.00     0.089 A 
HETATM    2  N   UNL     1     -41.617  58.966 -53.266  1.00  0.00    -0.174 NA
HETATM    3  N   UNL     1     -41.959  60.099 -52.635  1.00  0.00    -0.272 N 
HETATM    4  H   UNL     1     -41.729  60.991 -53.063  1.00  0.00     0.189 HD
HETATM    5  C   UNL     1     -42.569  59.906 -51.426  1.00  0.00     0.121 A 
HETATM    6  C   UNL     1     -42.670  58.535 -51.304  1.00  0.00     0.071 A 
ENDROOT
BRANCH   5   7
HETATM    7  C   UNL     1     -42.941  61.016 -50.585  1.00  0.00     0.289 C 
HETATM    8  N   UNL     1     -43.808  60.692 -49.552  1.00  0.00    -0.242 N 
HETATM    9  H   UNL     1     -44.119  59.738 -49.427  1.00  0.00     0.192 HD
HETATM   10  O   UNL     1     -42.492  62.143 -50.776  1.00  0.00    -0.264 OA
BRANCH   8  11
HETATM   11  N   UNL     1     -44.169  61.638 -48.638  1.00  0.00    -0.183 NA
HETATM   12  C   UNL     1     -45.319  61.456 -48.070  1.00  0.00     0.153 C 
BRANCH  12  13
HETATM   13  C   UNL     1     -45.820  62.390 -47.045  1.00  0.00     0.016 A 
HETATM   14  C   UNL     1     -46.982  62.137 -46.307  1.00  0.00     0.077 A 
HETATM   15  C   UNL     1     -47.423  63.056 -45.358  1.00  0.00     0.037 A 
HETATM   16  C   UNL     1     -46.704  64.233 -45.142  1.00  0.00     0.003 A 
HETATM   17  C   UNL     1     -45.546  64.491 -45.874  1.00  0.00     0.001 A 
HETATM   18  C   UNL     1     -45.100  63.572 -46.827  1.00  0.00     0.016 A 
BRANCH  14  19
HETATM   19  O   UNL     1     -47.743  61.010 -46.462  1.00  0.00    -0.360 OA
HETATM   20  H   UNL     1     -48.074  60.734 -45.577  1.00  0.00     0.217 HD
ENDBRANCH  14  19
ENDBRANCH  12  13
ENDBRANCH   8  11
ENDBRANCH   5   7
BRANCH   1  21
HETATM   21  C   UNL     1     -41.856  56.570 -52.782  1.00  0.00    -0.005 A 
HETATM   22  C   UNL     1     -42.561  55.580 -52.086  1.00  0.00     0.016 A 
HETATM   23  C   UNL     1     -42.428  54.229 -52.428  1.00  0.00     0.037 A 
HETATM   24  C   UNL     1     -41.585  53.853 -53.473  1.00  0.00     0.068 A 
HETATM   25  C   UNL     1     -40.842  54.829 -54.138  1.00  0.00     0.037 A 
HETATM   26  C   UNL     1     -40.980  56.180 -53.804  1.00  0.00     0.016 A 
BRANCH  24  27
HETATM   27  O   UNL     1     -41.389  52.573 -53.910  1.00  0.00    -0.351 OA
BRANCH  27  28
HETATM   28  C   UNL     1     -40.073  52.274 -54.382  1.00  0.00     0.175 C 
BRANCH  28  29
HETATM   29  C   UNL     1     -39.538  51.108 -53.557  1.00  0.00     0.022 C 
HETATM   30  C   UNL     1     -39.687  49.783 -54.285  1.00  0.00     0.007 C 
ENDBRANCH  28  29
ENDBRANCH  27  28
ENDBRANCH  24  27
ENDBRANCH   1  21
TORSDOF 8
ENDMDL
MODEL 9
REMARK VINA RESULT:      -7.0      6.967      9.389
REMARK  8 active torsions:
REMARK  status: ('A' for Active; 'I' for Inactive)
REMARK    1  A    between atoms: C_2  and  C_3 
REMARK    2  A    between atoms: C_3  and  O_4 
REMARK    3  A    between atoms: O_4  and  C_5 
REMARK    4  A    between atoms: C_8  and  C_9 
REMARK    5  A    between atoms: C_13  and  C_14 
REMARK       I    between atoms: C_14  and  N_15 
REMARK    6  A    between atoms: N_15  and  N_16 
REMARK    7  A    between atoms: C_17  and  C_18 
REMARK    8  A    between atoms: C_19  and  O_20 
ROOT
HETATM    1  C   UNL     1     -42.775  55.691 -55.119  1.00  0.00     0.089 A 
HETATM    2  N   UNL     1     -43.935  56.116 -54.597  1.00  0.00    -0.174 NA
HETATM    3  N   UNL     1     -44.435  56.953 -55.518  1.00  0.00    -0.272 N 
HETATM    4  H   UNL     1     -45.324  57.411 -55.339  1.00  0.00     0.189 HD
HETATM    5  C   UNL     1     -43.672  57.064 -56.647  1.00  0.00     0.121 A 
HETATM    6  C   UNL     1     -42.568  56.272 -56.401  1.00  0.00     0.071 A 
ENDROOT
BRANCH   5   7
HETATM    7  C   UNL     1     -44.096  57.869 -57.766  1.00  0.00     0.289 C 
HETATM    8  N   UNL     1     -43.183  58.837 -58.159  1.00  0.00    -0.242 N 
HETATM    9  H   UNL     1     -42.297  58.927 -57.682  1.00  0.00     0.192 HD
HETATM   10  O   UNL     1     -45.174  57.676 -58.322  1.00  0.00    -0.264 OA
BRANCH   8  11
HETATM   11  N   UNL     1     -43.432  59.607 -59.257  1.00  0.00    -0.183 NA
HETATM   12  C   UNL     1     -42.405  59.868 -60.002  1.00  0.00     0.153 C 
BRANCH  12  13
HETATM   13  C   UNL     1     -42.538  60.670 -61.232  1.00  0.00     0.016 A 
HETATM   14  C   UNL     1     -43.663  60.589 -62.059  1.00  0.00     0.077 A 
HETATM   15  C   UNL     1     -43.738  61.359 -63.217  1.00  0.00     0.037 A 
HETATM   16  C   UNL     1     -42.687  62.213 -63.555  1.00  0.00     0.003 A 
HETATM   17  C   UNL     1     -41.562  62.298 -62.735  1.00  0.00     0.001 A 
HETATM   18  C   UNL     1     -41.484  61.528 -61.572  1.00  0.00     0.016 A 
BRANCH  14  19
HETATM   19  O   UNL     1     -44.732  59.775 -61.800  1.00  0.00    -0.360 OA
HETATM   20  H   UNL     1     -45.024  59.365 -62.646  1.00  0.00     0.217 HD
ENDBRANCH  14  19
ENDBRANCH  12  13
ENDBRANCH   8  11
ENDBRANCH   5   7
BRANCH   1  21
HETATM   21  C   UNL     1     -41.917  54.727 -54.428  1.00  0.00    -0.005 A 
HETATM   22  C   UNL     1     -42.141  54.417 -53.080  1.00  0.00     0.016 A 
HETATM   23  C   UNL     1     -41.371  53.446 -52.428  1.00  0.00     0.037 A 
HETATM   24  C   UNL     1     -40.366  52.773 -53.120  1.00  0.00     0.068 A 
HETATM   25  C   UNL     1     -40.105  53.110 -54.448  1.00  0.00     0.037 A 
HETATM   26  C   UNL     1     -40.878  54.074 -55.103  1.00  0.00     0.016 A 
BRANCH  24  27
HETATM   27  O   UNL     1     -39.565  51.795 -52.600  1.00  0.00    -0.351 OA
BRANCH  27  28
HETATM   28  C   UNL     1     -39.508  50.578 -53.347  1.00  0.00     0.175 C 
BRANCH  28  29
HETATM   29  C   UNL     1     -39.712  49.423 -52.371  1.00  0.00     0.022 C 
HETATM   30  C   UNL     1     -39.565  49.869 -50.927  1.00  0.00     0.007 C 
ENDBRANCH  28  29
ENDBRANCH  27  28
ENDBRANCH  24  27
ENDBRANCH   1  21
TORSDOF 8
ENDMDL
MODEL 10
REMARK VINA RESULT:      -7.0     19.035     21.864
REMARK  8 active torsions:
REMARK  status: ('A' for Active; 'I' for Inactive)
REMARK    1  A    between atoms: C_2  and  C_3 
REMARK    2  A    between atoms: C_3  and  O_4 
REMARK    3  A    between atoms: O_4  and  C_5 
REMARK    4  A    between atoms: C_8  and  C_9 
REMARK    5  A    between atoms: C_13  and  C_14 
REMARK       I    between atoms: C_14  and  N_15 
REMARK    6  A    between atoms: N_15  and  N_16 
REMARK    7  A    between atoms: C_17  and  C_18 
REMARK    8  A    between atoms: C_19  and  O_20 
ROOT
HETATM    1  C   UNL     1     -35.170  41.074 -53.073  1.00  0.00     0.089 A 
HETATM    2  N   UNL     1     -35.890  42.188 -52.880  1.00  0.00    -0.174 NA
HETATM    3  N   UNL     1     -36.749  42.220 -53.910  1.00  0.00    -0.272 N 
HETATM    4  H   UNL     1     -37.406  42.991 -53.982  1.00  0.00     0.189 HD
HETATM    5  C   UNL     1     -36.654  41.146 -54.752  1.00  0.00     0.121 A 
HETATM    6  C   UNL     1     -35.612  40.397 -54.244  1.00  0.00     0.071 A 
ENDROOT
BRANCH   5   7
HETATM    7  C   UNL     1     -37.547  40.987 -55.872  1.00  0.00     0.289 C 
HETATM    8  N   UNL     1     -36.944  40.519 -57.030  1.00  0.00    -0.242 N 
HETATM    9  H   UNL     1     -35.956  40.305 -57.040  1.00  0.00     0.192 HD
HETATM   10  O   UNL     1     -38.747  41.231 -55.774  1.00  0.00    -0.264 OA
BRANCH   8  11
HETATM   11  N   UNL     1     -37.697  40.248 -58.134  1.00  0.00    -0.183 NA
HETATM   12  C   UNL     1     -37.362  39.183 -58.792  1.00  0.00     0.153 C 
BRANCH  12  13
HETATM   13  C   UNL     1     -38.109  38.761 -59.993  1.00  0.00     0.016 A 
HETATM   14  C   UNL     1     -37.553  38.816 -61.275  1.00  0.00     0.077 A 
HETATM   15  C   UNL     1     -38.301  38.417 -62.380  1.00  0.00     0.037 A 
HETATM   16  C   UNL     1     -39.609  37.962 -62.208  1.00  0.00     0.003 A 
HETATM   17  C   UNL     1     -40.169  37.906 -60.931  1.00  0.00     0.001 A 
HETATM   18  C   UNL     1     -39.421  38.304 -59.821  1.00  0.00     0.016 A 
BRANCH  14  19
HETATM   19  O   UNL     1     -36.280  39.252 -61.528  1.00  0.00    -0.360 OA
HETATM   20  H   UNL     1     -35.742  38.484 -61.829  1.00  0.00     0.217 HD
ENDBRANCH  14  19
ENDBRANCH  12  13
ENDBRANCH   8  11
ENDBRANCH   5   7
BRANCH   1  21
HETATM   21  C   UNL     1     -34.124  40.652 -52.140  1.00  0.00    -0.005 A 
HETATM   22  C   UNL     1     -32.790  40.565 -52.560  1.00  0.00     0.016 A 
HETATM   23  C   UNL     1     -31.772  40.230 -51.659  1.00  0.00     0.037 A 
HETATM   24  C   UNL     1     -32.079  39.976 -50.324  1.00  0.00     0.068 A 
HETATM   25  C   UNL     1     -33.411  40.012 -49.908  1.00  0.00     0.037 A 
HETATM   26  C   UNL     1     -34.427  40.355 -50.804  1.00  0.00     0.016 A 
BRANCH  24  27
HETATM   27  O   UNL     1     -31.174  39.661 -49.350  1.00  0.00    -0.351 OA
BRANCH  27  28
HETATM   28  C   UNL     1     -31.602  39.893 -48.006  1.00  0.00     0.175 C 
BRANCH  28  29
HETATM   29  C   UNL     1     -30.421  39.601 -47.085  1.00  0.00     0.022 C 
HETATM   30  C   UNL     1     -30.849  38.849 -45.837  1.00  0.00     0.007 C 
ENDBRANCH  28  29
ENDBRANCH  27  28
ENDBRANCH  24  27
ENDBRANCH   1  21
TORSDOF 8
ENDMDL
