MODEL 1
REMARK VINA RESULT:      -9.0      0.000      0.000
REMARK  4 active torsions:
REMARK  status: ('A' for Active; 'I' for Inactive)
REMARK    1  A    between atoms: C_6  and  C_7 
REMARK    2  A    between atoms: C_10  and  N_11 
REMARK       I    between atoms: N_11  and  C_12 
REMARK    3  A    between atoms: C_24  and  C_25 
REMARK       I    between atoms: C_25  and  N_26 
REMARK    4  A    between atoms: N_26  and  C_27 
ROOT
HETATM    1  C   UNL     1     -44.271  54.633 -50.223  1.00  0.00     0.070 C 
HETATM    2  C   UNL     1     -44.137  55.986 -50.876  1.00  0.00     0.037 C 
HETATM    3  N   UNL     1     -45.172  56.879 -50.608  1.00  0.00    -0.193 N 
HETATM    4  C   UNL     1     -45.033  58.215 -50.729  1.00  0.00     0.709 A 
HETATM    5  N   UNL     1     -43.940  58.711 -51.392  1.00  0.00    -0.165 N 
HETATM    6  C   UNL     1     -42.968  57.849 -52.080  1.00  0.00     0.182 C 
HETATM    7  N   UNL     1     -45.784  59.172 -50.248  1.00  0.00    -0.062 NA
HETATM    8  C   UNL     1     -45.116  60.336 -50.559  1.00  0.00     0.103 A 
HETATM    9  C   UNL     1     -43.942  60.077 -51.266  1.00  0.00     0.082 A 
HETATM   10  C   UNL     1     -45.455  61.664 -50.255  1.00  0.00     0.034 A 
HETATM   11  C   UNL     1     -44.595  62.689 -50.665  1.00  0.00     0.002 A 
HETATM   12  C   UNL     1     -43.423  62.403 -51.368  1.00  0.00     0.002 A 
HETATM   13  C   UNL     1     -43.071  61.087 -51.687  1.00  0.00     0.032 A 
HETATM   14  C   UNL     1     -43.066  56.406 -51.597  1.00  0.00     0.061 C 
HETATM   15  H   UNL     1     -45.904  56.561 -49.979  1.00  0.00     0.184 HD
ENDROOT
BRANCH   6  16
HETATM   16  C   UNL     1     -43.168  58.000 -53.588  1.00  0.00    -0.030 A 
HETATM   17  C   UNL     1     -44.380  57.615 -54.179  1.00  0.00     0.012 A 
HETATM   18  C   UNL     1     -44.521  57.576 -55.573  1.00  0.00     0.030 A 
HETATM   19  C   UNL     1     -43.461  57.934 -56.404  1.00  0.00     0.034 A 
HETATM   20  C   UNL     1     -42.275  58.392 -55.821  1.00  0.00     0.030 A 
HETATM   21  C   UNL     1     -42.126  58.423 -54.430  1.00  0.00     0.012 A 
BRANCH  19  22
HETATM   22  N   UNL     1     -43.484  57.826 -57.811  1.00  0.00    -0.328 N 
HETATM   23  C   UNL     1     -43.290  56.686 -58.571  1.00  0.00     0.218 C 
HETATM   24  C   UNL     1     -43.267  56.986 -60.049  1.00  0.00     0.117 C 
HETATM   25  O   UNL     1     -43.159  55.538 -58.161  1.00  0.00    -0.274 OA
HETATM   26  H   UNL     1     -43.586  58.696 -58.317  1.00  0.00     0.169 HD
ENDBRANCH  19  22
ENDBRANCH   6  16
BRANCH  14  27
HETATM   27  C   UNL     1     -41.824  55.609 -51.805  1.00  0.00     0.256 C 
HETATM   28  N   UNL     1     -41.970  54.548 -52.671  1.00  0.00    -0.323 N 
HETATM   29  H   UNL     1     -42.843  54.480 -53.174  1.00  0.00     0.169 HD
HETATM   30  O   UNL     1     -40.800  55.956 -51.229  1.00  0.00    -0.267 OA
BRANCH  28  31
HETATM   31  C   UNL     1     -41.066  53.478 -52.857  1.00  0.00     0.035 A 
HETATM   32  C   UNL     1     -40.302  52.914 -51.832  1.00  0.00     0.029 A 
HETATM   33  C   UNL     1     -39.479  51.811 -52.083  1.00  0.00     0.002 A 
HETATM   34  C   UNL     1     -39.414  51.260 -53.360  1.00  0.00     0.000 A 
HETATM   35  C   UNL     1     -40.166  51.817 -54.390  1.00  0.00     0.002 A 
HETATM   36  C   UNL     1     -40.985  52.922 -54.140  1.00  0.00     0.029 A 
ENDBRANCH  28  31
ENDBRANCH  14  27
TORSDOF 4
ENDMDL
MODEL 2
REMARK VINA RESULT:      -8.5      0.631      1.340
REMARK  4 active torsions:
REMARK  status: ('A' for Active; 'I' for Inactive)
REMARK    1  A    between atoms: C_6  and  C_7 
REMARK    2  A    between atoms: C_10  and  N_11 
REMARK       I    between atoms: N_11  and  C_12 
REMARK    3  A    between atoms: C_24  and  C_25 
REMARK       I    between atoms: C_25  and  N_26 
REMARK    4  A    between atoms: N_26  and  C_27 
ROOT
HETATM    1  C   UNL     1     -44.240  54.713 -50.197  1.00  0.00     0.070 C 
HETATM    2  C   UNL     1     -44.107  56.012 -50.951  1.00  0.00     0.037 C 
HETATM    3  N   UNL     1     -45.097  56.955 -50.687  1.00  0.00    -0.193 N 
HETATM    4  C   UNL     1     -44.927  58.274 -50.912  1.00  0.00     0.709 A 
HETATM    5  N   UNL     1     -43.863  58.686 -51.673  1.00  0.00    -0.165 N 
HETATM    6  C   UNL     1     -42.961  57.746 -52.354  1.00  0.00     0.182 C 
HETATM    7  N   UNL     1     -45.619  59.287 -50.457  1.00  0.00    -0.062 NA
HETATM    8  C   UNL     1     -44.938  60.403 -50.891  1.00  0.00     0.103 A 
HETATM    9  C   UNL     1     -43.818  60.057 -51.646  1.00  0.00     0.082 A 
HETATM   10  C   UNL     1     -45.218  61.760 -50.663  1.00  0.00     0.034 A 
HETATM   11  C   UNL     1     -44.356  62.725 -51.196  1.00  0.00     0.002 A 
HETATM   12  C   UNL     1     -43.238  62.351 -51.945  1.00  0.00     0.002 A 
HETATM   13  C   UNL     1     -42.945  61.005 -52.190  1.00  0.00     0.032 A 
HETATM   14  C   UNL     1     -43.071  56.345 -51.763  1.00  0.00     0.061 C 
HETATM   15  H   UNL     1     -45.798  56.707 -49.995  1.00  0.00     0.184 HD
ENDROOT
BRANCH   6  16
HETATM   16  C   UNL     1     -43.250  57.798 -53.855  1.00  0.00    -0.030 A 
HETATM   17  C   UNL     1     -42.245  58.191 -54.751  1.00  0.00     0.012 A 
HETATM   18  C   UNL     1     -42.536  58.418 -56.103  1.00  0.00     0.030 A 
HETATM   19  C   UNL     1     -43.831  58.246 -56.590  1.00  0.00     0.034 A 
HETATM   20  C   UNL     1     -44.820  57.782 -55.717  1.00  0.00     0.030 A 
HETATM   21  C   UNL     1     -44.537  57.562 -54.365  1.00  0.00     0.012 A 
BRANCH  19  22
HETATM   22  N   UNL     1     -44.230  58.551 -57.909  1.00  0.00    -0.328 N 
HETATM   23  C   UNL     1     -44.329  57.681 -58.980  1.00  0.00     0.218 C 
HETATM   24  C   UNL     1     -44.673  58.397 -60.263  1.00  0.00     0.117 C 
HETATM   25  O   UNL     1     -44.181  56.464 -58.961  1.00  0.00    -0.274 OA
HETATM   26  H   UNL     1     -44.396  59.529 -58.103  1.00  0.00     0.169 HD
ENDBRANCH  19  22
ENDBRANCH   6  16
BRANCH  14  27
HETATM   27  C   UNL     1     -41.868  55.493 -51.987  1.00  0.00     0.256 C 
HETATM   28  N   UNL     1     -42.083  54.416 -52.818  1.00  0.00    -0.323 N 
HETATM   29  H   UNL     1     -42.974  54.368 -53.291  1.00  0.00     0.169 HD
HETATM   30  O   UNL     1     -40.814  55.816 -51.454  1.00  0.00    -0.267 OA
BRANCH  28  31
HETATM   31  C   UNL     1     -41.228  53.306 -53.001  1.00  0.00     0.035 A 
HETATM   32  C   UNL     1     -41.039  52.660 -54.225  1.00  0.00     0.029 A 
HETATM   33  C   UNL     1     -40.122  51.608 -54.341  1.00  0.00     0.002 A 
HETATM   34  C   UNL     1     -39.385  51.195 -53.235  1.00  0.00     0.000 A 
HETATM   35  C   UNL     1     -39.570  51.828 -52.008  1.00  0.00     0.002 A 
HETATM   36  C   UNL     1     -40.489  52.875 -51.892  1.00  0.00     0.029 A 
ENDBRANCH  28  31
ENDBRANCH  14  27
TORSDOF 4
ENDMDL
MODEL 3
REMARK VINA RESULT:      -8.5      2.039      6.617
REMARK  4 active torsions:
REMARK  status: ('A' for Active; 'I' for Inactive)
REMARK    1  A    between atoms: C_6  and  C_7 
REMARK    2  A    between atoms: C_10  and  N_11 
REMARK       I    between atoms: N_11  and  C_12 
REMARK    3  A    between atoms: C_24  and  C_25 
REMARK       I    between atoms: C_25  and  N_26 
REMARK    4  A    between atoms: N_26  and  C_27 
ROOT
HETATM    1  C   UNL     1     -41.691  59.728 -57.728  1.00  0.00     0.070 C 
HETATM    2  C   UNL     1     -42.142  59.212 -56.384  1.00  0.00     0.037 C 
HETATM    3  N   UNL     1     -41.859  60.046 -55.304  1.00  0.00    -0.193 N 
HETATM    4  C   UNL     1     -42.531  59.980 -54.136  1.00  0.00     0.709 A 
HETATM    5  N   UNL     1     -43.330  58.893 -53.890  1.00  0.00    -0.165 N 
HETATM    6  C   UNL     1     -43.399  57.736 -54.795  1.00  0.00     0.182 C 
HETATM    7  N   UNL     1     -42.589  60.855 -53.166  1.00  0.00    -0.062 NA
HETATM    8  C   UNL     1     -43.514  60.342 -52.282  1.00  0.00     0.103 A 
HETATM    9  C   UNL     1     -44.010  59.114 -52.720  1.00  0.00     0.082 A 
HETATM   10  C   UNL     1     -43.990  60.884 -51.078  1.00  0.00     0.034 A 
HETATM   11  C   UNL     1     -44.958  60.176 -50.357  1.00  0.00     0.002 A 
HETATM   12  C   UNL     1     -45.442  58.951 -50.819  1.00  0.00     0.002 A 
HETATM   13  C   UNL     1     -44.976  58.389 -52.013  1.00  0.00     0.032 A 
HETATM   14  C   UNL     1     -42.864  58.081 -56.180  1.00  0.00     0.061 C 
HETATM   15  H   UNL     1     -41.409  60.933 -55.511  1.00  0.00     0.184 HD
ENDROOT
BRANCH   6  16
HETATM   16  C   UNL     1     -42.672  56.563 -54.136  1.00  0.00    -0.030 A 
HETATM   17  C   UNL     1     -41.276  56.467 -54.216  1.00  0.00     0.012 A 
HETATM   18  C   UNL     1     -40.607  55.315 -53.779  1.00  0.00     0.030 A 
HETATM   19  C   UNL     1     -41.317  54.242 -53.241  1.00  0.00     0.034 A 
HETATM   20  C   UNL     1     -42.703  54.363 -53.090  1.00  0.00     0.030 A 
HETATM   21  C   UNL     1     -43.375  55.507 -53.533  1.00  0.00     0.012 A 
BRANCH  19  22
HETATM   22  N   UNL     1     -40.737  53.010 -52.873  1.00  0.00    -0.328 N 
HETATM   23  C   UNL     1     -40.057  52.716 -51.704  1.00  0.00     0.218 C 
HETATM   24  C   UNL     1     -39.474  51.325 -51.721  1.00  0.00     0.117 C 
HETATM   25  O   UNL     1     -39.916  53.444 -50.728  1.00  0.00    -0.274 OA
HETATM   26  H   UNL     1     -40.765  52.283 -53.576  1.00  0.00     0.169 HD
ENDBRANCH  19  22
ENDBRANCH   6  16
BRANCH  14  27
HETATM   27  C   UNL     1     -43.377  57.200 -57.268  1.00  0.00     0.256 C 
HETATM   28  N   UNL     1     -44.300  57.800 -58.095  1.00  0.00    -0.323 N 
HETATM   29  H   UNL     1     -44.451  58.792 -57.976  1.00  0.00     0.169 HD
HETATM   30  O   UNL     1     -42.939  56.060 -57.355  1.00  0.00    -0.267 OA
BRANCH  28  31
HETATM   31  C   UNL     1     -45.144  57.156 -59.028  1.00  0.00     0.035 A 
HETATM   32  C   UNL     1     -46.532  57.310 -59.062  1.00  0.00     0.029 A 
HETATM   33  C   UNL     1     -47.292  56.691 -60.060  1.00  0.00     0.002 A 
HETATM   34  C   UNL     1     -46.672  55.914 -61.034  1.00  0.00     0.000 A 
HETATM   35  C   UNL     1     -45.290  55.748 -61.007  1.00  0.00     0.002 A 
HETATM   36  C   UNL     1     -44.531  56.363 -60.007  1.00  0.00     0.029 A 
ENDBRANCH  28  31
ENDBRANCH  14  27
TORSDOF 4
ENDMDL
MODEL 4
REMARK VINA RESULT:      -8.4      2.704      5.096
REMARK  4 active torsions:
REMARK  status: ('A' for Active; 'I' for Inactive)
REMARK    1  A    between atoms: C_6  and  C_7 
REMARK    2  A    between atoms: C_10  and  N_11 
REMARK       I    between atoms: N_11  and  C_12 
REMARK    3  A    between atoms: C_24  and  C_25 
REMARK       I    between atoms: C_25  and  N_26 
REMARK    4  A    between atoms: N_26  and  C_27 
ROOT
HETATM    1  C   UNL     1     -42.867  55.741 -57.016  1.00  0.00     0.070 C 
HETATM    2  C   UNL     1     -43.096  56.641 -55.828  1.00  0.00     0.037 C 
HETATM    3  N   UNL     1     -43.487  57.942 -56.136  1.00  0.00    -0.193 N 
HETATM    4  C   UNL     1     -44.135  58.736 -55.259  1.00  0.00     0.709 A 
HETATM    5  N   UNL     1     -44.177  58.371 -53.937  1.00  0.00    -0.165 N 
HETATM    6  C   UNL     1     -43.448  57.208 -53.411  1.00  0.00     0.182 C 
HETATM    7  N   UNL     1     -44.810  59.835 -55.480  1.00  0.00    -0.062 NA
HETATM    8  C   UNL     1     -45.365  60.160 -54.262  1.00  0.00     0.103 A 
HETATM    9  C   UNL     1     -44.997  59.247 -53.274  1.00  0.00     0.082 A 
HETATM   10  C   UNL     1     -46.213  61.228 -53.928  1.00  0.00     0.034 A 
HETATM   11  C   UNL     1     -46.670  61.338 -52.609  1.00  0.00     0.002 A 
HETATM   12  C   UNL     1     -46.290  60.407 -51.640  1.00  0.00     0.002 A 
HETATM   13  C   UNL     1     -45.440  59.340 -51.950  1.00  0.00     0.032 A 
HETATM   14  C   UNL     1     -43.046  56.252 -54.528  1.00  0.00     0.061 C 
HETATM   15  H   UNL     1     -43.615  58.165 -57.119  1.00  0.00     0.184 HD
ENDROOT
BRANCH   6  16
HETATM   16  C   UNL     1     -42.263  57.712 -52.585  1.00  0.00    -0.030 A 
HETATM   17  C   UNL     1     -42.153  57.369 -51.230  1.00  0.00     0.012 A 
HETATM   18  C   UNL     1     -41.180  57.962 -50.414  1.00  0.00     0.030 A 
HETATM   19  C   UNL     1     -40.290  58.899 -50.937  1.00  0.00     0.034 A 
HETATM   20  C   UNL     1     -40.346  59.189 -52.305  1.00  0.00     0.030 A 
HETATM   21  C   UNL     1     -41.321  58.606 -53.120  1.00  0.00     0.012 A 
BRANCH  19  22
HETATM   22  N   UNL     1     -39.350  59.618 -50.167  1.00  0.00    -0.328 N 
HETATM   23  C   UNL     1     -37.974  59.477 -50.174  1.00  0.00     0.218 C 
HETATM   24  C   UNL     1     -37.311  60.336 -49.125  1.00  0.00     0.117 C 
HETATM   25  O   UNL     1     -37.306  58.771 -50.921  1.00  0.00    -0.274 OA
HETATM   26  H   UNL     1     -39.737  60.258 -49.486  1.00  0.00     0.169 HD
ENDBRANCH  19  22
ENDBRANCH   6  16
BRANCH  14  27
HETATM   27  C   UNL     1     -42.812  54.851 -54.076  1.00  0.00     0.256 C 
HETATM   28  N   UNL     1     -41.549  54.619 -53.578  1.00  0.00    -0.323 N 
HETATM   29  H   UNL     1     -40.950  55.422 -53.448  1.00  0.00     0.169 HD
HETATM   30  O   UNL     1     -43.732  54.047 -54.156  1.00  0.00    -0.267 OA
BRANCH  28  31
HETATM   31  C   UNL     1     -40.957  53.361 -53.327  1.00  0.00     0.035 A 
HETATM   32  C   UNL     1     -40.716  52.401 -54.313  1.00  0.00     0.029 A 
HETATM   33  C   UNL     1     -40.063  51.205 -53.997  1.00  0.00     0.002 A 
HETATM   34  C   UNL     1     -39.643  50.958 -52.693  1.00  0.00     0.000 A 
HETATM   35  C   UNL     1     -39.883  51.904 -51.701  1.00  0.00     0.002 A 
HETATM   36  C   UNL     1     -40.540  53.097 -52.016  1.00  0.00     0.029 A 
ENDBRANCH  28  31
ENDBRANCH  14  27
TORSDOF 4
ENDMDL
MODEL 5
REMARK VINA RESULT:      -8.4      2.477      6.186
REMARK  4 active torsions:
REMARK  status: ('A' for Active; 'I' for Inactive)
REMARK    1  A    between atoms: C_6  and  C_7 
REMARK    2  A    between atoms: C_10  and  N_11 
REMARK       I    between atoms: N_11  and  C_12 
REMARK    3  A    between atoms: C_24  and  C_25 
REMARK       I    between atoms: C_25  and  N_26 
REMARK    4  A    between atoms: N_26  and  C_27 
ROOT
HETATM    1  C   UNL     1     -40.548  54.729 -55.298  1.00  0.00     0.070 C 
HETATM    2  C   UNL     1     -41.642  55.753 -55.463  1.00  0.00     0.037 C 
HETATM    3  N   UNL     1     -41.773  56.280 -56.746  1.00  0.00    -0.193 N 
HETATM    4  C   UNL     1     -42.912  56.853 -57.187  1.00  0.00     0.709 A 
HETATM    5  N   UNL     1     -43.886  57.179 -56.278  1.00  0.00    -0.165 N 
HETATM    6  C   UNL     1     -43.699  57.039 -54.827  1.00  0.00     0.182 C 
HETATM    7  N   UNL     1     -43.283  57.118 -58.413  1.00  0.00    -0.062 NA
HETATM    8  C   UNL     1     -44.577  57.577 -58.299  1.00  0.00     0.103 A 
HETATM    9  C   UNL     1     -44.990  57.612 -56.967  1.00  0.00     0.082 A 
HETATM   10  C   UNL     1     -45.471  57.975 -59.305  1.00  0.00     0.034 A 
HETATM   11  C   UNL     1     -46.758  58.389 -58.938  1.00  0.00     0.002 A 
HETATM   12  C   UNL     1     -47.147  58.410 -57.598  1.00  0.00     0.002 A 
HETATM   13  C   UNL     1     -46.269  58.024 -56.579  1.00  0.00     0.032 A 
HETATM   14  C   UNL     1     -42.536  56.107 -54.504  1.00  0.00     0.061 C 
HETATM   15  H   UNL     1     -41.151  55.913 -57.461  1.00  0.00     0.184 HD
ENDROOT
BRANCH   6  16
HETATM   16  C   UNL     1     -43.545  58.435 -54.221  1.00  0.00    -0.030 A 
HETATM   17  C   UNL     1     -42.305  59.087 -54.262  1.00  0.00     0.012 A 
HETATM   18  C   UNL     1     -42.096  60.282 -53.560  1.00  0.00     0.030 A 
HETATM   19  C   UNL     1     -43.124  60.857 -52.815  1.00  0.00     0.034 A 
HETATM   20  C   UNL     1     -44.385  60.251 -52.832  1.00  0.00     0.030 A 
HETATM   21  C   UNL     1     -44.595  59.054 -53.523  1.00  0.00     0.012 A 
BRANCH  19  22
HETATM   22  N   UNL     1     -42.971  61.998 -51.999  1.00  0.00    -0.328 N 
HETATM   23  C   UNL     1     -42.903  62.042 -50.618  1.00  0.00     0.218 C 
HETATM   24  C   UNL     1     -42.861  63.457 -50.096  1.00  0.00     0.117 C 
HETATM   25  O   UNL     1     -42.865  61.088 -49.849  1.00  0.00    -0.274 OA
HETATM   26  H   UNL     1     -42.982  62.888 -52.480  1.00  0.00     0.169 HD
ENDBRANCH  19  22
ENDBRANCH   6  16
BRANCH  14  27
HETATM   27  C   UNL     1     -42.610  55.488 -53.150  1.00  0.00     0.256 C 
HETATM   28  N   UNL     1     -41.529  55.762 -52.342  1.00  0.00    -0.323 N 
HETATM   29  H   UNL     1     -40.861  56.441 -52.679  1.00  0.00     0.169 HD
HETATM   30  O   UNL     1     -43.599  54.826 -52.861  1.00  0.00    -0.267 OA
BRANCH  28  31
HETATM   31  C   UNL     1     -41.193  55.115 -51.132  1.00  0.00     0.035 A 
HETATM   32  C   UNL     1     -41.336  55.697 -49.870  1.00  0.00     0.029 A 
HETATM   33  C   UNL     1     -41.044  54.966 -48.712  1.00  0.00     0.002 A 
HETATM   34  C   UNL     1     -40.609  53.647 -48.806  1.00  0.00     0.000 A 
HETATM   35  C   UNL     1     -40.457  53.059 -50.059  1.00  0.00     0.002 A 
HETATM   36  C   UNL     1     -40.744  53.791 -51.215  1.00  0.00     0.029 A 
ENDBRANCH  28  31
ENDBRANCH  14  27
TORSDOF 4
ENDMDL
MODEL 6
REMARK VINA RESULT:      -8.3      2.727      6.808
REMARK  4 active torsions:
REMARK  status: ('A' for Active; 'I' for Inactive)
REMARK    1  A    between atoms: C_6  and  C_7 
REMARK    2  A    between atoms: C_10  and  N_11 
REMARK       I    between atoms: N_11  and  C_12 
REMARK    3  A    between atoms: C_24  and  C_25 
REMARK       I    between atoms: C_25  and  N_26 
REMARK    4  A    between atoms: N_26  and  C_27 
ROOT
HETATM    1  C   UNL     1     -45.247  60.158 -53.474  1.00  0.00     0.070 C 
HETATM    2  C   UNL     1     -44.871  59.144 -54.525  1.00  0.00     0.037 C 
HETATM    3  N   UNL     1     -45.929  58.667 -55.295  1.00  0.00    -0.193 N 
HETATM    4  C   UNL     1     -45.755  58.116 -56.513  1.00  0.00     0.709 A 
HETATM    5  N   UNL     1     -44.491  57.758 -56.905  1.00  0.00    -0.165 N 
HETATM    6  C   UNL     1     -43.327  57.842 -56.011  1.00  0.00     0.182 C 
HETATM    7  N   UNL     1     -46.636  57.899 -57.456  1.00  0.00    -0.062 NA
HETATM    8  C   UNL     1     -45.900  57.440 -58.527  1.00  0.00     0.103 A 
HETATM    9  C   UNL     1     -44.543  57.355 -58.215  1.00  0.00     0.082 A 
HETATM   10  C   UNL     1     -46.331  57.082 -59.814  1.00  0.00     0.034 A 
HETATM   11  C   UNL     1     -45.380  56.659 -60.751  1.00  0.00     0.002 A 
HETATM   12  C   UNL     1     -44.027  56.588 -60.414  1.00  0.00     0.002 A 
HETATM   13  C   UNL     1     -43.577  56.933 -59.135  1.00  0.00     0.032 A 
HETATM   14  C   UNL     1     -43.604  58.757 -54.824  1.00  0.00     0.061 C 
HETATM   15  H   UNL     1     -46.849  59.059 -55.109  1.00  0.00     0.184 HD
ENDROOT
BRANCH   6  16
HETATM   16  C   UNL     1     -42.925  56.423 -55.604  1.00  0.00    -0.030 A 
HETATM   17  C   UNL     1     -43.652  55.742 -54.618  1.00  0.00     0.012 A 
HETATM   18  C   UNL     1     -43.197  54.519 -54.104  1.00  0.00     0.030 A 
HETATM   19  C   UNL     1     -42.016  53.947 -54.574  1.00  0.00     0.034 A 
HETATM   20  C   UNL     1     -41.327  54.585 -55.611  1.00  0.00     0.030 A 
HETATM   21  C   UNL     1     -41.772  55.809 -56.120  1.00  0.00     0.012 A 
BRANCH  19  22
HETATM   22  N   UNL     1     -41.435  52.776 -54.042  1.00  0.00    -0.328 N 
HETATM   23  C   UNL     1     -40.538  52.684 -52.993  1.00  0.00     0.218 C 
HETATM   24  C   UNL     1     -40.045  51.272 -52.790  1.00  0.00     0.117 C 
HETATM   25  O   UNL     1     -40.156  53.593 -52.265  1.00  0.00    -0.274 OA
HETATM   26  H   UNL     1     -41.649  51.917 -54.532  1.00  0.00     0.169 HD
ENDBRANCH  19  22
ENDBRANCH   6  16
BRANCH  14  27
HETATM   27  C   UNL     1     -42.379  59.325 -54.193  1.00  0.00     0.256 C 
HETATM   28  N   UNL     1     -41.928  58.623 -53.097  1.00  0.00    -0.323 N 
HETATM   29  H   UNL     1     -42.377  57.740 -52.898  1.00  0.00     0.169 HD
HETATM   30  O   UNL     1     -41.870  60.321 -54.691  1.00  0.00    -0.267 OA
BRANCH  28  31
HETATM   31  C   UNL     1     -40.971  59.054 -52.152  1.00  0.00     0.035 A 
HETATM   32  C   UNL     1     -41.293  59.603 -50.908  1.00  0.00     0.029 A 
HETATM   33  C   UNL     1     -40.287  59.944 -49.998  1.00  0.00     0.002 A 
HETATM   34  C   UNL     1     -38.949  59.739 -50.322  1.00  0.00     0.000 A 
HETATM   35  C   UNL     1     -38.615  59.199 -51.561  1.00  0.00     0.002 A 
HETATM   36  C   UNL     1     -39.620  58.862 -52.472  1.00  0.00     0.029 A 
ENDBRANCH  28  31
ENDBRANCH  14  27
TORSDOF 4
ENDMDL
MODEL 7
REMARK VINA RESULT:      -8.2      3.452      7.133
REMARK  4 active torsions:
REMARK  status: ('A' for Active; 'I' for Inactive)
REMARK    1  A    between atoms: C_6  and  C_7 
REMARK    2  A    between atoms: C_10  and  N_11 
REMARK       I    between atoms: N_11  and  C_12 
REMARK    3  A    between atoms: C_24  and  C_25 
REMARK       I    between atoms: C_25  and  N_26 
REMARK    4  A    between atoms: N_26  and  C_27 
ROOT
HETATM    1  C   UNL     1     -41.271  55.110 -55.079  1.00  0.00     0.070 C 
HETATM    2  C   UNL     1     -42.089  56.007 -55.973  1.00  0.00     0.037 C 
HETATM    3  N   UNL     1     -42.272  55.541 -57.273  1.00  0.00    -0.193 N 
HETATM    4  C   UNL     1     -43.285  55.956 -58.061  1.00  0.00     0.709 A 
HETATM    5  N   UNL     1     -44.004  57.063 -57.691  1.00  0.00    -0.165 N 
HETATM    6  C   UNL     1     -43.647  57.892 -56.530  1.00  0.00     0.182 C 
HETATM    7  N   UNL     1     -43.755  55.416 -59.157  1.00  0.00    -0.062 NA
HETATM    8  C   UNL     1     -44.863  56.170 -59.474  1.00  0.00     0.103 A 
HETATM    9  C   UNL     1     -45.055  57.206 -58.560  1.00  0.00     0.082 A 
HETATM   10  C   UNL     1     -45.768  56.017 -60.537  1.00  0.00     0.034 A 
HETATM   11  C   UNL     1     -46.844  56.907 -60.640  1.00  0.00     0.002 A 
HETATM   12  C   UNL     1     -47.016  57.932 -59.708  1.00  0.00     0.002 A 
HETATM   13  C   UNL     1     -46.121  58.107 -58.646  1.00  0.00     0.032 A 
HETATM   14  C   UNL     1     -42.718  57.144 -55.580  1.00  0.00     0.061 C 
HETATM   15  H   UNL     1     -41.872  54.635 -57.499  1.00  0.00     0.184 HD
ENDROOT
BRANCH   6  16
HETATM   16  C   UNL     1     -43.066  59.212 -57.037  1.00  0.00    -0.030 A 
HETATM   17  C   UNL     1     -41.976  59.207 -57.919  1.00  0.00     0.012 A 
HETATM   18  C   UNL     1     -41.316  60.398 -58.254  1.00  0.00     0.030 A 
HETATM   19  C   UNL     1     -41.738  61.617 -57.726  1.00  0.00     0.034 A 
HETATM   20  C   UNL     1     -42.871  61.636 -56.905  1.00  0.00     0.030 A 
HETATM   21  C   UNL     1     -43.527  60.450 -56.561  1.00  0.00     0.012 A 
BRANCH  19  22
HETATM   22  N   UNL     1     -41.071  62.843 -57.928  1.00  0.00    -0.328 N 
HETATM   23  C   UNL     1     -40.870  63.504 -59.127  1.00  0.00     0.218 C 
HETATM   24  C   UNL     1     -40.006  64.730 -58.962  1.00  0.00     0.117 C 
HETATM   25  O   UNL     1     -41.318  63.196 -60.226  1.00  0.00    -0.274 OA
HETATM   26  H   UNL     1     -40.633  63.246 -57.110  1.00  0.00     0.169 HD
ENDBRANCH  19  22
ENDBRANCH   6  16
BRANCH  14  27
HETATM   27  C   UNL     1     -42.744  57.652 -54.178  1.00  0.00     0.256 C 
HETATM   28  N   UNL     1     -41.808  58.626 -53.911  1.00  0.00    -0.323 N 
HETATM   29  H   UNL     1     -41.286  58.993 -54.695  1.00  0.00     0.169 HD
HETATM   30  O   UNL     1     -43.578  57.198 -53.405  1.00  0.00    -0.267 OA
BRANCH  28  31
HETATM   31  C   UNL     1     -41.419  59.098 -52.637  1.00  0.00     0.035 A 
HETATM   32  C   UNL     1     -42.248  59.842 -51.793  1.00  0.00     0.029 A 
HETATM   33  C   UNL     1     -41.813  60.216 -50.517  1.00  0.00     0.002 A 
HETATM   34  C   UNL     1     -40.547  59.848 -50.072  1.00  0.00     0.000 A 
HETATM   35  C   UNL     1     -39.709  59.112 -50.906  1.00  0.00     0.002 A 
HETATM   36  C   UNL     1     -40.143  58.743 -52.183  1.00  0.00     0.029 A 
ENDBRANCH  28  31
ENDBRANCH  14  27
TORSDOF 4
ENDMDL
MODEL 8
REMARK VINA RESULT:      -8.1      3.303      5.288
REMARK  4 active torsions:
REMARK  status: ('A' for Active; 'I' for Inactive)
REMARK    1  A    between atoms: C_6  and  C_7 
REMARK    2  A    between atoms: C_10  and  N_11 
REMARK       I    between atoms: N_11  and  C_12 
REMARK    3  A    between atoms: C_24  and  C_25 
REMARK       I    between atoms: C_25  and  N_26 
REMARK    4  A    between atoms: N_26  and  C_27 
ROOT
HETATM    1  C   UNL     1     -44.713  58.940 -52.695  1.00  0.00     0.070 C 
HETATM    2  C   UNL     1     -44.454  59.072 -54.174  1.00  0.00     0.037 C 
HETATM    3  N   UNL     1     -44.634  60.351 -54.696  1.00  0.00    -0.193 N 
HETATM    4  C   UNL     1     -44.060  60.758 -55.847  1.00  0.00     0.709 A 
HETATM    5  N   UNL     1     -43.503  59.820 -56.679  1.00  0.00    -0.165 N 
HETATM    6  C   UNL     1     -43.605  58.375 -56.429  1.00  0.00     0.182 C 
HETATM    7  N   UNL     1     -43.892  61.972 -56.304  1.00  0.00    -0.062 NA
HETATM    8  C   UNL     1     -43.140  61.818 -57.448  1.00  0.00     0.103 A 
HETATM    9  C   UNL     1     -42.865  60.475 -57.701  1.00  0.00     0.082 A 
HETATM   10  C   UNL     1     -42.642  62.797 -58.322  1.00  0.00     0.034 A 
HETATM   11  C   UNL     1     -41.874  62.391 -59.421  1.00  0.00     0.002 A 
HETATM   12  C   UNL     1     -41.610  61.039 -59.649  1.00  0.00     0.002 A 
HETATM   13  C   UNL     1     -42.104  60.048 -58.794  1.00  0.00     0.032 A 
HETATM   14  C   UNL     1     -43.978  58.087 -54.979  1.00  0.00     0.061 C 
HETATM   15  H   UNL     1     -44.891  61.085 -54.041  1.00  0.00     0.184 HD
ENDROOT
BRANCH   6  16
HETATM   16  C   UNL     1     -44.584  57.776 -57.439  1.00  0.00    -0.030 A 
HETATM   17  C   UNL     1     -44.112  56.965 -58.481  1.00  0.00     0.012 A 
HETATM   18  C   UNL     1     -44.962  56.556 -59.517  1.00  0.00     0.030 A 
HETATM   19  C   UNL     1     -46.303  56.936 -59.527  1.00  0.00     0.034 A 
HETATM   20  C   UNL     1     -46.798  57.682 -58.451  1.00  0.00     0.030 A 
HETATM   21  C   UNL     1     -45.951  58.100 -57.420  1.00  0.00     0.012 A 
BRANCH  19  22
HETATM   22  N   UNL     1     -47.201  56.655 -60.579  1.00  0.00    -0.328 N 
HETATM   23  C   UNL     1     -47.785  57.558 -61.450  1.00  0.00     0.218 C 
HETATM   24  C   UNL     1     -48.785  56.896 -62.366  1.00  0.00     0.117 C 
HETATM   25  O   UNL     1     -47.558  58.759 -61.532  1.00  0.00    -0.274 OA
HETATM   26  H   UNL     1     -47.500  55.692 -60.657  1.00  0.00     0.169 HD
ENDBRANCH  19  22
ENDBRANCH   6  16
BRANCH  14  27
HETATM   27  C   UNL     1     -43.581  56.731 -54.505  1.00  0.00     0.256 C 
HETATM   28  N   UNL     1     -42.237  56.595 -54.236  1.00  0.00    -0.323 N 
HETATM   29  H   UNL     1     -41.675  57.434 -54.259  1.00  0.00     0.169 HD
HETATM   30  O   UNL     1     -44.449  55.877 -54.375  1.00  0.00    -0.267 OA
BRANCH  28  31
HETATM   31  C   UNL     1     -41.533  55.387 -54.033  1.00  0.00     0.035 A 
HETATM   32  C   UNL     1     -41.515  54.687 -52.824  1.00  0.00     0.029 A 
HETATM   33  C   UNL     1     -40.848  53.461 -52.722  1.00  0.00     0.002 A 
HETATM   34  C   UNL     1     -40.196  52.922 -53.827  1.00  0.00     0.000 A 
HETATM   35  C   UNL     1     -40.202  53.613 -55.035  1.00  0.00     0.002 A 
HETATM   36  C   UNL     1     -40.864  54.841 -55.136  1.00  0.00     0.029 A 
ENDBRANCH  28  31
ENDBRANCH  14  27
TORSDOF 4
ENDMDL
MODEL 9
REMARK VINA RESULT:      -8.0      1.844      2.168
REMARK  4 active torsions:
REMARK  status: ('A' for Active; 'I' for Inactive)
REMARK    1  A    between atoms: C_6  and  C_7 
REMARK    2  A    between atoms: C_10  and  N_11 
REMARK       I    between atoms: N_11  and  C_12 
REMARK    3  A    between atoms: C_24  and  C_25 
REMARK       I    between atoms: C_25  and  N_26 
REMARK    4  A    between atoms: N_26  and  C_27 
ROOT
HETATM    1  C   UNL     1     -44.629  55.894 -50.664  1.00  0.00     0.070 C 
HETATM    2  C   UNL     1     -44.387  57.343 -51.002  1.00  0.00     0.037 C 
HETATM    3  N   UNL     1     -45.307  58.239 -50.464  1.00  0.00    -0.193 N 
HETATM    4  C   UNL     1     -45.035  59.549 -50.291  1.00  0.00     0.709 A 
HETATM    5  N   UNL     1     -43.932  60.085 -50.904  1.00  0.00    -0.165 N 
HETATM    6  C   UNL     1     -43.092  59.321 -51.838  1.00  0.00     0.182 C 
HETATM    7  N   UNL     1     -45.657  60.432 -49.553  1.00  0.00    -0.062 NA
HETATM    8  C   UNL     1     -44.888  61.572 -49.642  1.00  0.00     0.103 A 
HETATM    9  C   UNL     1     -43.785  61.379 -50.473  1.00  0.00     0.082 A 
HETATM   10  C   UNL     1     -45.069  62.818 -49.022  1.00  0.00     0.034 A 
HETATM   11  C   UNL     1     -44.128  63.829 -49.252  1.00  0.00     0.002 A 
HETATM   12  C   UNL     1     -43.031  63.608 -50.086  1.00  0.00     0.002 A 
HETATM   13  C   UNL     1     -42.835  62.376 -50.719  1.00  0.00     0.032 A 
HETATM   14  C   UNL     1     -43.316  57.821 -51.687  1.00  0.00     0.061 C 
HETATM   15  H   UNL     1     -46.036  57.852 -49.871  1.00  0.00     0.184 HD
ENDROOT
BRANCH   6  16
HETATM   16  C   UNL     1     -43.352  59.836 -53.255  1.00  0.00    -0.030 A 
HETATM   17  C   UNL     1     -44.629  59.720 -53.821  1.00  0.00     0.012 A 
HETATM   18  C   UNL     1     -44.847  60.018 -55.174  1.00  0.00     0.030 A 
HETATM   19  C   UNL     1     -43.798  60.450 -55.983  1.00  0.00     0.034 A 
HETATM   20  C   UNL     1     -42.537  60.640 -55.405  1.00  0.00     0.030 A 
HETATM   21  C   UNL     1     -42.314  60.335 -54.059  1.00  0.00     0.012 A 
BRANCH  19  22
HETATM   22  N   UNL     1     -43.906  60.672 -57.372  1.00  0.00    -0.328 N 
HETATM   23  C   UNL     1     -43.521  59.821 -58.393  1.00  0.00     0.218 C 
HETATM   24  C   UNL     1     -43.682  60.456 -59.752  1.00  0.00     0.117 C 
HETATM   25  O   UNL     1     -43.104  58.674 -58.282  1.00  0.00    -0.274 OA
HETATM   26  H   UNL     1     -44.240  61.587 -57.647  1.00  0.00     0.169 HD
ENDBRANCH  19  22
ENDBRANCH   6  16
BRANCH  14  27
HETATM   27  C   UNL     1     -42.177  56.984 -52.161  1.00  0.00     0.256 C 
HETATM   28  N   UNL     1     -42.471  56.188 -53.245  1.00  0.00    -0.323 N 
HETATM   29  H   UNL     1     -43.366  56.329 -53.692  1.00  0.00     0.169 HD
HETATM   30  O   UNL     1     -41.099  57.081 -51.586  1.00  0.00    -0.267 OA
BRANCH  28  31
HETATM   31  C   UNL     1     -41.696  55.115 -53.740  1.00  0.00     0.035 A 
HETATM   32  C   UNL     1     -40.860  55.206 -54.856  1.00  0.00     0.029 A 
HETATM   33  C   UNL     1     -40.072  54.117 -55.245  1.00  0.00     0.002 A 
HETATM   34  C   UNL     1     -40.112  52.928 -54.522  1.00  0.00     0.000 A 
HETATM   35  C   UNL     1     -40.947  52.824 -53.412  1.00  0.00     0.002 A 
HETATM   36  C   UNL     1     -41.737  53.910 -53.027  1.00  0.00     0.029 A 
ENDBRANCH  28  31
ENDBRANCH  14  27
TORSDOF 4
ENDMDL
MODEL 10
REMARK VINA RESULT:      -7.7      3.263      5.196
REMARK  4 active torsions:
REMARK  status: ('A' for Active; 'I' for Inactive)
REMARK    1  A    between atoms: C_6  and  C_7 
REMARK    2  A    between atoms: C_10  and  N_11 
REMARK       I    between atoms: N_11  and  C_12 
REMARK    3  A    between atoms: C_24  and  C_25 
REMARK       I    between atoms: C_25  and  N_26 
REMARK    4  A    between atoms: N_26  and  C_27 
ROOT
HETATM    1  C   UNL     1     -42.801  60.619 -52.115  1.00  0.00     0.070 C 
HETATM    2  C   UNL     1     -42.761  60.583 -53.622  1.00  0.00     0.037 C 
HETATM    3  N   UNL     1     -43.336  61.682 -54.257  1.00  0.00    -0.193 N 
HETATM    4  C   UNL     1     -43.031  62.037 -55.522  1.00  0.00     0.709 A 
HETATM    5  N   UNL     1     -42.345  61.151 -56.313  1.00  0.00    -0.165 N 
HETATM    6  C   UNL     1     -42.027  59.781 -55.882  1.00  0.00     0.182 C 
HETATM    7  N   UNL     1     -43.249  63.170 -56.138  1.00  0.00    -0.062 NA
HETATM    8  C   UNL     1     -42.622  63.034 -57.358  1.00  0.00     0.103 A 
HETATM    9  C   UNL     1     -42.030  61.779 -57.490  1.00  0.00     0.082 A 
HETATM   10  C   UNL     1     -42.510  63.960 -58.407  1.00  0.00     0.034 A 
HETATM   11  C   UNL     1     -41.796  63.594 -59.555  1.00  0.00     0.002 A 
HETATM   12  C   UNL     1     -41.209  62.332 -59.660  1.00  0.00     0.002 A 
HETATM   13  C   UNL     1     -41.315  61.392 -58.629  1.00  0.00     0.032 A 
HETATM   14  C   UNL     1     -42.137  59.636 -54.368  1.00  0.00     0.061 C 
HETATM   15  H   UNL     1     -43.701  62.420 -53.661  1.00  0.00     0.184 HD
ENDROOT
BRANCH   6  16
HETATM   16  C   UNL     1     -42.922  58.811 -56.653  1.00  0.00    -0.030 A 
HETATM   17  C   UNL     1     -42.368  57.964 -57.624  1.00  0.00     0.012 A 
HETATM   18  C   UNL     1     -43.189  57.199 -58.465  1.00  0.00     0.030 A 
HETATM   19  C   UNL     1     -44.576  57.254 -58.345  1.00  0.00     0.034 A 
HETATM   20  C   UNL     1     -45.132  58.040 -57.328  1.00  0.00     0.030 A 
HETATM   21  C   UNL     1     -44.317  58.811 -56.493  1.00  0.00     0.012 A 
BRANCH  19  22
HETATM   22  N   UNL     1     -45.475  56.600 -59.213  1.00  0.00    -0.328 N 
HETATM   23  C   UNL     1     -46.283  57.175 -60.178  1.00  0.00     0.218 C 
HETATM   24  C   UNL     1     -47.199  56.167 -60.826  1.00  0.00     0.117 C 
HETATM   25  O   UNL     1     -46.297  58.351 -60.526  1.00  0.00    -0.274 OA
HETATM   26  H   UNL     1     -45.589  55.606 -59.062  1.00  0.00     0.169 HD
ENDBRANCH  19  22
ENDBRANCH   6  16
BRANCH  14  27
HETATM   27  C   UNL     1     -41.339  58.510 -53.805  1.00  0.00     0.256 C 
HETATM   28  N   UNL     1     -42.018  57.315 -53.731  1.00  0.00    -0.323 N 
HETATM   29  H   UNL     1     -42.928  57.273 -54.168  1.00  0.00     0.169 HD
HETATM   30  O   UNL     1     -40.175  58.719 -53.484  1.00  0.00    -0.267 OA
BRANCH  28  31
HETATM   31  C   UNL     1     -41.626  56.162 -53.014  1.00  0.00     0.035 A 
HETATM   32  C   UNL     1     -41.931  55.938 -51.669  1.00  0.00     0.029 A 
HETATM   33  C   UNL     1     -41.565  54.740 -51.046  1.00  0.00     0.002 A 
HETATM   34  C   UNL     1     -40.892  53.754 -51.763  1.00  0.00     0.000 A 
HETATM   35  C   UNL     1     -40.577  53.968 -53.102  1.00  0.00     0.002 A 
HETATM   36  C   UNL     1     -40.939  55.168 -53.722  1.00  0.00     0.029 A 
ENDBRANCH  28  31
ENDBRANCH  14  27
TORSDOF 4
ENDMDL
