MODEL 1
REMARK VINA RESULT:      -8.2      0.000      0.000
REMARK  3 active torsions:
REMARK  status: ('A' for Active; 'I' for Inactive)
REMARK       I    between atoms: C_2  and  N_3 
REMARK    1  A    between atoms: C_2  and  C_16 
REMARK    2  A    between atoms: N_3  and  C_4 
REMARK    3  A    between atoms: C_7  and  C_10 
ROOT
HETATM    1  O   UNL     1     -42.860  55.441 -57.637  1.00  0.00    -0.270 OA
HETATM    2  C   UNL     1     -42.666  56.634 -57.459  1.00  0.00     0.255 C 
HETATM    3  N   UNL     1     -42.296  57.069 -56.159  1.00  0.00    -0.305 N 
HETATM    4  H   UNL     1     -42.070  58.034 -55.957  1.00  0.00     0.171 HD
ENDROOT
BRANCH   3   5
HETATM    5  C   UNL     1     -42.331  56.267 -55.112  1.00  0.00     0.151 A 
HETATM    6  N   UNL     1     -41.421  55.345 -54.799  1.00  0.00    -0.335 N 
HETATM    7  H   UNL     1     -40.596  55.244 -55.394  1.00  0.00     0.168 HD
HETATM    8  C   UNL     1     -41.741  54.580 -53.692  1.00  0.00     0.051 A 
HETATM    9  C   UNL     1     -42.923  54.995 -53.111  1.00  0.00     0.083 A 
HETATM   10  S   UNL     1     -43.640  56.294 -53.989  1.00  0.00    -0.063 SA
BRANCH   8  11
HETATM   11  C   UNL     1     -40.921  53.467 -53.226  1.00  0.00    -0.006 A 
HETATM   12  C   UNL     1     -40.470  52.496 -54.126  1.00  0.00     0.033 A 
HETATM   13  C   UNL     1     -39.724  51.434 -53.642  1.00  0.00     0.117 A 
HETATM   14  N   UNL     1     -39.402  51.282 -52.344  1.00  0.00    -0.273 NA
HETATM   15  C   UNL     1     -39.836  52.225 -51.486  1.00  0.00     0.117 A 
HETATM   16  C   UNL     1     -40.590  53.321 -51.872  1.00  0.00     0.033 A 
ENDBRANCH   8  11
ENDBRANCH   3   5
BRANCH   2  17
HETATM   17  C   UNL     1     -42.738  57.736 -58.510  1.00  0.00     0.245 C 
HETATM   18  C   UNL     1     -42.201  57.247 -59.846  1.00  0.00     0.218 C 
HETATM   19  O   UNL     1     -42.981  56.149 -60.330  1.00  0.00    -0.345 OA
HETATM   20  C   UNL     1     -44.323  56.404 -60.245  1.00  0.00     0.102 A 
HETATM   21  C   UNL     1     -45.165  55.578 -60.983  1.00  0.00     0.039 A 
HETATM   22  C   UNL     1     -44.857  57.415 -59.439  1.00  0.00     0.103 A 
HETATM   23  C   UNL     1     -46.545  55.781 -60.939  1.00  0.00     0.003 A 
HETATM   24  C   UNL     1     -47.077  56.809 -60.159  1.00  0.00     0.003 A 
HETATM   25  C   UNL     1     -46.233  57.630 -59.408  1.00  0.00     0.040 A 
HETATM   26  O   UNL     1     -44.089  58.211 -58.625  1.00  0.00    -0.331 OA
ENDBRANCH   2  17
TORSDOF 3
ENDMDL
MODEL 2
REMARK VINA RESULT:      -8.0      1.915      2.861
REMARK  3 active torsions:
REMARK  status: ('A' for Active; 'I' for Inactive)
REMARK       I    between atoms: C_2  and  N_3 
REMARK    1  A    between atoms: C_2  and  C_16 
REMARK    2  A    between atoms: N_3  and  C_4 
REMARK    3  A    between atoms: C_7  and  C_10 
ROOT
HETATM    1  O   UNL     1     -44.039  55.909 -54.875  1.00  0.00    -0.270 OA
HETATM    2  C   UNL     1     -43.620  57.057 -54.857  1.00  0.00     0.255 C 
HETATM    3  N   UNL     1     -42.430  57.329 -54.133  1.00  0.00    -0.305 N 
HETATM    4  H   UNL     1     -42.003  58.245 -54.121  1.00  0.00     0.171 HD
ENDROOT
BRANCH   3   5
HETATM    5  C   UNL     1     -41.869  56.435 -53.341  1.00  0.00     0.151 A 
HETATM    6  N   UNL     1     -41.423  55.233 -53.705  1.00  0.00    -0.335 N 
HETATM    7  H   UNL     1     -41.488  54.961 -54.689  1.00  0.00     0.168 HD
HETATM    8  C   UNL     1     -40.955  54.457 -52.660  1.00  0.00     0.051 A 
HETATM    9  C   UNL     1     -40.994  55.141 -51.462  1.00  0.00     0.083 A 
HETATM   10  S   UNL     1     -41.667  56.717 -51.650  1.00  0.00    -0.063 SA
BRANCH   8  11
HETATM   11  C   UNL     1     -40.495  53.083 -52.830  1.00  0.00    -0.006 A 
HETATM   12  C   UNL     1     -39.958  52.379 -51.746  1.00  0.00     0.033 A 
HETATM   13  C   UNL     1     -39.498  51.089 -51.953  1.00  0.00     0.117 A 
HETATM   14  N   UNL     1     -39.540  50.466 -53.145  1.00  0.00    -0.273 NA
HETATM   15  C   UNL     1     -40.064  51.150 -54.180  1.00  0.00     0.117 A 
HETATM   16  C   UNL     1     -40.546  52.444 -54.075  1.00  0.00     0.033 A 
ENDBRANCH   8  11
ENDBRANCH   3   5
BRANCH   2  17
HETATM   17  C   UNL     1     -44.224  58.257 -55.578  1.00  0.00     0.245 C 
HETATM   18  C   UNL     1     -43.162  59.303 -55.875  1.00  0.00     0.218 C 
HETATM   19  O   UNL     1     -42.150  58.762 -56.730  1.00  0.00    -0.345 OA
HETATM   20  C   UNL     1     -42.690  58.091 -57.794  1.00  0.00     0.102 A 
HETATM   21  C   UNL     1     -41.838  57.819 -58.860  1.00  0.00     0.039 A 
HETATM   22  C   UNL     1     -44.019  57.657 -57.825  1.00  0.00     0.103 A 
HETATM   23  C   UNL     1     -42.324  57.136 -59.976  1.00  0.00     0.003 A 
HETATM   24  C   UNL     1     -43.658  56.730 -60.022  1.00  0.00     0.003 A 
HETATM   25  C   UNL     1     -44.510  56.991 -58.946  1.00  0.00     0.040 A 
HETATM   26  O   UNL     1     -44.888  57.822 -56.775  1.00  0.00    -0.331 OA
ENDBRANCH   2  17
TORSDOF 3
ENDMDL
MODEL 3
REMARK VINA RESULT:      -8.0      3.442      4.607
REMARK  3 active torsions:
REMARK  status: ('A' for Active; 'I' for Inactive)
REMARK       I    between atoms: C_2  and  N_3 
REMARK    1  A    between atoms: C_2  and  C_16 
REMARK    2  A    between atoms: N_3  and  C_4 
REMARK    3  A    between atoms: C_7  and  C_10 
ROOT
HETATM    1  O   UNL     1     -43.472  55.810 -52.252  1.00  0.00    -0.270 OA
HETATM    2  C   UNL     1     -42.719  56.763 -52.120  1.00  0.00     0.255 C 
HETATM    3  N   UNL     1     -41.363  56.508 -51.786  1.00  0.00    -0.305 N 
HETATM    4  H   UNL     1     -40.677  57.248 -51.714  1.00  0.00     0.171 HD
ENDROOT
BRANCH   3   5
HETATM    5  C   UNL     1     -40.937  55.309 -51.442  1.00  0.00     0.151 A 
HETATM    6  N   UNL     1     -40.665  54.303 -52.273  1.00  0.00    -0.335 N 
HETATM    7  H   UNL     1     -40.764  54.455 -53.279  1.00  0.00     0.168 HD
HETATM    8  C   UNL     1     -40.315  53.121 -51.645  1.00  0.00     0.051 A 
HETATM    9  C   UNL     1     -40.261  53.271 -50.274  1.00  0.00     0.083 A 
HETATM   10  S   UNL     1     -40.703  54.866 -49.790  1.00  0.00    -0.063 SA
BRANCH   8  11
HETATM   11  C   UNL     1     -40.054  51.881 -52.366  1.00  0.00    -0.006 A 
HETATM   12  C   UNL     1     -40.223  51.821 -53.753  1.00  0.00     0.033 A 
HETATM   13  C   UNL     1     -40.001  50.615 -54.400  1.00  0.00     0.117 A 
HETATM   14  N   UNL     1     -39.626  49.489 -53.766  1.00  0.00    -0.273 NA
HETATM   15  C   UNL     1     -39.461  49.559 -52.431  1.00  0.00     0.117 A 
HETATM   16  C   UNL     1     -39.661  50.715 -51.695  1.00  0.00     0.033 A 
ENDBRANCH   8  11
ENDBRANCH   3   5
BRANCH   2  17
HETATM   17  C   UNL     1     -43.068  58.235 -52.317  1.00  0.00     0.245 C 
HETATM   18  C   UNL     1     -41.895  58.995 -52.913  1.00  0.00     0.218 C 
HETATM   19  O   UNL     1     -41.554  58.466 -54.198  1.00  0.00    -0.345 OA
HETATM   20  C   UNL     1     -42.660  58.294 -54.986  1.00  0.00     0.102 A 
HETATM   21  C   UNL     1     -42.436  58.115 -56.348  1.00  0.00     0.039 A 
HETATM   22  C   UNL     1     -43.961  58.260 -54.475  1.00  0.00     0.103 A 
HETATM   23  C   UNL     1     -43.520  57.930 -57.208  1.00  0.00     0.003 A 
HETATM   24  C   UNL     1     -44.821  57.928 -56.703  1.00  0.00     0.003 A 
HETATM   25  C   UNL     1     -45.045  58.095 -55.335  1.00  0.00     0.040 A 
HETATM   26  O   UNL     1     -44.244  58.349 -53.134  1.00  0.00    -0.331 OA
ENDBRANCH   2  17
TORSDOF 3
ENDMDL
MODEL 4
REMARK VINA RESULT:      -8.0      5.075      6.066
REMARK  3 active torsions:
REMARK  status: ('A' for Active; 'I' for Inactive)
REMARK       I    between atoms: C_2  and  N_3 
REMARK    1  A    between atoms: C_2  and  C_16 
REMARK    2  A    between atoms: N_3  and  C_4 
REMARK    3  A    between atoms: C_7  and  C_10 
ROOT
HETATM    1  O   UNL     1     -42.553  56.392 -51.033  1.00  0.00    -0.270 OA
HETATM    2  C   UNL     1     -41.663  57.130 -51.430  1.00  0.00     0.255 C 
HETATM    3  N   UNL     1     -40.975  56.776 -52.620  1.00  0.00    -0.305 N 
HETATM    4  H   UNL     1     -40.266  57.368 -53.030  1.00  0.00     0.171 HD
ENDROOT
BRANCH   3   5
HETATM    5  C   UNL     1     -41.137  55.603 -53.203  1.00  0.00     0.151 A 
HETATM    6  N   UNL     1     -40.642  54.440 -52.777  1.00  0.00    -0.335 N 
HETATM    7  H   UNL     1     -40.105  54.422 -51.908  1.00  0.00     0.168 HD
HETATM    8  C   UNL     1     -40.890  53.372 -53.621  1.00  0.00     0.051 A 
HETATM    9  C   UNL     1     -41.663  53.746 -54.702  1.00  0.00     0.083 A 
HETATM   10  S   UNL     1     -42.020  55.432 -54.675  1.00  0.00    -0.063 SA
BRANCH   8  11
HETATM   11  C   UNL     1     -40.372  52.030 -53.382  1.00  0.00    -0.006 A 
HETATM   12  C   UNL     1     -40.352  51.086 -54.415  1.00  0.00     0.033 A 
HETATM   13  C   UNL     1     -39.887  49.809 -54.141  1.00  0.00     0.117 A 
HETATM   14  N   UNL     1     -39.447  49.421 -52.930  1.00  0.00    -0.273 NA
HETATM   15  C   UNL     1     -39.465  50.339 -51.944  1.00  0.00     0.117 A 
HETATM   16  C   UNL     1     -39.914  51.638 -52.117  1.00  0.00     0.033 A 
ENDBRANCH   8  11
ENDBRANCH   3   5
BRANCH   2  17
HETATM   17  C   UNL     1     -41.222  58.447 -50.799  1.00  0.00     0.245 C 
HETATM   18  C   UNL     1     -40.186  59.143 -51.666  1.00  0.00     0.218 C 
HETATM   19  O   UNL     1     -40.731  59.452 -52.952  1.00  0.00    -0.345 OA
HETATM   20  C   UNL     1     -41.965  60.037 -52.852  1.00  0.00     0.102 A 
HETATM   21  C   UNL     1     -42.444  60.686 -53.986  1.00  0.00     0.039 A 
HETATM   22  C   UNL     1     -42.746  59.975 -51.694  1.00  0.00     0.103 A 
HETATM   23  C   UNL     1     -43.697  61.300 -53.955  1.00  0.00     0.003 A 
HETATM   24  C   UNL     1     -44.464  61.265 -52.789  1.00  0.00     0.003 A 
HETATM   25  C   UNL     1     -43.988  60.603 -51.655  1.00  0.00     0.040 A 
HETATM   26  O   UNL     1     -42.368  59.283 -50.569  1.00  0.00    -0.331 OA
ENDBRANCH   2  17
TORSDOF 3
ENDMDL
MODEL 5
REMARK VINA RESULT:      -7.9      1.233      2.073
REMARK  3 active torsions:
REMARK  status: ('A' for Active; 'I' for Inactive)
REMARK       I    between atoms: C_2  and  N_3 
REMARK    1  A    between atoms: C_2  and  C_16 
REMARK    2  A    between atoms: N_3  and  C_4 
REMARK    3  A    between atoms: C_7  and  C_10 
ROOT
HETATM    1  O   UNL     1     -43.344  54.917 -57.854  1.00  0.00    -0.270 OA
HETATM    2  C   UNL     1     -42.914  56.047 -58.032  1.00  0.00     0.255 C 
HETATM    3  N   UNL     1     -42.175  56.659 -56.985  1.00  0.00    -0.305 N 
HETATM    4  H   UNL     1     -41.748  57.570 -57.087  1.00  0.00     0.171 HD
ENDROOT
BRANCH   3   5
HETATM    5  C   UNL     1     -42.095  56.130 -55.779  1.00  0.00     0.151 A 
HETATM    6  N   UNL     1     -41.315  55.111 -55.419  1.00  0.00    -0.335 N 
HETATM    7  H   UNL     1     -40.693  54.696 -56.116  1.00  0.00     0.168 HD
HETATM    8  C   UNL     1     -41.486  54.697 -54.110  1.00  0.00     0.051 A 
HETATM    9  C   UNL     1     -42.395  55.490 -53.440  1.00  0.00     0.083 A 
HETATM   10  S   UNL     1     -43.063  56.701 -54.469  1.00  0.00    -0.063 SA
BRANCH   8  11
HETATM   11  C   UNL     1     -40.788  53.550 -53.539  1.00  0.00    -0.006 A 
HETATM   12  C   UNL     1     -40.487  53.516 -52.173  1.00  0.00     0.033 A 
HETATM   13  C   UNL     1     -39.791  52.427 -51.671  1.00  0.00     0.117 A 
HETATM   14  N   UNL     1     -39.386  51.390 -52.428  1.00  0.00    -0.273 NA
HETATM   15  C   UNL     1     -39.686  51.431 -53.741  1.00  0.00     0.117 A 
HETATM   16  C   UNL     1     -40.374  52.475 -54.336  1.00  0.00     0.033 A 
ENDBRANCH   8  11
ENDBRANCH   3   5
BRANCH   2  17
HETATM   17  C   UNL     1     -43.047  56.883 -59.300  1.00  0.00     0.245 C 
HETATM   18  C   UNL     1     -44.112  56.308 -60.220  1.00  0.00     0.218 C 
HETATM   19  O   UNL     1     -45.389  56.313 -59.574  1.00  0.00    -0.345 OA
HETATM   20  C   UNL     1     -45.652  57.518 -58.980  1.00  0.00     0.102 A 
HETATM   21  C   UNL     1     -46.975  57.763 -58.622  1.00  0.00     0.039 A 
HETATM   22  C   UNL     1     -44.660  58.462 -58.701  1.00  0.00     0.103 A 
HETATM   23  C   UNL     1     -47.312  58.970 -58.008  1.00  0.00     0.003 A 
HETATM   24  C   UNL     1     -46.327  59.927 -57.757  1.00  0.00     0.003 A 
HETATM   25  C   UNL     1     -44.998  59.675 -58.105  1.00  0.00     0.040 A 
HETATM   26  O   UNL     1     -43.327  58.249 -58.954  1.00  0.00    -0.331 OA
ENDBRANCH   2  17
TORSDOF 3
ENDMDL
MODEL 6
REMARK VINA RESULT:      -7.9      1.545      2.830
REMARK  3 active torsions:
REMARK  status: ('A' for Active; 'I' for Inactive)
REMARK       I    between atoms: C_2  and  N_3 
REMARK    1  A    between atoms: C_2  and  C_16 
REMARK    2  A    between atoms: N_3  and  C_4 
REMARK    3  A    between atoms: C_7  and  C_10 
ROOT
HETATM    1  O   UNL     1     -42.243  56.936 -57.472  1.00  0.00    -0.270 OA
HETATM    2  C   UNL     1     -42.955  56.061 -57.942  1.00  0.00     0.255 C 
HETATM    3  N   UNL     1     -43.470  55.069 -57.066  1.00  0.00    -0.305 N 
HETATM    4  H   UNL     1     -44.106  54.349 -57.381  1.00  0.00     0.171 HD
ENDROOT
BRANCH   3   5
HETATM    5  C   UNL     1     -43.064  54.956 -55.816  1.00  0.00     0.151 A 
HETATM    6  N   UNL     1     -42.133  54.114 -55.366  1.00  0.00    -0.335 N 
HETATM    7  H   UNL     1     -41.655  53.505 -56.034  1.00  0.00     0.168 HD
HETATM    8  C   UNL     1     -41.956  54.140 -53.995  1.00  0.00     0.051 A 
HETATM    9  C   UNL     1     -42.752  55.096 -53.396  1.00  0.00     0.083 A 
HETATM   10  S   UNL     1     -43.747  55.905 -54.548  1.00  0.00    -0.063 SA
BRANCH   8  11
HETATM   11  C   UNL     1     -41.043  53.245 -53.291  1.00  0.00    -0.006 A 
HETATM   12  C   UNL     1     -40.784  53.429 -51.928  1.00  0.00     0.033 A 
HETATM   13  C   UNL     1     -39.884  52.583 -51.301  1.00  0.00     0.117 A 
HETATM   14  N   UNL     1     -39.241  51.582 -51.931  1.00  0.00    -0.273 NA
HETATM   15  C   UNL     1     -39.502  51.410 -53.242  1.00  0.00     0.117 A 
HETATM   16  C   UNL     1     -40.382  52.205 -53.957  1.00  0.00     0.033 A 
ENDBRANCH   8  11
ENDBRANCH   3   5
BRANCH   2  17
HETATM   17  C   UNL     1     -43.402  55.932 -59.394  1.00  0.00     0.245 C 
HETATM   18  C   UNL     1     -44.844  56.384 -59.561  1.00  0.00     0.218 C 
HETATM   19  O   UNL     1     -44.984  57.761 -59.196  1.00  0.00    -0.345 OA
HETATM   20  C   UNL     1     -44.010  58.538 -59.763  1.00  0.00     0.102 A 
HETATM   21  C   UNL     1     -44.230  59.912 -59.768  1.00  0.00     0.039 A 
HETATM   22  C   UNL     1     -42.827  58.011 -60.290  1.00  0.00     0.103 A 
HETATM   23  C   UNL     1     -43.275  60.763 -60.327  1.00  0.00     0.003 A 
HETATM   24  C   UNL     1     -42.107  60.236 -60.881  1.00  0.00     0.003 A 
HETATM   25  C   UNL     1     -41.881  58.858 -60.865  1.00  0.00     0.040 A 
HETATM   26  O   UNL     1     -42.513  56.675 -60.244  1.00  0.00    -0.331 OA
ENDBRANCH   2  17
TORSDOF 3
ENDMDL
MODEL 7
REMARK VINA RESULT:      -7.8      3.836      5.569
REMARK  3 active torsions:
REMARK  status: ('A' for Active; 'I' for Inactive)
REMARK       I    between atoms: C_2  and  N_3 
REMARK    1  A    between atoms: C_2  and  C_16 
REMARK    2  A    between atoms: N_3  and  C_4 
REMARK    3  A    between atoms: C_7  and  C_10 
ROOT
HETATM    1  O   UNL     1     -43.549  55.181 -54.375  1.00  0.00    -0.270 OA
HETATM    2  C   UNL     1     -42.951  56.246 -54.357  1.00  0.00     0.255 C 
HETATM    3  N   UNL     1     -41.681  56.295 -53.723  1.00  0.00    -0.305 N 
HETATM    4  H   UNL     1     -41.112  57.131 -53.719  1.00  0.00     0.171 HD
ENDROOT
BRANCH   3   5
HETATM    5  C   UNL     1     -41.214  55.291 -53.007  1.00  0.00     0.151 A 
HETATM    6  N   UNL     1     -40.824  54.105 -53.477  1.00  0.00    -0.335 N 
HETATM    7  H   UNL     1     -40.857  53.940 -54.485  1.00  0.00     0.168 HD
HETATM    8  C   UNL     1     -40.454  53.199 -52.500  1.00  0.00     0.051 A 
HETATM    9  C   UNL     1     -40.510  53.757 -51.239  1.00  0.00     0.083 A 
HETATM   10  S   UNL     1     -41.077  55.384 -51.289  1.00  0.00    -0.063 SA
BRANCH   8  11
HETATM   11  C   UNL     1     -40.070  51.822 -52.793  1.00  0.00    -0.006 A 
HETATM   12  C   UNL     1     -40.068  51.355 -54.112  1.00  0.00     0.033 A 
HETATM   13  C   UNL     1     -39.733  50.031 -54.349  1.00  0.00     0.117 A 
HETATM   14  N   UNL     1     -39.403  49.161 -53.376  1.00  0.00    -0.273 NA
HETATM   15  C   UNL     1     -39.403  49.623 -52.111  1.00  0.00     0.117 A 
HETATM   16  C   UNL     1     -39.726  50.927 -51.772  1.00  0.00     0.033 A 
ENDBRANCH   8  11
ENDBRANCH   3   5
BRANCH   2  17
HETATM   17  C   UNL     1     -43.405  57.557 -54.989  1.00  0.00     0.245 C 
HETATM   18  C   UNL     1     -44.866  57.834 -54.674  1.00  0.00     0.218 C 
HETATM   19  O   UNL     1     -45.060  57.956 -53.261  1.00  0.00    -0.345 OA
HETATM   20  C   UNL     1     -44.125  58.777 -52.689  1.00  0.00     0.102 A 
HETATM   21  C   UNL     1     -44.402  59.243 -51.408  1.00  0.00     0.039 A 
HETATM   22  C   UNL     1     -42.925  59.120 -53.321  1.00  0.00     0.103 A 
HETATM   23  C   UNL     1     -43.489  60.081 -50.765  1.00  0.00     0.003 A 
HETATM   24  C   UNL     1     -42.305  60.449 -51.407  1.00  0.00     0.003 A 
HETATM   25  C   UNL     1     -42.022  59.970 -52.688  1.00  0.00     0.040 A 
HETATM   26  O   UNL     1     -42.556  58.629 -54.549  1.00  0.00    -0.331 OA
ENDBRANCH   2  17
TORSDOF 3
ENDMDL
MODEL 8
REMARK VINA RESULT:      -7.8      5.776      9.079
REMARK  3 active torsions:
REMARK  status: ('A' for Active; 'I' for Inactive)
REMARK       I    between atoms: C_2  and  N_3 
REMARK    1  A    between atoms: C_2  and  C_16 
REMARK    2  A    between atoms: N_3  and  C_4 
REMARK    3  A    between atoms: C_7  and  C_10 
ROOT
HETATM    1  O   UNL     1     -40.892  56.902 -50.437  1.00  0.00    -0.270 OA
HETATM    2  C   UNL     1     -41.992  56.376 -50.511  1.00  0.00     0.255 C 
HETATM    3  N   UNL     1     -43.064  57.133 -51.054  1.00  0.00    -0.305 N 
HETATM    4  H   UNL     1     -43.986  56.740 -51.191  1.00  0.00     0.171 HD
ENDROOT
BRANCH   3   5
HETATM    5  C   UNL     1     -42.957  58.422 -51.309  1.00  0.00     0.151 A 
HETATM    6  N   UNL     1     -43.179  59.414 -50.446  1.00  0.00    -0.335 N 
HETATM    7  H   UNL     1     -43.435  59.182 -49.484  1.00  0.00     0.168 HD
HETATM    8  C   UNL     1     -43.077  60.680 -50.994  1.00  0.00     0.051 A 
HETATM    9  C   UNL     1     -42.697  60.632 -52.320  1.00  0.00     0.083 A 
HETATM   10  S   UNL     1     -42.529  59.008 -52.874  1.00  0.00    -0.063 SA
BRANCH   8  11
HETATM   11  C   UNL     1     -43.357  61.899 -50.244  1.00  0.00    -0.006 A 
HETATM   12  C   UNL     1     -42.624  63.065 -50.490  1.00  0.00     0.033 A 
HETATM   13  C   UNL     1     -42.893  64.194 -49.733  1.00  0.00     0.117 A 
HETATM   14  N   UNL     1     -43.829  64.236 -48.767  1.00  0.00    -0.273 NA
HETATM   15  C   UNL     1     -44.533  63.110 -48.541  1.00  0.00     0.117 A 
HETATM   16  C   UNL     1     -44.336  61.932 -49.242  1.00  0.00     0.033 A 
ENDBRANCH   8  11
ENDBRANCH   3   5
BRANCH   2  17
HETATM   17  C   UNL     1     -42.348  54.948 -50.114  1.00  0.00     0.245 C 
HETATM   18  C   UNL     1     -43.632  54.500 -50.793  1.00  0.00     0.218 C 
HETATM   19  O   UNL     1     -43.481  54.518 -52.216  1.00  0.00    -0.345 OA
HETATM   20  C   UNL     1     -42.316  53.916 -52.610  1.00  0.00     0.102 A 
HETATM   21  C   UNL     1     -42.215  53.568 -53.953  1.00  0.00     0.039 A 
HETATM   22  C   UNL     1     -41.249  53.680 -51.738  1.00  0.00     0.103 A 
HETATM   23  C   UNL     1     -41.053  52.955 -54.423  1.00  0.00     0.003 A 
HETATM   24  C   UNL     1     -39.999  52.690 -53.547  1.00  0.00     0.003 A 
HETATM   25  C   UNL     1     -40.095  53.051 -52.201  1.00  0.00     0.040 A 
HETATM   26  O   UNL     1     -41.253  54.071 -50.422  1.00  0.00    -0.331 OA
ENDBRANCH   2  17
TORSDOF 3
ENDMDL
MODEL 9
REMARK VINA RESULT:      -7.6      2.266      2.929
REMARK  3 active torsions:
REMARK  status: ('A' for Active; 'I' for Inactive)
REMARK       I    between atoms: C_2  and  N_3 
REMARK    1  A    between atoms: C_2  and  C_16 
REMARK    2  A    between atoms: N_3  and  C_4 
REMARK    3  A    between atoms: C_7  and  C_10 
ROOT
HETATM    1  O   UNL     1     -43.652  57.944 -56.927  1.00  0.00    -0.270 OA
HETATM    2  C   UNL     1     -42.973  57.288 -57.703  1.00  0.00     0.255 C 
HETATM    3  N   UNL     1     -42.407  56.071 -57.240  1.00  0.00    -0.305 N 
HETATM    4  H   UNL     1     -41.880  55.456 -57.846  1.00  0.00     0.171 HD
ENDROOT
BRANCH   3   5
HETATM    5  C   UNL     1     -42.437  55.720 -55.969  1.00  0.00     0.151 A 
HETATM    6  N   UNL     1     -42.039  56.467 -54.939  1.00  0.00    -0.335 N 
HETATM    7  H   UNL     1     -41.697  57.414 -55.120  1.00  0.00     0.168 HD
HETATM    8  C   UNL     1     -42.098  55.828 -53.714  1.00  0.00     0.051 A 
HETATM    9  C   UNL     1     -42.627  54.558 -53.827  1.00  0.00     0.083 A 
HETATM   10  S   UNL     1     -42.988  54.164 -55.467  1.00  0.00    -0.063 SA
BRANCH   8  11
HETATM   11  C   UNL     1     -41.637  56.439 -52.472  1.00  0.00    -0.006 A 
HETATM   12  C   UNL     1     -41.672  55.717 -51.274  1.00  0.00     0.033 A 
HETATM   13  C   UNL     1     -41.261  56.341 -50.107  1.00  0.00     0.117 A 
HETATM   14  N   UNL     1     -40.821  57.613 -50.059  1.00  0.00    -0.273 NA
HETATM   15  C   UNL     1     -40.786  58.297 -51.219  1.00  0.00     0.117 A 
HETATM   16  C   UNL     1     -41.179  57.762 -52.435  1.00  0.00     0.033 A 
ENDBRANCH   8  11
ENDBRANCH   3   5
BRANCH   2  17
HETATM   17  C   UNL     1     -42.690  57.614 -59.166  1.00  0.00     0.245 C 
HETATM   18  C   UNL     1     -42.527  56.344 -59.983  1.00  0.00     0.218 C 
HETATM   19  O   UNL     1     -43.727  55.566 -59.949  1.00  0.00    -0.345 OA
HETATM   20  C   UNL     1     -44.836  56.333 -60.189  1.00  0.00     0.102 A 
HETATM   21  C   UNL     1     -46.006  55.655 -60.517  1.00  0.00     0.039 A 
HETATM   22  C   UNL     1     -44.834  57.727 -60.085  1.00  0.00     0.103 A 
HETATM   23  C   UNL     1     -47.174  56.376 -60.772  1.00  0.00     0.003 A 
HETATM   24  C   UNL     1     -47.166  57.770 -60.699  1.00  0.00     0.003 A 
HETATM   25  C   UNL     1     -45.994  58.448 -60.357  1.00  0.00     0.040 A 
HETATM   26  O   UNL     1     -43.736  58.449 -59.688  1.00  0.00    -0.331 OA
ENDBRANCH   2  17
TORSDOF 3
ENDMDL
MODEL 10
REMARK VINA RESULT:      -7.5      2.190      2.790
REMARK  3 active torsions:
REMARK  status: ('A' for Active; 'I' for Inactive)
REMARK       I    between atoms: C_2  and  N_3 
REMARK    1  A    between atoms: C_2  and  C_16 
REMARK    2  A    between atoms: N_3  and  C_4 
REMARK    3  A    between atoms: C_7  and  C_10 
ROOT
HETATM    1  O   UNL     1     -43.973  57.017 -54.643  1.00  0.00    -0.270 OA
HETATM    2  C   UNL     1     -43.112  57.490 -55.370  1.00  0.00     0.255 C 
HETATM    3  N   UNL     1     -41.863  56.820 -55.459  1.00  0.00    -0.305 N 
HETATM    4  H   UNL     1     -41.128  57.129 -56.081  1.00  0.00     0.171 HD
ENDROOT
BRANCH   3   5
HETATM    5  C   UNL     1     -41.541  55.823 -54.657  1.00  0.00     0.151 A 
HETATM    6  N   UNL     1     -41.625  55.827 -53.327  1.00  0.00    -0.335 N 
HETATM    7  H   UNL     1     -41.993  56.658 -52.859  1.00  0.00     0.168 HD
HETATM    8  C   UNL     1     -41.144  54.680 -52.721  1.00  0.00     0.051 A 
HETATM    9  C   UNL     1     -40.738  53.745 -53.652  1.00  0.00     0.083 A 
HETATM   10  S   UNL     1     -40.911  54.335 -55.263  1.00  0.00    -0.063 SA
BRANCH   8  11
HETATM   11  C   UNL     1     -41.073  54.511 -51.274  1.00  0.00    -0.006 A 
HETATM   12  C   UNL     1     -41.459  55.551 -50.421  1.00  0.00     0.033 A 
HETATM   13  C   UNL     1     -41.342  55.368 -49.053  1.00  0.00     0.117 A 
HETATM   14  N   UNL     1     -40.879  54.236 -48.490  1.00  0.00    -0.273 NA
HETATM   15  C   UNL     1     -40.515  53.239 -49.320  1.00  0.00     0.117 A 
HETATM   16  C   UNL     1     -40.591  53.327 -50.700  1.00  0.00     0.033 A 
ENDBRANCH   8  11
ENDBRANCH   3   5
BRANCH   2  17
HETATM   17  C   UNL     1     -43.241  58.729 -56.250  1.00  0.00     0.245 C 
HETATM   18  C   UNL     1     -42.329  58.632 -57.461  1.00  0.00     0.218 C 
HETATM   19  O   UNL     1     -42.680  57.503 -58.267  1.00  0.00    -0.345 OA
HETATM   20  C   UNL     1     -44.030  57.438 -58.487  1.00  0.00     0.102 A 
HETATM   21  C   UNL     1     -44.457  56.604 -59.516  1.00  0.00     0.039 A 
HETATM   22  C   UNL     1     -44.963  58.135 -57.713  1.00  0.00     0.103 A 
HETATM   23  C   UNL     1     -45.820  56.488 -59.792  1.00  0.00     0.003 A 
HETATM   24  C   UNL     1     -46.750  57.208 -59.040  1.00  0.00     0.003 A 
HETATM   25  C   UNL     1     -46.322  58.035 -57.999  1.00  0.00     0.040 A 
HETATM   26  O   UNL     1     -44.614  58.910 -56.634  1.00  0.00    -0.331 OA
ENDBRANCH   2  17
TORSDOF 3
ENDMDL
