MODEL 1
REMARK VINA RESULT:      -8.8      0.000      0.000
REMARK  5 active torsions:
REMARK  status: ('A' for Active; 'I' for Inactive)
REMARK    1  A    between atoms: C_7  and  C_8 
REMARK    2  A    between atoms: C_16  and  C_17 
REMARK    3  A    between atoms: C_20  and  O_21 
REMARK    4  A    between atoms: C_24  and  C_25 
REMARK       I    between atoms: C_25  and  N_26 
REMARK    5  A    between atoms: N_26  and  C_27 
ROOT
HETATM    1  C   UNL     1     -45.421  57.824 -55.133  1.00  0.00     0.070 C 
HETATM    2  C   UNL     1     -44.358  57.138 -54.305  1.00  0.00     0.037 A 
HETATM    3  N   UNL     1     -43.809  55.996 -54.882  1.00  0.00    -0.192 N 
HETATM    4  C   UNL     1     -42.940  55.190 -54.254  1.00  0.00     0.726 A 
HETATM    5  N   UNL     1     -42.491  55.536 -53.016  1.00  0.00    -0.083 N 
HETATM    6  N   UNL     1     -41.737  54.561 -52.471  1.00  0.00    -0.135 NA
HETATM    7  C   UNL     1     -41.674  53.679 -53.487  1.00  0.00     0.199 A 
HETATM    8  N   UNL     1     -42.423  54.039 -54.595  1.00  0.00    -0.041 NA
HETATM    9  C   UNL     1     -42.896  56.754 -52.305  1.00  0.00     0.202 A 
HETATM   10  C   UNL     1     -43.959  57.546 -53.067  1.00  0.00     0.062 A 
HETATM   11  H   UNL     1     -44.163  55.714 -55.792  1.00  0.00     0.184 HD
ENDROOT
BRANCH  10  12
HETATM   12  C   UNL     1     -44.517  58.804 -52.455  1.00  0.00     0.256 C 
HETATM   13  N   UNL     1     -43.876  59.975 -52.809  1.00  0.00    -0.323 N 
HETATM   14  H   UNL     1     -43.176  59.957 -53.533  1.00  0.00     0.169 HD
HETATM   15  O   UNL     1     -45.505  58.740 -51.730  1.00  0.00    -0.267 OA
BRANCH  13  16
HETATM   16  C   UNL     1     -44.134  61.271 -52.302  1.00  0.00     0.035 A 
HETATM   17  C   UNL     1     -45.140  62.112 -52.778  1.00  0.00     0.029 A 
HETATM   18  C   UNL     1     -45.350  63.368 -52.197  1.00  0.00     0.002 A 
HETATM   19  C   UNL     1     -44.550  63.795 -51.140  1.00  0.00     0.000 A 
HETATM   20  C   UNL     1     -43.542  62.964 -50.658  1.00  0.00     0.002 A 
HETATM   21  C   UNL     1     -43.340  61.707 -51.232  1.00  0.00     0.029 A 
ENDBRANCH  13  16
ENDBRANCH  10  12
BRANCH   9  22
HETATM   22  C   UNL     1     -41.652  57.562 -51.942  1.00  0.00    -0.028 A 
HETATM   23  C   UNL     1     -41.350  57.903 -50.611  1.00  0.00     0.012 A 
HETATM   24  C   UNL     1     -40.218  58.665 -50.310  1.00  0.00     0.037 A 
HETATM   25  C   UNL     1     -39.389  59.098 -51.339  1.00  0.00     0.065 A 
HETATM   26  C   UNL     1     -39.674  58.785 -52.661  1.00  0.00     0.037 A 
HETATM   27  C   UNL     1     -40.802  58.022 -52.964  1.00  0.00     0.012 A 
BRANCH  25  28
HETATM   28  O   UNL     1     -38.279  59.850 -51.091  1.00  0.00    -0.361 OA
HETATM   29  H   UNL     1     -37.614  59.655 -51.772  1.00  0.00     0.217 HD
ENDBRANCH  25  28
ENDBRANCH   9  22
BRANCH   7  30
HETATM   30  C   UNL     1     -40.908  52.439 -53.435  1.00  0.00     0.016 A 
HETATM   31  C   UNL     1     -40.489  51.905 -52.207  1.00  0.00     0.039 A 
HETATM   32  C   UNL     1     -39.754  50.721 -52.172  1.00  0.00     0.035 A 
HETATM   33 CL   UNL     1     -39.245  50.077 -50.659  1.00  0.00    -0.084 Cl
HETATM   34  C   UNL     1     -39.425  50.054 -53.350  1.00  0.00     0.024 A 
HETATM   35  C   UNL     1     -39.835  50.576 -54.576  1.00  0.00     0.003 A 
HETATM   36  C   UNL     1     -40.571  51.762 -54.617  1.00  0.00     0.015 A 
ENDBRANCH   7  30
TORSDOF 5
ENDMDL
MODEL 2
REMARK VINA RESULT:      -8.7      1.655      2.070
REMARK  5 active torsions:
REMARK  status: ('A' for Active; 'I' for Inactive)
REMARK    1  A    between atoms: C_7  and  C_8 
REMARK    2  A    between atoms: C_16  and  C_17 
REMARK    3  A    between atoms: C_20  and  O_21 
REMARK    4  A    between atoms: C_24  and  C_25 
REMARK       I    between atoms: C_25  and  N_26 
REMARK    5  A    between atoms: N_26  and  C_27 
ROOT
HETATM    1  C   UNL     1     -44.064  58.709 -56.052  1.00  0.00     0.070 C 
HETATM    2  C   UNL     1     -43.328  57.995 -54.941  1.00  0.00     0.037 A 
HETATM    3  N   UNL     1     -42.750  56.782 -55.304  1.00  0.00    -0.192 N 
HETATM    4  C   UNL     1     -42.157  55.951 -54.433  1.00  0.00     0.726 A 
HETATM    5  N   UNL     1     -42.026  56.336 -53.134  1.00  0.00    -0.083 N 
HETATM    6  N   UNL     1     -41.536  55.341 -52.369  1.00  0.00    -0.135 NA
HETATM    7  C   UNL     1     -41.284  54.396 -53.295  1.00  0.00     0.199 A 
HETATM    8  N   UNL     1     -41.673  54.745 -54.578  1.00  0.00    -0.041 NA
HETATM    9  C   UNL     1     -42.495  57.622 -52.606  1.00  0.00     0.202 A 
HETATM   10  C   UNL     1     -43.239  58.445 -53.657  1.00  0.00     0.062 A 
HETATM   11  H   UNL     1     -42.871  56.473 -56.265  1.00  0.00     0.184 HD
ENDROOT
BRANCH  10  12
HETATM   12  C   UNL     1     -43.824  59.777 -53.268  1.00  0.00     0.256 C 
HETATM   13  N   UNL     1     -45.007  59.725 -52.557  1.00  0.00    -0.323 N 
HETATM   14  H   UNL     1     -45.347  58.836 -52.226  1.00  0.00     0.169 HD
HETATM   15  O   UNL     1     -43.226  60.811 -53.552  1.00  0.00    -0.267 OA
BRANCH  13  16
HETATM   16  C   UNL     1     -45.809  60.822 -52.161  1.00  0.00     0.035 A 
HETATM   17  C   UNL     1     -46.696  61.490 -53.006  1.00  0.00     0.029 A 
HETATM   18  C   UNL     1     -47.477  62.546 -52.524  1.00  0.00     0.002 A 
HETATM   19  C   UNL     1     -47.372  62.947 -51.195  1.00  0.00     0.000 A 
HETATM   20  C   UNL     1     -46.489  62.290 -50.343  1.00  0.00     0.002 A 
HETATM   21  C   UNL     1     -45.717  61.229 -50.823  1.00  0.00     0.029 A 
ENDBRANCH  13  16
ENDBRANCH  10  12
BRANCH   9  22
HETATM   22  C   UNL     1     -41.325  58.352 -51.949  1.00  0.00    -0.028 A 
HETATM   23  C   UNL     1     -40.128  58.609 -52.640  1.00  0.00     0.012 A 
HETATM   24  C   UNL     1     -39.064  59.258 -52.006  1.00  0.00     0.037 A 
HETATM   25  C   UNL     1     -39.190  59.642 -50.676  1.00  0.00     0.065 A 
HETATM   26  C   UNL     1     -40.358  59.388 -49.970  1.00  0.00     0.037 A 
HETATM   27  C   UNL     1     -41.422  58.743 -50.601  1.00  0.00     0.012 A 
BRANCH  25  28
HETATM   28  O   UNL     1     -38.174  60.269 -50.017  1.00  0.00    -0.361 OA
HETATM   29  H   UNL     1     -37.577  59.593 -49.655  1.00  0.00     0.217 HD
ENDBRANCH  25  28
ENDBRANCH   9  22
BRANCH   7  30
HETATM   30  C   UNL     1     -40.674  53.106 -52.991  1.00  0.00     0.016 A 
HETATM   31  C   UNL     1     -40.490  52.145 -53.995  1.00  0.00     0.039 A 
HETATM   32  C   UNL     1     -39.910  50.915 -53.690  1.00  0.00     0.035 A 
HETATM   33 CL   UNL     1     -39.691  49.742 -54.932  1.00  0.00    -0.084 Cl
HETATM   34  C   UNL     1     -39.506  50.623 -52.389  1.00  0.00     0.024 A 
HETATM   35  C   UNL     1     -39.685  51.571 -51.382  1.00  0.00     0.003 A 
HETATM   36  C   UNL     1     -40.267  52.805 -51.682  1.00  0.00     0.015 A 
ENDBRANCH   7  30
TORSDOF 5
ENDMDL
MODEL 3
REMARK VINA RESULT:      -8.6      3.681      9.084
REMARK  5 active torsions:
REMARK  status: ('A' for Active; 'I' for Inactive)
REMARK    1  A    between atoms: C_7  and  C_8 
REMARK    2  A    between atoms: C_16  and  C_17 
REMARK    3  A    between atoms: C_20  and  O_21 
REMARK    4  A    between atoms: C_24  and  C_25 
REMARK       I    between atoms: C_25  and  N_26 
REMARK    5  A    between atoms: N_26  and  C_27 
ROOT
HETATM    1  C   UNL     1     -40.837  56.086 -49.747  1.00  0.00     0.070 C 
HETATM    2  C   UNL     1     -41.839  56.625 -50.743  1.00  0.00     0.037 A 
HETATM    3  N   UNL     1     -42.096  57.989 -50.637  1.00  0.00    -0.192 N 
HETATM    4  C   UNL     1     -43.036  58.626 -51.353  1.00  0.00     0.726 A 
HETATM    5  N   UNL     1     -43.728  57.936 -52.301  1.00  0.00    -0.083 N 
HETATM    6  N   UNL     1     -44.720  58.678 -52.830  1.00  0.00    -0.135 NA
HETATM    7  C   UNL     1     -44.508  59.866 -52.231  1.00  0.00     0.199 A 
HETATM    8  N   UNL     1     -43.481  59.854 -51.301  1.00  0.00    -0.041 NA
HETATM    9  C   UNL     1     -43.515  56.516 -52.604  1.00  0.00     0.202 A 
HETATM   10  C   UNL     1     -42.496  55.868 -51.667  1.00  0.00     0.062 A 
HETATM   11  H   UNL     1     -41.607  58.505 -49.911  1.00  0.00     0.184 HD
ENDROOT
BRANCH  10  12
HETATM   12  C   UNL     1     -42.191  54.401 -51.815  1.00  0.00     0.256 C 
HETATM   13  N   UNL     1     -40.970  54.099 -52.385  1.00  0.00    -0.323 N 
HETATM   14  H   UNL     1     -40.304  54.837 -52.550  1.00  0.00     0.169 HD
HETATM   15  O   UNL     1     -42.992  53.569 -51.400  1.00  0.00    -0.267 OA
BRANCH  13  16
HETATM   16  C   UNL     1     -40.486  52.813 -52.726  1.00  0.00     0.035 A 
HETATM   17  C   UNL     1     -39.823  51.965 -51.838  1.00  0.00     0.029 A 
HETATM   18  C   UNL     1     -39.406  50.694 -52.248  1.00  0.00     0.002 A 
HETATM   19  C   UNL     1     -39.643  50.263 -53.551  1.00  0.00     0.000 A 
HETATM   20  C   UNL     1     -40.302  51.102 -54.446  1.00  0.00     0.002 A 
HETATM   21  C   UNL     1     -40.726  52.367 -54.033  1.00  0.00     0.029 A 
ENDBRANCH  13  16
ENDBRANCH  10  12
BRANCH   9  22
HETATM   22  C   UNL     1     -43.189  56.362 -54.088  1.00  0.00    -0.028 A 
HETATM   23  C   UNL     1     -42.642  57.416 -54.842  1.00  0.00     0.012 A 
HETATM   24  C   UNL     1     -42.377  57.255 -56.204  1.00  0.00     0.037 A 
HETATM   25  C   UNL     1     -42.669  56.044 -56.822  1.00  0.00     0.065 A 
HETATM   26  C   UNL     1     -43.223  54.994 -56.102  1.00  0.00     0.037 A 
HETATM   27  C   UNL     1     -43.485  55.151 -54.741  1.00  0.00     0.012 A 
BRANCH  25  28
HETATM   28  O   UNL     1     -42.436  55.847 -58.150  1.00  0.00    -0.361 OA
HETATM   29  H   UNL     1     -43.163  55.318 -58.518  1.00  0.00     0.217 HD
ENDBRANCH  25  28
ENDBRANCH   9  22
BRANCH   7  30
HETATM   30  C   UNL     1     -45.293  61.064 -52.507  1.00  0.00     0.016 A 
HETATM   31  C   UNL     1     -46.694  61.005 -52.566  1.00  0.00     0.039 A 
HETATM   32  C   UNL     1     -47.432  62.156 -52.836  1.00  0.00     0.035 A 
HETATM   33 CL   UNL     1     -49.150  62.072 -52.908  1.00  0.00    -0.084 Cl
HETATM   34  C   UNL     1     -46.793  63.377 -53.049  1.00  0.00     0.024 A 
HETATM   35  C   UNL     1     -45.403  63.446 -52.993  1.00  0.00     0.003 A 
HETATM   36  C   UNL     1     -44.657  62.295 -52.725  1.00  0.00     0.015 A 
ENDBRANCH   7  30
TORSDOF 5
ENDMDL
MODEL 4
REMARK VINA RESULT:      -8.5      2.394      3.350
REMARK  5 active torsions:
REMARK  status: ('A' for Active; 'I' for Inactive)
REMARK    1  A    between atoms: C_7  and  C_8 
REMARK    2  A    between atoms: C_16  and  C_17 
REMARK    3  A    between atoms: C_20  and  O_21 
REMARK    4  A    between atoms: C_24  and  C_25 
REMARK       I    between atoms: C_25  and  N_26 
REMARK    5  A    between atoms: N_26  and  C_27 
ROOT
HETATM    1  C   UNL     1     -43.253  57.971 -58.260  1.00  0.00     0.070 C 
HETATM    2  C   UNL     1     -43.174  57.318 -56.898  1.00  0.00     0.037 A 
HETATM    3  N   UNL     1     -42.118  56.426 -56.735  1.00  0.00    -0.192 N 
HETATM    4  C   UNL     1     -41.949  55.664 -55.643  1.00  0.00     0.726 A 
HETATM    5  N   UNL     1     -42.797  55.821 -54.589  1.00  0.00    -0.083 N 
HETATM    6  N   UNL     1     -42.579  54.895 -53.635  1.00  0.00    -0.135 NA
HETATM    7  C   UNL     1     -41.496  54.262 -54.126  1.00  0.00     0.199 A 
HETATM    8  N   UNL     1     -41.097  54.711 -55.375  1.00  0.00    -0.041 NA
HETATM    9  C   UNL     1     -43.905  56.783 -54.561  1.00  0.00     0.202 A 
HETATM   10  C   UNL     1     -44.065  57.525 -55.887  1.00  0.00     0.062 A 
HETATM   11  H   UNL     1     -41.499  56.280 -57.529  1.00  0.00     0.184 HD
ENDROOT
BRANCH  10  12
HETATM   12  C   UNL     1     -45.184  58.521 -56.042  1.00  0.00     0.256 C 
HETATM   13  N   UNL     1     -44.854  59.835 -55.780  1.00  0.00    -0.323 N 
HETATM   14  H   UNL     1     -43.889  60.084 -55.632  1.00  0.00     0.169 HD
HETATM   15  O   UNL     1     -46.288  58.140 -56.420  1.00  0.00    -0.267 OA
BRANCH  13  16
HETATM   16  C   UNL     1     -45.735  60.943 -55.753  1.00  0.00     0.035 A 
HETATM   17  C   UNL     1     -46.278  61.540 -56.892  1.00  0.00     0.029 A 
HETATM   18  C   UNL     1     -47.168  62.613 -56.775  1.00  0.00     0.002 A 
HETATM   19  C   UNL     1     -47.518  63.102 -55.519  1.00  0.00     0.000 A 
HETATM   20  C   UNL     1     -46.980  62.516 -54.376  1.00  0.00     0.002 A 
HETATM   21  C   UNL     1     -46.099  61.438 -54.493  1.00  0.00     0.029 A 
ENDBRANCH  13  16
ENDBRANCH  10  12
BRANCH   9  22
HETATM   22  C   UNL     1     -43.746  57.696 -53.347  1.00  0.00    -0.028 A 
HETATM   23  C   UNL     1     -44.731  57.778 -52.346  1.00  0.00     0.012 A 
HETATM   24  C   UNL     1     -44.571  58.640 -51.258  1.00  0.00     0.037 A 
HETATM   25  C   UNL     1     -43.431  59.433 -51.172  1.00  0.00     0.065 A 
HETATM   26  C   UNL     1     -42.453  59.379 -52.155  1.00  0.00     0.037 A 
HETATM   27  C   UNL     1     -42.609  58.517 -53.240  1.00  0.00     0.012 A 
BRANCH  25  28
HETATM   28  O   UNL     1     -43.240  60.294 -50.133  1.00  0.00    -0.361 OA
HETATM   29  H   UNL     1     -42.544  59.935 -49.557  1.00  0.00     0.217 HD
ENDBRANCH  25  28
ENDBRANCH   9  22
BRANCH   7  30
HETATM   30  C   UNL     1     -40.804  53.183 -53.429  1.00  0.00     0.016 A 
HETATM   31  C   UNL     1     -40.398  52.030 -54.117  1.00  0.00     0.039 A 
HETATM   32  C   UNL     1     -39.742  51.004 -53.438  1.00  0.00     0.035 A 
HETATM   33 CL   UNL     1     -39.250  49.592 -54.292  1.00  0.00    -0.084 Cl
HETATM   34  C   UNL     1     -39.481  51.109 -52.073  1.00  0.00     0.024 A 
HETATM   35  C   UNL     1     -39.880  52.250 -51.380  1.00  0.00     0.003 A 
HETATM   36  C   UNL     1     -40.539  53.281 -52.055  1.00  0.00     0.015 A 
ENDBRANCH   7  30
TORSDOF 5
ENDMDL
MODEL 5
REMARK VINA RESULT:      -8.4      4.770      7.996
REMARK  5 active torsions:
REMARK  status: ('A' for Active; 'I' for Inactive)
REMARK    1  A    between atoms: C_7  and  C_8 
REMARK    2  A    between atoms: C_16  and  C_17 
REMARK    3  A    between atoms: C_20  and  O_21 
REMARK    4  A    between atoms: C_24  and  C_25 
REMARK       I    between atoms: C_25  and  N_26 
REMARK    5  A    between atoms: N_26  and  C_27 
ROOT
HETATM    1  C   UNL     1     -43.118  54.318 -55.373  1.00  0.00     0.070 C 
HETATM    2  C   UNL     1     -42.820  55.799 -55.433  1.00  0.00     0.037 A 
HETATM    3  N   UNL     1     -42.835  56.351 -56.711  1.00  0.00    -0.192 N 
HETATM    4  C   UNL     1     -42.484  57.618 -56.978  1.00  0.00     0.726 A 
HETATM    5  N   UNL     1     -42.175  58.452 -55.947  1.00  0.00    -0.083 N 
HETATM    6  N   UNL     1     -41.715  59.638 -56.388  1.00  0.00    -0.135 NA
HETATM    7  C   UNL     1     -41.872  59.502 -57.719  1.00  0.00     0.199 A 
HETATM    8  N   UNL     1     -42.333  58.255 -58.109  1.00  0.00    -0.041 NA
HETATM    9  C   UNL     1     -42.201  58.056 -54.534  1.00  0.00     0.202 A 
HETATM   10  C   UNL     1     -42.518  56.572 -54.351  1.00  0.00     0.062 A 
HETATM   11  H   UNL     1     -43.034  55.727 -57.489  1.00  0.00     0.184 HD
ENDROOT
BRANCH  10  12
HETATM   12  C   UNL     1     -42.542  55.991 -52.962  1.00  0.00     0.256 C 
HETATM   13  N   UNL     1     -41.311  55.658 -52.432  1.00  0.00    -0.323 N 
HETATM   14  H   UNL     1     -40.472  55.928 -52.921  1.00  0.00     0.169 HD
HETATM   15  O   UNL     1     -43.610  55.882 -52.367  1.00  0.00    -0.267 OA
BRANCH  13  16
HETATM   16  C   UNL     1     -41.064  55.010 -51.198  1.00  0.00     0.035 A 
HETATM   17  C   UNL     1     -41.229  55.611 -49.950  1.00  0.00     0.029 A 
HETATM   18  C   UNL     1     -40.994  54.886 -48.776  1.00  0.00     0.002 A 
HETATM   19  C   UNL     1     -40.587  53.557 -48.842  1.00  0.00     0.000 A 
HETATM   20  C   UNL     1     -40.417  52.947 -50.082  1.00  0.00     0.002 A 
HETATM   21  C   UNL     1     -40.661  53.668 -51.253  1.00  0.00     0.029 A 
ENDBRANCH  13  16
ENDBRANCH  10  12
BRANCH   9  22
HETATM   22  C   UNL     1     -43.129  58.995 -53.766  1.00  0.00    -0.028 A 
HETATM   23  C   UNL     1     -42.658  59.823 -52.731  1.00  0.00     0.012 A 
HETATM   24  C   UNL     1     -43.534  60.654 -52.029  1.00  0.00     0.037 A 
HETATM   25  C   UNL     1     -44.887  60.653 -52.350  1.00  0.00     0.065 A 
HETATM   26  C   UNL     1     -45.377  59.834 -53.358  1.00  0.00     0.037 A 
HETATM   27  C   UNL     1     -44.504  59.006 -54.063  1.00  0.00     0.012 A 
BRANCH  25  28
HETATM   28  O   UNL     1     -45.777  61.441 -51.684  1.00  0.00    -0.361 OA
HETATM   29  H   UNL     1     -45.406  62.337 -51.614  1.00  0.00     0.217 HD
ENDBRANCH  25  28
ENDBRANCH   9  22
BRANCH   7  30
HETATM   30  C   UNL     1     -41.571  60.556 -58.681  1.00  0.00     0.016 A 
HETATM   31  C   UNL     1     -40.850  61.696 -58.294  1.00  0.00     0.039 A 
HETATM   32  C   UNL     1     -40.572  62.698 -59.223  1.00  0.00     0.035 A 
HETATM   33 CL   UNL     1     -39.689  64.093 -58.736  1.00  0.00    -0.084 Cl
HETATM   34  C   UNL     1     -41.004  62.583 -60.543  1.00  0.00     0.024 A 
HETATM   35  C   UNL     1     -41.720  61.455 -60.939  1.00  0.00     0.003 A 
HETATM   36  C   UNL     1     -42.003  60.448 -60.012  1.00  0.00     0.015 A 
ENDBRANCH   7  30
TORSDOF 5
ENDMDL
MODEL 6
REMARK VINA RESULT:      -8.3      3.399      8.618
REMARK  5 active torsions:
REMARK  status: ('A' for Active; 'I' for Inactive)
REMARK    1  A    between atoms: C_7  and  C_8 
REMARK    2  A    between atoms: C_16  and  C_17 
REMARK    3  A    between atoms: C_20  and  O_21 
REMARK    4  A    between atoms: C_24  and  C_25 
REMARK       I    between atoms: C_25  and  N_26 
REMARK    5  A    between atoms: N_26  and  C_27 
ROOT
HETATM    1  C   UNL     1     -43.279  54.917 -55.716  1.00  0.00     0.070 C 
HETATM    2  C   UNL     1     -42.824  55.746 -54.536  1.00  0.00     0.037 A 
HETATM    3  N   UNL     1     -43.630  56.843 -54.243  1.00  0.00    -0.192 N 
HETATM    4  C   UNL     1     -43.329  57.760 -53.310  1.00  0.00     0.726 A 
HETATM    5  N   UNL     1     -42.223  57.579 -52.537  1.00  0.00    -0.083 N 
HETATM    6  N   UNL     1     -41.988  58.647 -51.750  1.00  0.00    -0.135 NA
HETATM    7  C   UNL     1     -43.065  59.411 -52.016  1.00  0.00     0.199 A 
HETATM    8  N   UNL     1     -43.901  58.890 -52.990  1.00  0.00    -0.041 NA
HETATM    9  C   UNL     1     -41.318  56.429 -52.652  1.00  0.00     0.202 A 
HETATM   10  C   UNL     1     -41.699  55.502 -53.806  1.00  0.00     0.062 A 
HETATM   11  H   UNL     1     -44.440  57.002 -54.837  1.00  0.00     0.184 HD
ENDROOT
BRANCH  10  12
HETATM   12  C   UNL     1     -40.847  54.294 -54.089  1.00  0.00     0.256 C 
HETATM   13  N   UNL     1     -41.227  53.131 -53.449  1.00  0.00    -0.323 N 
HETATM   14  H   UNL     1     -42.099  53.106 -52.945  1.00  0.00     0.169 HD
HETATM   15  O   UNL     1     -39.911  54.381 -54.880  1.00  0.00    -0.267 OA
BRANCH  13  16
HETATM   16  C   UNL     1     -40.545  51.891 -53.464  1.00  0.00     0.035 A 
HETATM   17  C   UNL     1     -40.516  51.025 -54.558  1.00  0.00     0.029 A 
HETATM   18  C   UNL     1     -39.789  49.831 -54.501  1.00  0.00     0.002 A 
HETATM   19  C   UNL     1     -39.090  49.490 -53.346  1.00  0.00     0.000 A 
HETATM   20  C   UNL     1     -39.113  50.345 -52.247  1.00  0.00     0.002 A 
HETATM   21  C   UNL     1     -39.831  51.541 -52.309  1.00  0.00     0.029 A 
ENDBRANCH  13  16
ENDBRANCH  10  12
BRANCH   9  22
HETATM   22  C   UNL     1     -41.215  55.733 -51.296  1.00  0.00    -0.028 A 
HETATM   23  C   UNL     1     -39.978  55.513 -50.666  1.00  0.00     0.012 A 
HETATM   24  C   UNL     1     -39.911  54.852 -49.437  1.00  0.00     0.037 A 
HETATM   25  C   UNL     1     -41.081  54.397 -48.838  1.00  0.00     0.065 A 
HETATM   26  C   UNL     1     -42.313  54.591 -49.447  1.00  0.00     0.037 A 
HETATM   27  C   UNL     1     -42.382  55.253 -50.673  1.00  0.00     0.012 A 
BRANCH  25  28
HETATM   28  O   UNL     1     -41.060  53.739 -47.644  1.00  0.00    -0.361 OA
HETATM   29  H   UNL     1     -41.315  52.814 -47.796  1.00  0.00     0.217 HD
ENDBRANCH  25  28
ENDBRANCH   9  22
BRANCH   7  30
HETATM   30  C   UNL     1     -43.332  60.687 -51.362  1.00  0.00     0.016 A 
HETATM   31  C   UNL     1     -43.847  60.731 -50.058  1.00  0.00     0.039 A 
HETATM   32  C   UNL     1     -44.102  61.958 -49.446  1.00  0.00     0.035 A 
HETATM   33 CL   UNL     1     -44.735  61.999 -47.846  1.00  0.00    -0.084 Cl
HETATM   34  C   UNL     1     -43.851  63.153 -50.118  1.00  0.00     0.024 A 
HETATM   35  C   UNL     1     -43.340  63.121 -51.415  1.00  0.00     0.003 A 
HETATM   36  C   UNL     1     -43.083  61.894 -52.033  1.00  0.00     0.015 A 
ENDBRANCH   7  30
TORSDOF 5
ENDMDL
MODEL 7
REMARK VINA RESULT:      -8.1      4.507      8.530
REMARK  5 active torsions:
REMARK  status: ('A' for Active; 'I' for Inactive)
REMARK    1  A    between atoms: C_7  and  C_8 
REMARK    2  A    between atoms: C_16  and  C_17 
REMARK    3  A    between atoms: C_20  and  O_21 
REMARK    4  A    between atoms: C_24  and  C_25 
REMARK       I    between atoms: C_25  and  N_26 
REMARK    5  A    between atoms: N_26  and  C_27 
ROOT
HETATM    1  C   UNL     1     -43.619  53.265 -56.342  1.00  0.00     0.070 C 
HETATM    2  C   UNL     1     -43.071  54.664 -56.170  1.00  0.00     0.037 A 
HETATM    3  N   UNL     1     -43.355  55.538 -57.215  1.00  0.00    -0.192 N 
HETATM    4  C   UNL     1     -42.859  56.783 -57.299  1.00  0.00     0.726 A 
HETATM    5  N   UNL     1     -42.105  57.266 -56.273  1.00  0.00    -0.083 N 
HETATM    6  N   UNL     1     -41.575  58.468 -56.571  1.00  0.00    -0.135 NA
HETATM    7  C   UNL     1     -42.140  58.716 -57.768  1.00  0.00     0.199 A 
HETATM    8  N   UNL     1     -42.927  57.680 -58.246  1.00  0.00    -0.041 NA
HETATM    9  C   UNL     1     -41.791  56.509 -55.056  1.00  0.00     0.202 A 
HETATM   10  C   UNL     1     -42.321  55.077 -55.109  1.00  0.00     0.062 A 
HETATM   11  H   UNL     1     -43.890  55.175 -58.000  1.00  0.00     0.184 HD
ENDROOT
BRANCH  10  12
HETATM   12  C   UNL     1     -42.047  54.149 -53.955  1.00  0.00     0.256 C 
HETATM   13  N   UNL     1     -40.842  53.477 -54.001  1.00  0.00    -0.323 N 
HETATM   14  H   UNL     1     -40.164  53.723 -54.705  1.00  0.00     0.169 HD
HETATM   15  O   UNL     1     -42.858  54.065 -53.037  1.00  0.00    -0.267 OA
BRANCH  13  16
HETATM   16  C   UNL     1     -40.389  52.481 -53.103  1.00  0.00     0.035 A 
HETATM   17  C   UNL     1     -40.309  52.651 -51.720  1.00  0.00     0.029 A 
HETATM   18  C   UNL     1     -39.881  51.602 -50.899  1.00  0.00     0.002 A 
HETATM   19  C   UNL     1     -39.523  50.377 -51.455  1.00  0.00     0.000 A 
HETATM   20  C   UNL     1     -39.597  50.196 -52.834  1.00  0.00     0.002 A 
HETATM   21  C   UNL     1     -40.034  51.241 -53.652  1.00  0.00     0.029 A 
ENDBRANCH  13  16
ENDBRANCH  10  12
BRANCH   9  22
HETATM   22  C   UNL     1     -42.252  57.304 -53.836  1.00  0.00    -0.028 A 
HETATM   23  C   UNL     1     -41.351  57.737 -52.848  1.00  0.00     0.012 A 
HETATM   24  C   UNL     1     -41.804  58.441 -51.729  1.00  0.00     0.037 A 
HETATM   25  C   UNL     1     -43.162  58.706 -51.589  1.00  0.00     0.065 A 
HETATM   26  C   UNL     1     -44.072  58.278 -52.545  1.00  0.00     0.037 A 
HETATM   27  C   UNL     1     -43.622  57.577 -53.664  1.00  0.00     0.012 A 
BRANCH  25  28
HETATM   28  O   UNL     1     -43.648  59.382 -50.510  1.00  0.00    -0.361 OA
HETATM   29  H   UNL     1     -44.547  59.688 -50.715  1.00  0.00     0.217 HD
ENDBRANCH  25  28
ENDBRANCH   9  22
BRANCH   7  30
HETATM   30  C   UNL     1     -41.937  59.949 -58.520  1.00  0.00     0.016 A 
HETATM   31  C   UNL     1     -42.158  59.991 -59.904  1.00  0.00     0.039 A 
HETATM   32  C   UNL     1     -41.956  61.175 -60.611  1.00  0.00     0.035 A 
HETATM   33 CL   UNL     1     -42.230  61.214 -62.310  1.00  0.00    -0.084 Cl
HETATM   34  C   UNL     1     -41.533  62.330 -59.956  1.00  0.00     0.024 A 
HETATM   35  C   UNL     1     -41.309  62.300 -58.580  1.00  0.00     0.003 A 
HETATM   36  C   UNL     1     -41.509  61.116 -57.867  1.00  0.00     0.015 A 
ENDBRANCH   7  30
TORSDOF 5
ENDMDL
MODEL 8
REMARK VINA RESULT:      -8.1      3.658      9.194
REMARK  5 active torsions:
REMARK  status: ('A' for Active; 'I' for Inactive)
REMARK    1  A    between atoms: C_7  and  C_8 
REMARK    2  A    between atoms: C_16  and  C_17 
REMARK    3  A    between atoms: C_20  and  O_21 
REMARK    4  A    between atoms: C_24  and  C_25 
REMARK       I    between atoms: C_25  and  N_26 
REMARK    5  A    between atoms: N_26  and  C_27 
ROOT
HETATM    1  C   UNL     1     -39.397  58.806 -51.057  1.00  0.00     0.070 C 
HETATM    2  C   UNL     1     -40.895  58.992 -51.161  1.00  0.00     0.037 A 
HETATM    3  N   UNL     1     -41.391  60.125 -50.524  1.00  0.00    -0.192 N 
HETATM    4  C   UNL     1     -42.700  60.399 -50.407  1.00  0.00     0.726 A 
HETATM    5  N   UNL     1     -43.604  59.582 -51.013  1.00  0.00    -0.083 N 
HETATM    6  N   UNL     1     -44.869  59.914 -50.688  1.00  0.00    -0.135 NA
HETATM    7  C   UNL     1     -44.668  61.027 -49.956  1.00  0.00     0.199 A 
HETATM    8  N   UNL     1     -43.333  61.339 -49.757  1.00  0.00    -0.041 NA
HETATM    9  C   UNL     1     -43.244  58.398 -51.802  1.00  0.00     0.202 A 
HETATM   10  C   UNL     1     -41.740  58.125 -51.788  1.00  0.00     0.062 A 
HETATM   11  H   UNL     1     -40.725  60.723 -50.042  1.00  0.00     0.184 HD
ENDROOT
BRANCH  10  12
HETATM   12  C   UNL     1     -41.205  56.920 -52.516  1.00  0.00     0.256 C 
HETATM   13  N   UNL     1     -41.459  55.701 -51.919  1.00  0.00    -0.323 N 
HETATM   14  H   UNL     1     -42.079  55.657 -51.127  1.00  0.00     0.169 HD
HETATM   15  O   UNL     1     -40.625  57.066 -53.588  1.00  0.00    -0.267 OA
BRANCH  13  16
HETATM   16  C   UNL     1     -40.985  54.435 -52.340  1.00  0.00     0.035 A 
HETATM   17  C   UNL     1     -41.122  53.938 -53.636  1.00  0.00     0.029 A 
HETATM   18  C   UNL     1     -40.595  52.688 -53.977  1.00  0.00     0.002 A 
HETATM   19  C   UNL     1     -39.931  51.922 -53.022  1.00  0.00     0.000 A 
HETATM   20  C   UNL     1     -39.790  52.407 -51.725  1.00  0.00     0.002 A 
HETATM   21  C   UNL     1     -40.308  53.660 -51.388  1.00  0.00     0.029 A 
ENDBRANCH  13  16
ENDBRANCH  10  12
BRANCH   9  22
HETATM   22  C   UNL     1     -43.845  58.524 -53.200  1.00  0.00    -0.028 A 
HETATM   23  C   UNL     1     -44.673  57.527 -53.745  1.00  0.00     0.012 A 
HETATM   24  C   UNL     1     -45.190  57.657 -55.037  1.00  0.00     0.037 A 
HETATM   25  C   UNL     1     -44.872  58.779 -55.794  1.00  0.00     0.065 A 
HETATM   26  C   UNL     1     -44.046  59.770 -55.282  1.00  0.00     0.037 A 
HETATM   27  C   UNL     1     -43.531  59.644 -53.992  1.00  0.00     0.012 A 
BRANCH  25  28
HETATM   28  O   UNL     1     -45.347  58.942 -57.061  1.00  0.00    -0.361 OA
HETATM   29  H   UNL     1     -44.698  59.454 -57.572  1.00  0.00     0.217 HD
ENDBRANCH  25  28
ENDBRANCH   9  22
BRANCH   7  30
HETATM   30  C   UNL     1     -45.748  61.834 -49.398  1.00  0.00     0.016 A 
HETATM   31  C   UNL     1     -45.947  61.905 -48.012  1.00  0.00     0.039 A 
HETATM   32  C   UNL     1     -46.985  62.677 -47.492  1.00  0.00     0.035 A 
HETATM   33 CL   UNL     1     -47.221  62.754 -45.788  1.00  0.00    -0.084 Cl
HETATM   34  C   UNL     1     -47.836  63.385 -48.337  1.00  0.00     0.024 A 
HETATM   35  C   UNL     1     -47.648  63.322 -49.717  1.00  0.00     0.003 A 
HETATM   36  C   UNL     1     -46.609  62.549 -50.244  1.00  0.00     0.015 A 
ENDBRANCH   7  30
TORSDOF 5
ENDMDL
MODEL 9
REMARK VINA RESULT:      -8.0      3.393      4.790
REMARK  5 active torsions:
REMARK  status: ('A' for Active; 'I' for Inactive)
REMARK    1  A    between atoms: C_7  and  C_8 
REMARK    2  A    between atoms: C_16  and  C_17 
REMARK    3  A    between atoms: C_20  and  O_21 
REMARK    4  A    between atoms: C_24  and  C_25 
REMARK       I    between atoms: C_25  and  N_26 
REMARK    5  A    between atoms: N_26  and  C_27 
ROOT
HETATM    1  C   UNL     1     -45.347  58.897 -52.569  1.00  0.00     0.070 C 
HETATM    2  C   UNL     1     -44.276  58.039 -53.204  1.00  0.00     0.037 A 
HETATM    3  N   UNL     1     -44.083  56.799 -52.600  1.00  0.00    -0.192 N 
HETATM    4  C   UNL     1     -43.104  55.948 -52.946  1.00  0.00     0.726 A 
HETATM    5  N   UNL     1     -42.299  56.257 -54.000  1.00  0.00    -0.083 N 
HETATM    6  N   UNL     1     -41.291  55.374 -54.130  1.00  0.00    -0.135 NA
HETATM    7  C   UNL     1     -41.604  54.475 -53.176  1.00  0.00     0.199 A 
HETATM    8  N   UNL     1     -42.713  54.817 -52.420  1.00  0.00    -0.041 NA
HETATM    9  C   UNL     1     -42.429  57.478 -54.803  1.00  0.00     0.202 A 
HETATM   10  C   UNL     1     -43.507  58.418 -54.264  1.00  0.00     0.062 A 
HETATM   11  H   UNL     1     -44.658  56.575 -51.793  1.00  0.00     0.184 HD
ENDROOT
BRANCH  10  12
HETATM   12  C   UNL     1     -43.740  59.739 -54.948  1.00  0.00     0.256 C 
HETATM   13  N   UNL     1     -44.829  59.788 -55.796  1.00  0.00    -0.323 N 
HETATM   14  H   UNL     1     -45.474  59.014 -55.819  1.00  0.00     0.169 HD
HETATM   15  O   UNL     1     -43.004  60.690 -54.701  1.00  0.00    -0.267 OA
BRANCH  13  16
HETATM   16  C   UNL     1     -45.208  60.867 -56.630  1.00  0.00     0.035 A 
HETATM   17  C   UNL     1     -46.119  61.858 -56.264  1.00  0.00     0.029 A 
HETATM   18  C   UNL     1     -46.414  62.910 -57.138  1.00  0.00     0.002 A 
HETATM   19  C   UNL     1     -45.804  62.976 -58.388  1.00  0.00     0.000 A 
HETATM   20  C   UNL     1     -44.895  61.991 -58.765  1.00  0.00     0.002 A 
HETATM   21  C   UNL     1     -44.594  60.946 -57.888  1.00  0.00     0.029 A 
ENDBRANCH  13  16
ENDBRANCH  10  12
BRANCH   9  22
HETATM   22  C   UNL     1     -42.606  57.098 -56.272  1.00  0.00    -0.028 A 
HETATM   23  C   UNL     1     -43.150  55.860 -56.658  1.00  0.00     0.012 A 
HETATM   24  C   UNL     1     -43.278  55.528 -58.009  1.00  0.00     0.037 A 
HETATM   25  C   UNL     1     -42.851  56.427 -58.980  1.00  0.00     0.065 A 
HETATM   26  C   UNL     1     -42.298  57.649 -58.623  1.00  0.00     0.037 A 
HETATM   27  C   UNL     1     -42.172  57.984 -57.274  1.00  0.00     0.012 A 
BRANCH  25  28
HETATM   28  O   UNL     1     -42.948  56.140 -60.309  1.00  0.00    -0.361 OA
HETATM   29  H   UNL     1     -43.393  56.880 -60.754  1.00  0.00     0.217 HD
ENDBRANCH  25  28
ENDBRANCH   9  22
BRANCH   7  30
HETATM   30  C   UNL     1     -40.842  53.256 -52.932  1.00  0.00     0.016 A 
HETATM   31  C   UNL     1     -40.679  52.297 -53.943  1.00  0.00     0.039 A 
HETATM   32  C   UNL     1     -39.952  51.134 -53.695  1.00  0.00     0.035 A 
HETATM   33 CL   UNL     1     -39.760  49.964 -54.944  1.00  0.00    -0.084 Cl
HETATM   34  C   UNL     1     -39.379  50.907 -52.445  1.00  0.00     0.024 A 
HETATM   35  C   UNL     1     -39.535  51.852 -51.433  1.00  0.00     0.003 A 
HETATM   36  C   UNL     1     -40.264  53.019 -51.675  1.00  0.00     0.015 A 
ENDBRANCH   7  30
TORSDOF 5
ENDMDL
MODEL 10
REMARK VINA RESULT:      -8.0      4.783      6.172
REMARK  5 active torsions:
REMARK  status: ('A' for Active; 'I' for Inactive)
REMARK    1  A    between atoms: C_7  and  C_8 
REMARK    2  A    between atoms: C_16  and  C_17 
REMARK    3  A    between atoms: C_20  and  O_21 
REMARK    4  A    between atoms: C_24  and  C_25 
REMARK       I    between atoms: C_25  and  N_26 
REMARK    5  A    between atoms: N_26  and  C_27 
ROOT
HETATM    1  C   UNL     1     -43.710  60.368 -54.597  1.00  0.00     0.070 C 
HETATM    2  C   UNL     1     -43.076  59.059 -55.013  1.00  0.00     0.037 A 
HETATM    3  N   UNL     1     -42.981  58.106 -54.002  1.00  0.00    -0.192 N 
HETATM    4  C   UNL     1     -42.348  56.931 -54.146  1.00  0.00     0.726 A 
HETATM    5  N   UNL     1     -41.839  56.597 -55.364  1.00  0.00    -0.083 N 
HETATM    6  N   UNL     1     -41.122  55.458 -55.306  1.00  0.00    -0.135 NA
HETATM    7  C   UNL     1     -41.326  55.084 -54.028  1.00  0.00     0.199 A 
HETATM    8  N   UNL     1     -42.069  55.987 -53.286  1.00  0.00    -0.041 NA
HETATM    9  C   UNL     1     -41.936  57.446 -56.556  1.00  0.00     0.202 A 
HETATM   10  C   UNL     1     -42.587  58.796 -56.258  1.00  0.00     0.062 A 
HETATM   11  H   UNL     1     -43.330  58.361 -53.082  1.00  0.00     0.184 HD
ENDROOT
BRANCH  10  12
HETATM   12  C   UNL     1     -42.726  59.806 -57.366  1.00  0.00     0.256 C 
HETATM   13  N   UNL     1     -41.541  60.283 -57.891  1.00  0.00    -0.323 N 
HETATM   14  H   UNL     1     -40.670  59.857 -57.617  1.00  0.00     0.169 HD
HETATM   15  O   UNL     1     -43.843  60.119 -57.767  1.00  0.00    -0.267 OA
BRANCH  13  16
HETATM   16  C   UNL     1     -41.392  61.303 -58.862  1.00  0.00     0.035 A 
HETATM   17  C   UNL     1     -41.707  61.151 -60.213  1.00  0.00     0.029 A 
HETATM   18  C   UNL     1     -41.561  62.222 -61.101  1.00  0.00     0.002 A 
HETATM   19  C   UNL     1     -41.091  63.452 -60.646  1.00  0.00     0.000 A 
HETATM   20  C   UNL     1     -40.770  63.614 -59.301  1.00  0.00     0.002 A 
HETATM   21  C   UNL     1     -40.926  62.547 -58.413  1.00  0.00     0.029 A 
ENDBRANCH  13  16
ENDBRANCH  10  12
BRANCH   9  22
HETATM   22  C   UNL     1     -42.609  56.660 -57.679  1.00  0.00    -0.028 A 
HETATM   23  C   UNL     1     -43.353  55.493 -57.427  1.00  0.00     0.012 A 
HETATM   24  C   UNL     1     -43.938  54.780 -58.477  1.00  0.00     0.037 A 
HETATM   25  C   UNL     1     -43.772  55.223 -59.784  1.00  0.00     0.065 A 
HETATM   26  C   UNL     1     -43.030  56.364 -60.059  1.00  0.00     0.037 A 
HETATM   27  C   UNL     1     -42.448  57.080 -59.013  1.00  0.00     0.012 A 
BRANCH  25  28
HETATM   28  O   UNL     1     -44.317  54.552 -60.838  1.00  0.00    -0.361 OA
HETATM   29  H   UNL     1     -43.835  54.800 -61.645  1.00  0.00     0.217 HD
ENDBRANCH  25  28
ENDBRANCH   9  22
BRANCH   7  30
HETATM   30  C   UNL     1     -40.801  53.850 -53.453  1.00  0.00     0.016 A 
HETATM   31  C   UNL     1     -40.564  52.727 -54.259  1.00  0.00     0.039 A 
HETATM   32  C   UNL     1     -40.066  51.553 -53.696  1.00  0.00     0.035 A 
HETATM   33 CL   UNL     1     -39.782  50.180 -54.696  1.00  0.00    -0.084 Cl
HETATM   34  C   UNL     1     -39.797  51.478 -52.331  1.00  0.00     0.024 A 
HETATM   35  C   UNL     1     -40.029  52.588 -51.520  1.00  0.00     0.003 A 
HETATM   36  C   UNL     1     -40.529  53.767 -52.079  1.00  0.00     0.015 A 
ENDBRANCH   7  30
TORSDOF 5
ENDMDL
