MODEL 1
REMARK VINA RESULT:      -7.8      0.000      0.000
REMARK  8 active torsions:
REMARK  status: ('A' for Active; 'I' for Inactive)
REMARK    1  A    between atoms: C_9  and  S_10 
REMARK    2  A    between atoms: S_10  and  C_11 
REMARK    3  A    between atoms: C_11  and  C_12 
REMARK       I    between atoms: C_12  and  N_13 
REMARK    4  A    between atoms: N_13  and  C_14 
REMARK    5  A    between atoms: C_15  and  O_16 
REMARK    6  A    between atoms: C_20  and  O_21 
REMARK    7  A    between atoms: N_25  and  C_26 
REMARK    8  A    between atoms: C_33  and  N_34 
ROOT
HETATM    1  C   UNL     1     -45.141  58.329 -57.672  1.00  0.00     0.073 C 
HETATM    2  C   UNL     1     -43.971  57.865 -56.882  1.00  0.00     0.068 A 
HETATM    3  N   UNL     1     -43.032  57.123 -57.484  1.00  0.00    -0.177 NA
HETATM    4  N   UNL     1     -42.125  56.885 -56.523  1.00  0.00    -0.260 N 
HETATM    5  H   UNL     1     -41.296  56.338 -56.741  1.00  0.00     0.191 HD
HETATM    6  C   UNL     1     -42.483  57.421 -55.321  1.00  0.00     0.162 A 
HETATM    7  C   UNL     1     -43.679  58.080 -55.500  1.00  0.00     0.081 A 
HETATM    8  N   UNL     1     -41.810  57.304 -54.182  1.00  0.00    -0.204 NA
HETATM    9  C   UNL     1     -42.410  57.906 -53.149  1.00  0.00     0.177 A 
HETATM   10  N   UNL     1     -43.575  58.611 -53.238  1.00  0.00    -0.276 N 
HETATM   11  C   UNL     1     -44.276  58.730 -54.405  1.00  0.00     0.124 A 
ENDROOT
BRANCH   9  12
HETATM   12  S   UNL     1     -41.627  57.563 -51.559  1.00  0.00    -0.082 SA
BRANCH  12  13
HETATM   13  C   UNL     1     -42.614  56.161 -50.904  1.00  0.00     0.185 C 
BRANCH  13  14
HETATM   14  C   UNL     1     -42.365  54.824 -51.590  1.00  0.00     0.232 C 
HETATM   15  N   UNL     1     -41.108  54.690 -52.168  1.00  0.00    -0.324 N 
HETATM   16  H   UNL     1     -40.388  55.281 -51.782  1.00  0.00     0.169 HD
HETATM   17  O   UNL     1     -43.229  53.949 -51.555  1.00  0.00    -0.272 OA
BRANCH  15  18
HETATM   18  C   UNL     1     -40.687  53.457 -52.719  1.00  0.00     0.071 A 
HETATM   19  C   UNL     1     -40.958  53.102 -54.055  1.00  0.00     0.095 A 
HETATM   20  C   UNL     1     -40.544  51.849 -54.518  1.00  0.00     0.042 A 
HETATM   21  C   UNL     1     -39.871  50.968 -53.665  1.00  0.00     0.039 A 
HETATM   22  C   UNL     1     -39.600  51.329 -52.347  1.00  0.00     0.070 A 
HETATM   23  C   UNL     1     -39.966  52.591 -51.885  1.00  0.00     0.069 A 
BRANCH  19  24
HETATM   24  O   UNL     1     -41.541  54.065 -54.836  1.00  0.00    -0.354 OA
HETATM   25  C   UNL     1     -42.873  53.838 -55.275  1.00  0.00     0.210 C 
ENDBRANCH  19  24
BRANCH  22  26
HETATM   26  O   UNL     1     -38.936  50.405 -51.591  1.00  0.00    -0.356 OA
HETATM   27  C   UNL     1     -39.738  49.785 -50.590  1.00  0.00     0.210 C 
ENDBRANCH  22  26
ENDBRANCH  15  18
ENDBRANCH  13  14
ENDBRANCH  12  13
ENDBRANCH   9  12
BRANCH  10  28
HETATM   28  C   UNL     1     -44.079  59.291 -52.077  1.00  0.00     0.043 A 
HETATM   29  C   UNL     1     -43.576  60.561 -51.781  1.00  0.00     0.031 A 
HETATM   30  C   UNL     1     -44.092  61.245 -50.680  1.00  0.00     0.021 A 
HETATM   31  C   UNL     1     -45.094  60.657 -49.903  1.00  0.00     0.011 A 
HETATM   32 BR   UNL     1     -45.785  61.590 -48.412  1.00  0.00    -0.051 Br
HETATM   33  C   UNL     1     -45.597  59.392 -50.219  1.00  0.00     0.021 A 
HETATM   34  C   UNL     1     -45.095  58.699 -51.323  1.00  0.00     0.031 A 
ENDBRANCH  10  28
BRANCH  11  35
HETATM   35  N   UNL     1     -45.484  59.404 -54.498  1.00  0.00    -0.384 N 
HETATM   36  H   UNL     1     -46.036  59.438 -55.347  1.00  0.00     0.157 HD
HETATM   37  H   UNL     1     -45.719  60.108 -53.808  1.00  0.00     0.157 HD
ENDBRANCH  11  35
TORSDOF 8
ENDMDL
MODEL 2
REMARK VINA RESULT:      -7.5      2.205      3.398
REMARK  8 active torsions:
REMARK  status: ('A' for Active; 'I' for Inactive)
REMARK    1  A    between atoms: C_9  and  S_10 
REMARK    2  A    between atoms: S_10  and  C_11 
REMARK    3  A    between atoms: C_11  and  C_12 
REMARK       I    between atoms: C_12  and  N_13 
REMARK    4  A    between atoms: N_13  and  C_14 
REMARK    5  A    between atoms: C_15  and  O_16 
REMARK    6  A    between atoms: C_20  and  O_21 
REMARK    7  A    between atoms: N_25  and  C_26 
REMARK    8  A    between atoms: C_33  and  N_34 
ROOT
HETATM    1  C   UNL     1     -41.951  59.225 -60.683  1.00  0.00     0.073 C 
HETATM    2  C   UNL     1     -42.189  58.049 -59.806  1.00  0.00     0.068 A 
HETATM    3  N   UNL     1     -42.186  56.823 -60.346  1.00  0.00    -0.177 NA
HETATM    4  N   UNL     1     -42.410  55.999 -59.309  1.00  0.00    -0.260 N 
HETATM    5  H   UNL     1     -42.445  54.995 -59.466  1.00  0.00     0.191 HD
HETATM    6  C   UNL     1     -42.595  56.672 -58.137  1.00  0.00     0.162 A 
HETATM    7  C   UNL     1     -42.453  58.016 -58.402  1.00  0.00     0.081 A 
HETATM    8  N   UNL     1     -42.884  56.126 -56.961  1.00  0.00    -0.204 NA
HETATM    9  C   UNL     1     -43.042  57.028 -55.985  1.00  0.00     0.177 A 
HETATM   10  N   UNL     1     -42.886  58.374 -56.146  1.00  0.00    -0.276 N 
HETATM   11  C   UNL     1     -42.595  58.942 -57.354  1.00  0.00     0.124 A 
ENDROOT
BRANCH   9  12
HETATM   12  S   UNL     1     -43.655  56.320 -54.442  1.00  0.00    -0.082 SA
BRANCH  12  13
HETATM   13  C   UNL     1     -42.115  55.971 -53.505  1.00  0.00     0.185 C 
BRANCH  13  14
HETATM   14  C   UNL     1     -41.974  54.538 -53.011  1.00  0.00     0.232 C 
HETATM   15  N   UNL     1     -40.666  54.122 -52.791  1.00  0.00    -0.324 N 
HETATM   16  H   UNL     1     -40.001  54.859 -52.614  1.00  0.00     0.169 HD
HETATM   17  O   UNL     1     -42.981  53.866 -52.791  1.00  0.00    -0.272 OA
BRANCH  15  18
HETATM   18  C   UNL     1     -40.390  52.865 -52.202  1.00  0.00     0.071 A 
HETATM   19  C   UNL     1     -40.398  52.674 -50.806  1.00  0.00     0.095 A 
HETATM   20  C   UNL     1     -40.078  51.413 -50.296  1.00  0.00     0.042 A 
HETATM   21  C   UNL     1     -39.758  50.362 -51.161  1.00  0.00     0.039 A 
HETATM   22  C   UNL     1     -39.760  50.556 -52.540  1.00  0.00     0.070 A 
HETATM   23  C   UNL     1     -40.121  51.794 -53.066  1.00  0.00     0.069 A 
BRANCH  19  24
HETATM   24  O   UNL     1     -40.810  53.739 -50.047  1.00  0.00    -0.354 OA
HETATM   25  C   UNL     1     -40.373  53.792 -48.696  1.00  0.00     0.210 C 
ENDBRANCH  19  24
BRANCH  22  26
HETATM   26  O   UNL     1     -39.439  49.470 -53.305  1.00  0.00    -0.356 OA
HETATM   27  C   UNL     1     -39.490  49.709 -54.708  1.00  0.00     0.210 C 
ENDBRANCH  22  26
ENDBRANCH  15  18
ENDBRANCH  13  14
ENDBRANCH  12  13
ENDBRANCH   9  12
BRANCH  10  28
HETATM   28  C   UNL     1     -42.993  59.237 -55.003  1.00  0.00     0.043 A 
HETATM   29  C   UNL     1     -44.252  59.747 -54.671  1.00  0.00     0.031 A 
HETATM   30  C   UNL     1     -44.370  60.551 -53.537  1.00  0.00     0.021 A 
HETATM   31  C   UNL     1     -43.243  60.826 -52.758  1.00  0.00     0.011 A 
HETATM   32 BR   UNL     1     -43.412  61.918 -51.225  1.00  0.00    -0.051 Br
HETATM   33  C   UNL     1     -41.992  60.299 -53.095  1.00  0.00     0.021 A 
HETATM   34  C   UNL     1     -41.861  59.487 -54.223  1.00  0.00     0.031 A 
ENDBRANCH  10  28
BRANCH  11  35
HETATM   35  N   UNL     1     -42.481  60.311 -57.539  1.00  0.00    -0.384 N 
HETATM   36  H   UNL     1     -43.275  60.941 -57.531  1.00  0.00     0.157 HD
HETATM   37  H   UNL     1     -41.641  60.691 -57.962  1.00  0.00     0.157 HD
ENDBRANCH  11  35
TORSDOF 8
ENDMDL
MODEL 3
REMARK VINA RESULT:      -7.4      2.769      3.927
REMARK  8 active torsions:
REMARK  status: ('A' for Active; 'I' for Inactive)
REMARK    1  A    between atoms: C_9  and  S_10 
REMARK    2  A    between atoms: S_10  and  C_11 
REMARK    3  A    between atoms: C_11  and  C_12 
REMARK       I    between atoms: C_12  and  N_13 
REMARK    4  A    between atoms: N_13  and  C_14 
REMARK    5  A    between atoms: C_15  and  O_16 
REMARK    6  A    between atoms: C_20  and  O_21 
REMARK    7  A    between atoms: N_25  and  C_26 
REMARK    8  A    between atoms: C_33  and  N_34 
ROOT
HETATM    1  C   UNL     1     -41.422  61.819 -60.275  1.00  0.00     0.073 C 
HETATM    2  C   UNL     1     -41.770  60.405 -59.973  1.00  0.00     0.068 A 
HETATM    3  N   UNL     1     -41.872  59.530 -60.982  1.00  0.00    -0.177 NA
HETATM    4  N   UNL     1     -42.176  58.365 -60.387  1.00  0.00    -0.260 N 
HETATM    5  H   UNL     1     -42.298  57.530 -60.954  1.00  0.00     0.191 HD
HETATM    6  C   UNL     1     -42.308  58.488 -59.035  1.00  0.00     0.162 A 
HETATM    7  C   UNL     1     -42.046  59.800 -58.709  1.00  0.00     0.081 A 
HETATM    8  N   UNL     1     -42.653  57.520 -58.194  1.00  0.00    -0.204 NA
HETATM    9  C   UNL     1     -42.737  57.930 -56.922  1.00  0.00     0.177 A 
HETATM   10  N   UNL     1     -42.462  59.198 -56.502  1.00  0.00    -0.276 N 
HETATM   11  C   UNL     1     -42.113  60.200 -57.362  1.00  0.00     0.124 A 
ENDROOT
BRANCH   9  12
HETATM   12  S   UNL     1     -43.422  56.686 -55.807  1.00  0.00    -0.082 SA
BRANCH  12  13
HETATM   13  C   UNL     1     -42.194  55.325 -55.900  1.00  0.00     0.185 C 
BRANCH  13  14
HETATM   14  C   UNL     1     -41.466  55.027 -54.596  1.00  0.00     0.232 C 
HETATM   15  N   UNL     1     -42.037  54.020 -53.826  1.00  0.00    -0.324 N 
HETATM   16  H   UNL     1     -42.606  53.358 -54.331  1.00  0.00     0.169 HD
HETATM   17  O   UNL     1     -40.428  55.628 -54.325  1.00  0.00    -0.272 OA
BRANCH  15  18
HETATM   18  C   UNL     1     -41.395  53.542 -52.659  1.00  0.00     0.071 A 
HETATM   19  C   UNL     1     -40.407  52.538 -52.706  1.00  0.00     0.095 A 
HETATM   20  C   UNL     1     -39.845  52.089 -51.507  1.00  0.00     0.042 A 
HETATM   21  C   UNL     1     -40.257  52.631 -50.287  1.00  0.00     0.039 A 
HETATM   22  C   UNL     1     -41.229  53.628 -50.248  1.00  0.00     0.070 A 
HETATM   23  C   UNL     1     -41.766  54.118 -51.436  1.00  0.00     0.069 A 
BRANCH  19  24
HETATM   24  O   UNL     1     -40.006  52.134 -53.953  1.00  0.00    -0.354 OA
HETATM   25  C   UNL     1     -39.693  50.760 -54.130  1.00  0.00     0.210 C 
ENDBRANCH  19  24
BRANCH  22  26
HETATM   26  O   UNL     1     -41.565  54.099 -49.010  1.00  0.00    -0.356 OA
HETATM   27  C   UNL     1     -40.460  54.246 -48.123  1.00  0.00     0.210 C 
ENDBRANCH  22  26
ENDBRANCH  15  18
ENDBRANCH  13  14
ENDBRANCH  12  13
ENDBRANCH   9  12
BRANCH  10  28
HETATM   28  C   UNL     1     -42.500  59.499 -55.098  1.00  0.00     0.043 A 
HETATM   29  C   UNL     1     -41.382  59.183 -54.320  1.00  0.00     0.031 A 
HETATM   30  C   UNL     1     -41.395  59.512 -52.964  1.00  0.00     0.021 A 
HETATM   31  C   UNL     1     -42.512  60.148 -52.414  1.00  0.00     0.011 A 
HETATM   32 BR   UNL     1     -42.522  60.588 -50.576  1.00  0.00    -0.051 Br
HETATM   33  C   UNL     1     -43.617  60.470 -53.206  1.00  0.00     0.021 A 
HETATM   34  C   UNL     1     -43.614  60.153 -54.566  1.00  0.00     0.031 A 
ENDBRANCH  10  28
BRANCH  11  35
HETATM   35  N   UNL     1     -41.876  61.503 -56.953  1.00  0.00    -0.384 N 
HETATM   36  H   UNL     1     -41.724  61.762 -55.985  1.00  0.00     0.157 HD
HETATM   37  H   UNL     1     -42.120  62.273 -57.566  1.00  0.00     0.157 HD
ENDBRANCH  11  35
TORSDOF 8
ENDMDL
MODEL 4
REMARK VINA RESULT:      -7.4      3.424      7.441
REMARK  8 active torsions:
REMARK  status: ('A' for Active; 'I' for Inactive)
REMARK    1  A    between atoms: C_9  and  S_10 
REMARK    2  A    between atoms: S_10  and  C_11 
REMARK    3  A    between atoms: C_11  and  C_12 
REMARK       I    between atoms: C_12  and  N_13 
REMARK    4  A    between atoms: N_13  and  C_14 
REMARK    5  A    between atoms: C_15  and  O_16 
REMARK    6  A    between atoms: C_20  and  O_21 
REMARK    7  A    between atoms: N_25  and  C_26 
REMARK    8  A    between atoms: C_33  and  N_34 
ROOT
HETATM    1  C   UNL     1     -40.617  53.935 -48.025  1.00  0.00     0.073 C 
HETATM    2  C   UNL     1     -40.569  53.496 -49.445  1.00  0.00     0.068 A 
HETATM    3  N   UNL     1     -40.226  52.231 -49.724  1.00  0.00    -0.177 NA
HETATM    4  N   UNL     1     -40.290  52.154 -51.063  1.00  0.00    -0.260 N 
HETATM    5  H   UNL     1     -40.078  51.273 -51.525  1.00  0.00     0.191 HD
HETATM    6  C   UNL     1     -40.624  53.344 -51.640  1.00  0.00     0.162 A 
HETATM    7  C   UNL     1     -40.826  54.255 -50.628  1.00  0.00     0.081 A 
HETATM    8  N   UNL     1     -40.713  53.581 -52.944  1.00  0.00    -0.204 NA
HETATM    9  C   UNL     1     -41.030  54.850 -53.230  1.00  0.00     0.177 A 
HETATM   10  N   UNL     1     -41.281  55.811 -52.295  1.00  0.00    -0.276 N 
HETATM   11  C   UNL     1     -41.186  55.575 -50.953  1.00  0.00     0.124 A 
ENDROOT
BRANCH   9  12
HETATM   12  S   UNL     1     -40.931  55.239 -54.990  1.00  0.00    -0.082 SA
BRANCH  12  13
HETATM   13  C   UNL     1     -42.692  55.420 -55.474  1.00  0.00     0.185 C 
BRANCH  13  14
HETATM   14  C   UNL     1     -42.996  56.622 -56.357  1.00  0.00     0.232 C 
HETATM   15  N   UNL     1     -41.951  57.016 -57.186  1.00  0.00    -0.324 N 
HETATM   16  H   UNL     1     -41.277  56.299 -57.404  1.00  0.00     0.169 HD
HETATM   17  O   UNL     1     -44.116  57.131 -56.333  1.00  0.00    -0.272 OA
BRANCH  15  18
HETATM   18  C   UNL     1     -42.134  58.029 -58.158  1.00  0.00     0.071 A 
HETATM   19  C   UNL     1     -42.504  57.734 -59.485  1.00  0.00     0.095 A 
HETATM   20  C   UNL     1     -42.628  58.785 -60.399  1.00  0.00     0.042 A 
HETATM   21  C   UNL     1     -42.391  60.103 -59.997  1.00  0.00     0.039 A 
HETATM   22  C   UNL     1     -42.033  60.387 -58.681  1.00  0.00     0.070 A 
HETATM   23  C   UNL     1     -41.949  59.356 -57.748  1.00  0.00     0.069 A 
BRANCH  19  24
HETATM   24  O   UNL     1     -42.802  56.425 -59.760  1.00  0.00    -0.354 OA
HETATM   25  C   UNL     1     -44.093  56.139 -60.280  1.00  0.00     0.210 C 
ENDBRANCH  19  24
BRANCH  22  26
HETATM   26  O   UNL     1     -41.825  61.703 -58.381  1.00  0.00    -0.356 OA
HETATM   27  C   UNL     1     -40.487  62.146 -58.594  1.00  0.00     0.210 C 
ENDBRANCH  22  26
ENDBRANCH  15  18
ENDBRANCH  13  14
ENDBRANCH  12  13
ENDBRANCH   9  12
BRANCH  10  28
HETATM   28  C   UNL     1     -41.700  57.117 -52.721  1.00  0.00     0.043 A 
HETATM   29  C   UNL     1     -40.728  58.008 -53.185  1.00  0.00     0.031 A 
HETATM   30  C   UNL     1     -41.133  59.262 -53.643  1.00  0.00     0.021 A 
HETATM   31  C   UNL     1     -42.489  59.601 -53.633  1.00  0.00     0.011 A 
HETATM   32 BR   UNL     1     -43.029  61.303 -54.252  1.00  0.00    -0.051 Br
HETATM   33  C   UNL     1     -43.452  58.695 -53.179  1.00  0.00     0.021 A 
HETATM   34  C   UNL     1     -43.061  57.433 -52.726  1.00  0.00     0.031 A 
ENDBRANCH  10  28
BRANCH  11  35
HETATM   35  N   UNL     1     -41.393  56.555 -49.994  1.00  0.00    -0.384 N 
HETATM   36  H   UNL     1     -41.802  57.458 -50.203  1.00  0.00     0.157 HD
HETATM   37  H   UNL     1     -40.893  56.508 -49.113  1.00  0.00     0.157 HD
ENDBRANCH  11  35
TORSDOF 8
ENDMDL
MODEL 5
REMARK VINA RESULT:      -7.4      2.798      4.392
REMARK  8 active torsions:
REMARK  status: ('A' for Active; 'I' for Inactive)
REMARK    1  A    between atoms: C_9  and  S_10 
REMARK    2  A    between atoms: S_10  and  C_11 
REMARK    3  A    between atoms: C_11  and  C_12 
REMARK       I    between atoms: C_12  and  N_13 
REMARK    4  A    between atoms: N_13  and  C_14 
REMARK    5  A    between atoms: C_15  and  O_16 
REMARK    6  A    between atoms: C_20  and  O_21 
REMARK    7  A    between atoms: N_25  and  C_26 
REMARK    8  A    between atoms: C_33  and  N_34 
ROOT
HETATM    1  C   UNL     1     -47.677  56.557 -61.152  1.00  0.00     0.073 C 
HETATM    2  C   UNL     1     -46.307  56.202 -60.697  1.00  0.00     0.068 A 
HETATM    3  N   UNL     1     -45.622  55.265 -61.365  1.00  0.00    -0.177 NA
HETATM    4  N   UNL     1     -44.443  55.191 -60.726  1.00  0.00    -0.260 N 
HETATM    5  H   UNL     1     -43.733  54.542 -61.057  1.00  0.00     0.191 HD
HETATM    6  C   UNL     1     -44.380  56.025 -59.648  1.00  0.00     0.162 A 
HETATM    7  C   UNL     1     -45.569  56.716 -59.588  1.00  0.00     0.081 A 
HETATM    8  N   UNL     1     -43.362  56.129 -58.801  1.00  0.00    -0.204 NA
HETATM    9  C   UNL     1     -43.583  57.007 -57.815  1.00  0.00     0.177 A 
HETATM   10  N   UNL     1     -44.714  57.761 -57.694  1.00  0.00    -0.276 N 
HETATM   11  C   UNL     1     -45.766  57.655 -58.558  1.00  0.00     0.124 A 
ENDROOT
BRANCH   9  12
HETATM   12  S   UNL     1     -42.310  56.991 -56.536  1.00  0.00    -0.082 SA
BRANCH  12  13
HETATM   13  C   UNL     1     -42.390  55.273 -55.893  1.00  0.00     0.185 C 
BRANCH  13  14
HETATM   14  C   UNL     1     -41.657  55.045 -54.578  1.00  0.00     0.232 C 
HETATM   15  N   UNL     1     -42.097  53.947 -53.847  1.00  0.00    -0.324 N 
HETATM   16  H   UNL     1     -42.556  53.226 -54.382  1.00  0.00     0.169 HD
HETATM   17  O   UNL     1     -40.720  55.778 -54.266  1.00  0.00    -0.272 OA
BRANCH  15  18
HETATM   18  C   UNL     1     -41.421  53.533 -52.676  1.00  0.00     0.071 A 
HETATM   19  C   UNL     1     -40.379  52.585 -52.709  1.00  0.00     0.095 A 
HETATM   20  C   UNL     1     -39.783  52.195 -51.506  1.00  0.00     0.042 A 
HETATM   21  C   UNL     1     -40.216  52.742 -50.294  1.00  0.00     0.039 A 
HETATM   22  C   UNL     1     -41.241  53.684 -50.269  1.00  0.00     0.070 A 
HETATM   23  C   UNL     1     -41.814  54.116 -51.463  1.00  0.00     0.069 A 
BRANCH  19  24
HETATM   24  O   UNL     1     -39.966  52.175 -53.950  1.00  0.00    -0.354 OA
HETATM   25  C   UNL     1     -39.789  50.780 -54.157  1.00  0.00     0.210 C 
ENDBRANCH  19  24
BRANCH  22  26
HETATM   26  O   UNL     1     -41.593  54.164 -49.039  1.00  0.00    -0.356 OA
HETATM   27  C   UNL     1     -40.518  54.220 -48.106  1.00  0.00     0.210 C 
ENDBRANCH  22  26
ENDBRANCH  15  18
ENDBRANCH  13  14
ENDBRANCH  12  13
ENDBRANCH   9  12
BRANCH  10  28
HETATM   28  C   UNL     1     -44.801  58.737 -56.643  1.00  0.00     0.043 A 
HETATM   29  C   UNL     1     -45.240  58.319 -55.384  1.00  0.00     0.031 A 
HETATM   30  C   UNL     1     -45.284  59.251 -54.347  1.00  0.00     0.021 A 
HETATM   31  C   UNL     1     -44.891  60.572 -54.582  1.00  0.00     0.011 A 
HETATM   32 BR   UNL     1     -44.958  61.829 -53.173  1.00  0.00    -0.051 Br
HETATM   33  C   UNL     1     -44.442  60.973 -55.844  1.00  0.00     0.021 A 
HETATM   34  C   UNL     1     -44.385  60.048 -56.888  1.00  0.00     0.031 A 
ENDBRANCH  10  28
BRANCH  11  35
HETATM   35  N   UNL     1     -46.939  58.381 -58.419  1.00  0.00    -0.384 N 
HETATM   36  H   UNL     1     -47.504  58.679 -59.205  1.00  0.00     0.157 HD
HETATM   37  H   UNL     1     -47.123  58.873 -57.552  1.00  0.00     0.157 HD
ENDBRANCH  11  35
TORSDOF 8
ENDMDL
MODEL 6
REMARK VINA RESULT:      -7.3      2.737      3.887
REMARK  8 active torsions:
REMARK  status: ('A' for Active; 'I' for Inactive)
REMARK    1  A    between atoms: C_9  and  S_10 
REMARK    2  A    between atoms: S_10  and  C_11 
REMARK    3  A    between atoms: C_11  and  C_12 
REMARK       I    between atoms: C_12  and  N_13 
REMARK    4  A    between atoms: N_13  and  C_14 
REMARK    5  A    between atoms: C_15  and  O_16 
REMARK    6  A    between atoms: C_20  and  O_21 
REMARK    7  A    between atoms: N_25  and  C_26 
REMARK    8  A    between atoms: C_33  and  N_34 
ROOT
HETATM    1  C   UNL     1     -41.200  62.090 -60.302  1.00  0.00     0.073 C 
HETATM    2  C   UNL     1     -41.679  60.714 -60.009  1.00  0.00     0.068 A 
HETATM    3  N   UNL     1     -41.865  59.859 -61.023  1.00  0.00    -0.177 NA
HETATM    4  N   UNL     1     -42.277  58.725 -60.435  1.00  0.00    -0.260 N 
HETATM    5  H   UNL     1     -42.479  57.909 -61.007  1.00  0.00     0.191 HD
HETATM    6  C   UNL     1     -42.397  58.851 -59.082  1.00  0.00     0.162 A 
HETATM    7  C   UNL     1     -42.011  60.130 -58.748  1.00  0.00     0.081 A 
HETATM    8  N   UNL     1     -42.832  57.914 -58.247  1.00  0.00    -0.204 NA
HETATM    9  C   UNL     1     -42.876  58.323 -56.973  1.00  0.00     0.177 A 
HETATM   10  N   UNL     1     -42.481  59.556 -56.544  1.00  0.00    -0.276 N 
HETATM   11  C   UNL     1     -42.039  60.526 -57.399  1.00  0.00     0.124 A 
ENDROOT
BRANCH   9  12
HETATM   12  S   UNL     1     -43.675  57.142 -55.865  1.00  0.00    -0.082 SA
BRANCH  12  13
HETATM   13  C   UNL     1     -42.834  55.561 -56.267  1.00  0.00     0.185 C 
BRANCH  13  14
HETATM   14  C   UNL     1     -41.851  55.070 -55.214  1.00  0.00     0.232 C 
HETATM   15  N   UNL     1     -42.326  54.044 -54.405  1.00  0.00    -0.324 N 
HETATM   16  H   UNL     1     -43.069  53.489 -54.800  1.00  0.00     0.169 HD
HETATM   17  O   UNL     1     -40.718  55.548 -55.166  1.00  0.00    -0.272 OA
BRANCH  15  18
HETATM   18  C   UNL     1     -41.477  53.396 -53.476  1.00  0.00     0.071 A 
HETATM   19  C   UNL     1     -41.314  53.866 -52.157  1.00  0.00     0.095 A 
HETATM   20  C   UNL     1     -40.428  53.197 -51.308  1.00  0.00     0.042 A 
HETATM   21  C   UNL     1     -39.721  52.080 -51.763  1.00  0.00     0.039 A 
HETATM   22  C   UNL     1     -39.893  51.617 -53.065  1.00  0.00     0.070 A 
HETATM   23  C   UNL     1     -40.806  52.245 -53.910  1.00  0.00     0.069 A 
BRANCH  19  24
HETATM   24  O   UNL     1     -42.115  54.911 -51.778  1.00  0.00    -0.354 OA
HETATM   25  C   UNL     1     -41.495  56.170 -51.557  1.00  0.00     0.210 C 
ENDBRANCH  19  24
BRANCH  22  26
HETATM   26  O   UNL     1     -39.163  50.517 -53.419  1.00  0.00    -0.356 OA
HETATM   27  C   UNL     1     -39.665  49.826 -54.559  1.00  0.00     0.210 C 
ENDBRANCH  22  26
ENDBRANCH  15  18
ENDBRANCH  13  14
ENDBRANCH  12  13
ENDBRANCH   9  12
BRANCH  10  28
HETATM   28  C   UNL     1     -42.490  59.850 -55.138  1.00  0.00     0.043 A 
HETATM   29  C   UNL     1     -43.571  60.567 -54.616  1.00  0.00     0.031 A 
HETATM   30  C   UNL     1     -43.607  60.817 -53.244  1.00  0.00     0.021 A 
HETATM   31  C   UNL     1     -42.577  60.350 -52.424  1.00  0.00     0.011 A 
HETATM   32 BR   UNL     1     -42.633  60.696 -50.567  1.00  0.00    -0.051 Br
HETATM   33  C   UNL     1     -41.508  59.623 -52.958  1.00  0.00     0.021 A 
HETATM   34  C   UNL     1     -41.463  59.358 -54.328  1.00  0.00     0.031 A 
ENDBRANCH  10  28
BRANCH  11  35
HETATM   35  N   UNL     1     -41.680  61.798 -56.981  1.00  0.00    -0.384 N 
HETATM   36  H   UNL     1     -40.889  61.980 -56.375  1.00  0.00     0.157 HD
HETATM   37  H   UNL     1     -42.353  62.554 -57.042  1.00  0.00     0.157 HD
ENDBRANCH  11  35
TORSDOF 8
ENDMDL
MODEL 7
REMARK VINA RESULT:      -7.1      2.846      4.161
REMARK  8 active torsions:
REMARK  status: ('A' for Active; 'I' for Inactive)
REMARK    1  A    between atoms: C_9  and  S_10 
REMARK    2  A    between atoms: S_10  and  C_11 
REMARK    3  A    between atoms: C_11  and  C_12 
REMARK       I    between atoms: C_12  and  N_13 
REMARK    4  A    between atoms: N_13  and  C_14 
REMARK    5  A    between atoms: C_15  and  O_16 
REMARK    6  A    between atoms: C_20  and  O_21 
REMARK    7  A    between atoms: N_25  and  C_26 
REMARK    8  A    between atoms: C_33  and  N_34 
ROOT
HETATM    1  C   UNL     1     -46.891  56.238 -61.077  1.00  0.00     0.073 C 
HETATM    2  C   UNL     1     -45.690  55.848 -60.292  1.00  0.00     0.068 A 
HETATM    3  N   UNL     1     -45.103  54.671 -60.544  1.00  0.00    -0.177 NA
HETATM    4  N   UNL     1     -44.063  54.626 -59.696  1.00  0.00    -0.260 N 
HETATM    5  H   UNL     1     -43.446  53.818 -59.702  1.00  0.00     0.191 HD
HETATM    6  C   UNL     1     -44.000  55.723 -58.888  1.00  0.00     0.162 A 
HETATM    7  C   UNL     1     -45.036  56.559 -59.240  1.00  0.00     0.081 A 
HETATM    8  N   UNL     1     -43.113  55.931 -57.921  1.00  0.00    -0.204 NA
HETATM    9  C   UNL     1     -43.306  57.081 -57.265  1.00  0.00     0.177 A 
HETATM   10  N   UNL     1     -44.282  57.986 -57.566  1.00  0.00    -0.276 N 
HETATM   11  C   UNL     1     -45.201  57.776 -58.555  1.00  0.00     0.124 A 
ENDROOT
BRANCH   9  12
HETATM   12  S   UNL     1     -42.254  57.267 -55.810  1.00  0.00    -0.082 SA
BRANCH  12  13
HETATM   13  C   UNL     1     -43.307  56.620 -54.452  1.00  0.00     0.185 C 
BRANCH  13  14
HETATM   14  C   UNL     1     -42.832  55.309 -53.840  1.00  0.00     0.232 C 
HETATM   15  N   UNL     1     -41.457  55.213 -53.659  1.00  0.00    -0.324 N 
HETATM   16  H   UNL     1     -40.968  56.092 -53.586  1.00  0.00     0.169 HD
HETATM   17  O   UNL     1     -43.655  54.458 -53.505  1.00  0.00    -0.272 OA
BRANCH  15  18
HETATM   18  C   UNL     1     -40.887  54.113 -52.976  1.00  0.00     0.071 A 
HETATM   19  C   UNL     1     -40.666  54.127 -51.585  1.00  0.00     0.095 A 
HETATM   20  C   UNL     1     -40.062  53.018 -50.986  1.00  0.00     0.042 A 
HETATM   21  C   UNL     1     -39.688  51.914 -51.759  1.00  0.00     0.039 A 
HETATM   22  C   UNL     1     -39.916  51.904 -53.133  1.00  0.00     0.070 A 
HETATM   23  C   UNL     1     -40.558  52.982 -53.737  1.00  0.00     0.069 A 
BRANCH  19  24
HETATM   24  O   UNL     1     -41.148  55.214 -50.902  1.00  0.00    -0.354 OA
HETATM   25  C   UNL     1     -41.294  55.094 -49.494  1.00  0.00     0.210 C 
ENDBRANCH  19  24
BRANCH  22  26
HETATM   26  O   UNL     1     -39.521  50.781 -53.804  1.00  0.00    -0.356 OA
HETATM   27  C   UNL     1     -39.569  49.589 -53.024  1.00  0.00     0.210 C 
ENDBRANCH  22  26
ENDBRANCH  15  18
ENDBRANCH  13  14
ENDBRANCH  12  13
ENDBRANCH   9  12
BRANCH  10  28
HETATM   28  C   UNL     1     -44.336  59.230 -56.849  1.00  0.00     0.043 A 
HETATM   29  C   UNL     1     -45.176  59.319 -55.736  1.00  0.00     0.031 A 
HETATM   30  C   UNL     1     -45.199  60.509 -55.008  1.00  0.00     0.021 A 
HETATM   31  C   UNL     1     -44.390  61.579 -55.399  1.00  0.00     0.011 A 
HETATM   32 BR   UNL     1     -44.430  63.188 -54.410  1.00  0.00    -0.051 Br
HETATM   33  C   UNL     1     -43.544  61.471 -56.508  1.00  0.00     0.021 A 
HETATM   34  C   UNL     1     -43.504  60.283 -57.239  1.00  0.00     0.031 A 
ENDBRANCH  10  28
BRANCH  11  35
HETATM   35  N   UNL     1     -46.225  58.666 -58.839  1.00  0.00    -0.384 N 
HETATM   36  H   UNL     1     -46.259  59.221 -59.686  1.00  0.00     0.157 HD
HETATM   37  H   UNL     1     -46.826  58.993 -58.091  1.00  0.00     0.157 HD
ENDBRANCH  11  35
TORSDOF 8
ENDMDL
MODEL 8
REMARK VINA RESULT:      -7.0      3.057      7.653
REMARK  8 active torsions:
REMARK  status: ('A' for Active; 'I' for Inactive)
REMARK    1  A    between atoms: C_9  and  S_10 
REMARK    2  A    between atoms: S_10  and  C_11 
REMARK    3  A    between atoms: C_11  and  C_12 
REMARK       I    between atoms: C_12  and  N_13 
REMARK    4  A    between atoms: N_13  and  C_14 
REMARK    5  A    between atoms: C_15  and  O_16 
REMARK    6  A    between atoms: C_20  and  O_21 
REMARK    7  A    between atoms: N_25  and  C_26 
REMARK    8  A    between atoms: C_33  and  N_34 
ROOT
HETATM    1  C   UNL     1     -40.239  50.716 -49.644  1.00  0.00     0.073 C 
HETATM    2  C   UNL     1     -40.067  51.156 -51.054  1.00  0.00     0.068 A 
HETATM    3  N   UNL     1     -39.440  50.346 -51.917  1.00  0.00    -0.177 NA
HETATM    4  N   UNL     1     -39.461  51.014 -53.081  1.00  0.00    -0.260 N 
HETATM    5  H   UNL     1     -39.046  50.593 -53.908  1.00  0.00     0.191 HD
HETATM    6  C   UNL     1     -40.048  52.241 -52.969  1.00  0.00     0.162 A 
HETATM    7  C   UNL     1     -40.470  52.382 -51.666  1.00  0.00     0.081 A 
HETATM    8  N   UNL     1     -40.167  53.140 -53.939  1.00  0.00    -0.204 NA
HETATM    9  C   UNL     1     -40.760  54.272 -53.540  1.00  0.00     0.177 A 
HETATM   10  N   UNL     1     -41.240  54.488 -52.281  1.00  0.00    -0.276 N 
HETATM   11  C   UNL     1     -41.116  53.569 -51.278  1.00  0.00     0.124 A 
ENDROOT
BRANCH   9  12
HETATM   12  S   UNL     1     -40.722  55.582 -54.781  1.00  0.00    -0.082 SA
BRANCH  12  13
HETATM   13  C   UNL     1     -42.085  55.115 -55.919  1.00  0.00     0.185 C 
BRANCH  13  14
HETATM   14  C   UNL     1     -42.858  56.285 -56.511  1.00  0.00     0.232 C 
HETATM   15  N   UNL     1     -42.677  56.474 -57.877  1.00  0.00    -0.324 N 
HETATM   16  H   UNL     1     -42.387  55.657 -58.392  1.00  0.00     0.169 HD
HETATM   17  O   UNL     1     -43.610  56.945 -55.795  1.00  0.00    -0.272 OA
BRANCH  15  18
HETATM   18  C   UNL     1     -43.436  57.434 -58.586  1.00  0.00     0.071 A 
HETATM   19  C   UNL     1     -43.049  58.787 -58.661  1.00  0.00     0.095 A 
HETATM   20  C   UNL     1     -43.870  59.687 -59.348  1.00  0.00     0.042 A 
HETATM   21  C   UNL     1     -45.053  59.245 -59.950  1.00  0.00     0.039 A 
HETATM   22  C   UNL     1     -45.425  57.905 -59.878  1.00  0.00     0.070 A 
HETATM   23  C   UNL     1     -44.595  56.988 -59.236  1.00  0.00     0.069 A 
BRANCH  19  24
HETATM   24  O   UNL     1     -41.831  59.105 -58.118  1.00  0.00    -0.354 OA
HETATM   25  C   UNL     1     -41.514  60.483 -57.975  1.00  0.00     0.210 C 
ENDBRANCH  19  24
BRANCH  22  26
HETATM   26  O   UNL     1     -46.594  57.567 -60.499  1.00  0.00    -0.356 OA
HETATM   27  C   UNL     1     -46.940  56.189 -60.381  1.00  0.00     0.210 C 
ENDBRANCH  22  26
ENDBRANCH  15  18
ENDBRANCH  13  14
ENDBRANCH  12  13
ENDBRANCH   9  12
BRANCH  10  28
HETATM   28  C   UNL     1     -41.939  55.710 -51.994  1.00  0.00     0.043 A 
HETATM   29  C   UNL     1     -41.216  56.779 -51.457  1.00  0.00     0.031 A 
HETATM   30  C   UNL     1     -41.879  57.982 -51.217  1.00  0.00     0.021 A 
HETATM   31  C   UNL     1     -43.239  58.099 -51.517  1.00  0.00     0.011 A 
HETATM   32 BR   UNL     1     -44.129  59.732 -51.186  1.00  0.00    -0.051 Br
HETATM   33  C   UNL     1     -43.947  57.026 -52.066  1.00  0.00     0.021 A 
HETATM   34  C   UNL     1     -43.294  55.818 -52.319  1.00  0.00     0.031 A 
ENDBRANCH  10  28
BRANCH  11  35
HETATM   35  N   UNL     1     -41.559  53.796 -49.984  1.00  0.00    -0.384 N 
HETATM   36  H   UNL     1     -42.502  54.091 -49.764  1.00  0.00     0.157 HD
HETATM   37  H   UNL     1     -40.883  53.941 -49.242  1.00  0.00     0.157 HD
ENDBRANCH  11  35
TORSDOF 8
ENDMDL
MODEL 9
REMARK VINA RESULT:      -7.0      3.149      7.567
REMARK  8 active torsions:
REMARK  status: ('A' for Active; 'I' for Inactive)
REMARK    1  A    between atoms: C_9  and  S_10 
REMARK    2  A    between atoms: S_10  and  C_11 
REMARK    3  A    between atoms: C_11  and  C_12 
REMARK       I    between atoms: C_12  and  N_13 
REMARK    4  A    between atoms: N_13  and  C_14 
REMARK    5  A    between atoms: C_15  and  O_16 
REMARK    6  A    between atoms: C_20  and  O_21 
REMARK    7  A    between atoms: N_25  and  C_26 
REMARK    8  A    between atoms: C_33  and  N_34 
ROOT
HETATM    1  C   UNL     1     -40.243  50.806 -49.514  1.00  0.00     0.073 C 
HETATM    2  C   UNL     1     -40.084  51.239 -50.927  1.00  0.00     0.068 A 
HETATM    3  N   UNL     1     -39.462  50.426 -51.791  1.00  0.00    -0.177 NA
HETATM    4  N   UNL     1     -39.495  51.087 -52.958  1.00  0.00    -0.260 N 
HETATM    5  H   UNL     1     -39.085  50.663 -53.787  1.00  0.00     0.191 HD
HETATM    6  C   UNL     1     -40.085  52.312 -52.849  1.00  0.00     0.162 A 
HETATM    7  C   UNL     1     -40.497  52.460 -51.543  1.00  0.00     0.081 A 
HETATM    8  N   UNL     1     -40.215  53.206 -53.823  1.00  0.00    -0.204 NA
HETATM    9  C   UNL     1     -40.808  54.338 -53.425  1.00  0.00     0.177 A 
HETATM   10  N   UNL     1     -41.279  54.560 -52.164  1.00  0.00    -0.276 N 
HETATM   11  C   UNL     1     -41.144  53.647 -51.157  1.00  0.00     0.124 A 
ENDROOT
BRANCH   9  12
HETATM   12  S   UNL     1     -40.785  55.641 -54.674  1.00  0.00    -0.082 SA
BRANCH  12  13
HETATM   13  C   UNL     1     -42.360  55.375 -55.580  1.00  0.00     0.185 C 
BRANCH  13  14
HETATM   14  C   UNL     1     -42.812  56.547 -56.441  1.00  0.00     0.232 C 
HETATM   15  N   UNL     1     -42.166  56.655 -57.667  1.00  0.00    -0.324 N 
HETATM   16  H   UNL     1     -41.769  55.799 -58.024  1.00  0.00     0.169 HD
HETATM   17  O   UNL     1     -43.721  57.278 -56.049  1.00  0.00    -0.272 OA
BRANCH  15  18
HETATM   18  C   UNL     1     -42.578  57.610 -58.626  1.00  0.00     0.071 A 
HETATM   19  C   UNL     1     -43.664  57.380 -59.494  1.00  0.00     0.095 A 
HETATM   20  C   UNL     1     -43.988  58.355 -60.442  1.00  0.00     0.042 A 
HETATM   21  C   UNL     1     -43.245  59.537 -60.522  1.00  0.00     0.039 A 
HETATM   22  C   UNL     1     -42.177  59.760 -59.657  1.00  0.00     0.070 A 
HETATM   23  C   UNL     1     -41.870  58.819 -58.677  1.00  0.00     0.069 A 
BRANCH  19  24
HETATM   24  O   UNL     1     -44.385  56.234 -59.278  1.00  0.00    -0.354 OA
HETATM   25  C   UNL     1     -44.413  55.269 -60.321  1.00  0.00     0.210 C 
ENDBRANCH  19  24
BRANCH  22  26
HETATM   26  O   UNL     1     -41.513  60.945 -59.808  1.00  0.00    -0.356 OA
HETATM   27  C   UNL     1     -41.468  61.742 -58.628  1.00  0.00     0.210 C 
ENDBRANCH  22  26
ENDBRANCH  15  18
ENDBRANCH  13  14
ENDBRANCH  12  13
ENDBRANCH   9  12
BRANCH  10  28
HETATM   28  C   UNL     1     -41.980  55.781 -51.878  1.00  0.00     0.043 A 
HETATM   29  C   UNL     1     -41.242  56.880 -51.429  1.00  0.00     0.031 A 
HETATM   30  C   UNL     1     -41.910  58.082 -51.192  1.00  0.00     0.021 A 
HETATM   31  C   UNL     1     -43.288  58.167 -51.408  1.00  0.00     0.011 A 
HETATM   32 BR   UNL     1     -44.184  59.798 -51.081  1.00  0.00    -0.051 Br
HETATM   33  C   UNL     1     -44.011  57.062 -51.869  1.00  0.00     0.021 A 
HETATM   34  C   UNL     1     -43.354  55.856 -52.119  1.00  0.00     0.031 A 
ENDBRANCH  10  28
BRANCH  11  35
HETATM   35  N   UNL     1     -41.576  53.880 -49.860  1.00  0.00    -0.384 N 
HETATM   36  H   UNL     1     -40.947  53.950 -49.069  1.00  0.00     0.157 HD
HETATM   37  H   UNL     1     -42.547  53.714 -49.619  1.00  0.00     0.157 HD
ENDBRANCH  11  35
TORSDOF 8
ENDMDL
MODEL 10
REMARK VINA RESULT:      -6.9      3.479      8.013
REMARK  8 active torsions:
REMARK  status: ('A' for Active; 'I' for Inactive)
REMARK    1  A    between atoms: C_9  and  S_10 
REMARK    2  A    between atoms: S_10  and  C_11 
REMARK    3  A    between atoms: C_11  and  C_12 
REMARK       I    between atoms: C_12  and  N_13 
REMARK    4  A    between atoms: N_13  and  C_14 
REMARK    5  A    between atoms: C_15  and  O_16 
REMARK    6  A    between atoms: C_20  and  O_21 
REMARK    7  A    between atoms: N_25  and  C_26 
REMARK    8  A    between atoms: C_33  and  N_34 
ROOT
HETATM    1  C   UNL     1     -39.856  51.029 -54.335  1.00  0.00     0.073 C 
HETATM    2  C   UNL     1     -39.996  51.850 -53.104  1.00  0.00     0.068 A 
HETATM    3  N   UNL     1     -39.484  51.390 -51.954  1.00  0.00    -0.177 NA
HETATM    4  N   UNL     1     -39.759  52.351 -51.057  1.00  0.00    -0.260 N 
HETATM    5  H   UNL     1     -39.458  52.236 -50.092  1.00  0.00     0.191 HD
HETATM    6  C   UNL     1     -40.465  53.385 -51.598  1.00  0.00     0.162 A 
HETATM    7  C   UNL     1     -40.641  53.113 -52.936  1.00  0.00     0.081 A 
HETATM    8  N   UNL     1     -40.919  54.447 -50.942  1.00  0.00    -0.204 NA
HETATM    9  C   UNL     1     -41.609  55.292 -51.718  1.00  0.00     0.177 A 
HETATM   10  N   UNL     1     -41.803  55.123 -53.058  1.00  0.00    -0.276 N 
HETATM   11  C   UNL     1     -41.344  54.031 -53.737  1.00  0.00     0.124 A 
ENDROOT
BRANCH   9  12
HETATM   12  S   UNL     1     -42.421  56.616 -50.799  1.00  0.00    -0.082 SA
BRANCH  12  13
HETATM   13  C   UNL     1     -41.137  57.928 -50.740  1.00  0.00     0.185 C 
BRANCH  13  14
HETATM   14  C   UNL     1     -41.674  59.348 -50.627  1.00  0.00     0.232 C 
HETATM   15  N   UNL     1     -43.058  59.457 -50.701  1.00  0.00    -0.324 N 
HETATM   16  H   UNL     1     -43.572  58.626 -50.450  1.00  0.00     0.169 HD
HETATM   17  O   UNL     1     -40.897  60.281 -50.432  1.00  0.00    -0.272 OA
BRANCH  15  18
HETATM   18  C   UNL     1     -43.705  60.694 -50.475  1.00  0.00     0.071 A 
HETATM   19  C   UNL     1     -44.059  61.559 -51.530  1.00  0.00     0.095 A 
HETATM   20  C   UNL     1     -44.662  62.783 -51.226  1.00  0.00     0.042 A 
HETATM   21  C   UNL     1     -44.908  63.138 -49.896  1.00  0.00     0.039 A 
HETATM   22  C   UNL     1     -44.562  62.276 -48.859  1.00  0.00     0.070 A 
HETATM   23  C   UNL     1     -44.003  61.033 -49.147  1.00  0.00     0.069 A 
BRANCH  19  24
HETATM   24  O   UNL     1     -43.859  61.084 -52.800  1.00  0.00    -0.354 OA
HETATM   25  C   UNL     1     -42.860  61.715 -53.588  1.00  0.00     0.210 C 
ENDBRANCH  19  24
BRANCH  22  26
HETATM   26  O   UNL     1     -44.845  62.707 -47.593  1.00  0.00    -0.356 OA
HETATM   27  C   UNL     1     -46.196  63.120 -47.407  1.00  0.00     0.210 C 
ENDBRANCH  22  26
ENDBRANCH  15  18
ENDBRANCH  13  14
ENDBRANCH  12  13
ENDBRANCH   9  12
BRANCH  10  28
HETATM   28  C   UNL     1     -42.484  56.144 -53.805  1.00  0.00     0.043 A 
HETATM   29  C   UNL     1     -43.872  56.049 -53.947  1.00  0.00     0.031 A 
HETATM   30  C   UNL     1     -44.545  57.060 -54.633  1.00  0.00     0.021 A 
HETATM   31  C   UNL     1     -43.829  58.140 -55.158  1.00  0.00     0.011 A 
HETATM   32 BR   UNL     1     -44.749  59.503 -56.089  1.00  0.00    -0.051 Br
HETATM   33  C   UNL     1     -42.443  58.228 -54.998  1.00  0.00     0.021 A 
HETATM   34  C   UNL     1     -41.758  57.228 -54.306  1.00  0.00     0.031 A 
ENDBRANCH  10  28
BRANCH  11  35
HETATM   35  N   UNL     1     -41.576  53.825 -55.088  1.00  0.00    -0.384 N 
HETATM   36  H   UNL     1     -42.214  54.392 -55.634  1.00  0.00     0.157 HD
HETATM   37  H   UNL     1     -41.329  52.937 -55.510  1.00  0.00     0.157 HD
ENDBRANCH  11  35
TORSDOF 8
ENDMDL
