MODEL 1
REMARK VINA RESULT:      -8.0      0.000      0.000
REMARK  5 active torsions:
REMARK  status: ('A' for Active; 'I' for Inactive)
REMARK    1  A    between atoms: C_2  and  O_3 
REMARK    2  A    between atoms: O_3  and  C_4 
REMARK    3  A    between atoms: C_7  and  C_8 
REMARK       I    between atoms: C_8  and  N_9 
REMARK    4  A    between atoms: N_9  and  N_10 
REMARK    5  A    between atoms: C_11  and  C_12 
ROOT
HETATM    1  C   UNL     1     -42.713  55.999 -56.235  1.00  0.00     0.271 C 
HETATM    2  N   UNL     1     -41.740  55.020 -56.074  1.00  0.00    -0.243 N 
HETATM    3  O   UNL     1     -43.599  56.269 -55.430  1.00  0.00    -0.266 OA
HETATM    4  H   UNL     1     -40.900  55.071 -56.641  1.00  0.00     0.192 HD
ENDROOT
BRANCH   2   5
HETATM    5  N   UNL     1     -41.599  54.182 -54.993  1.00  0.00    -0.183 NA
HETATM    6  C   UNL     1     -40.625  54.383 -54.163  1.00  0.00     0.153 C 
BRANCH   6   7
HETATM    7  C   UNL     1     -40.433  53.492 -53.029  1.00  0.00     0.018 A 
HETATM    8  C   UNL     1     -40.092  52.100 -53.114  1.00  0.00     0.004 A 
HETATM    9  C   UNL     1     -39.994  51.611 -51.813  1.00  0.00     0.043 A 
HETATM   10  C   UNL     1     -39.865  51.205 -54.183  1.00  0.00     0.014 A 
HETATM   11  C   UNL     1     -39.675  50.278 -51.523  1.00  0.00     0.030 A 
HETATM   12  N   UNL     1     -40.265  52.660 -50.968  1.00  0.00    -0.358 N 
HETATM   13  C   UNL     1     -39.454  49.415 -52.600  1.00  0.00     0.002 A 
HETATM   14  C   UNL     1     -39.548  49.870 -53.913  1.00  0.00     0.001 A 
HETATM   15  H   UNL     1     -40.265  52.590 -49.960  1.00  0.00     0.166 HD
HETATM   16  C   UNL     1     -40.530  53.804 -51.679  1.00  0.00     0.018 A 
HETATM   17  C   UNL     1     -40.845  55.082 -50.988  1.00  0.00     0.069 C 
ENDBRANCH   6   7
ENDBRANCH   2   5
BRANCH   1  18
HETATM   18  C   UNL     1     -42.632  56.792 -57.499  1.00  0.00     0.033 A 
HETATM   19  C   UNL     1     -42.324  58.157 -57.517  1.00  0.00     0.020 A 
HETATM   20  C   UNL     1     -42.220  58.833 -58.737  1.00  0.00     0.038 A 
HETATM   21  C   UNL     1     -42.395  58.158 -59.948  1.00  0.00     0.068 A 
HETATM   22  C   UNL     1     -42.709  56.800 -59.932  1.00  0.00     0.038 A 
HETATM   23  C   UNL     1     -42.822  56.120 -58.715  1.00  0.00     0.020 A 
BRANCH  21  24
HETATM   24  O   UNL     1     -42.240  58.929 -61.065  1.00  0.00    -0.352 OA
BRANCH  24  25
HETATM   25  C   UNL     1     -42.715  60.274 -60.982  1.00  0.00     0.171 C 
HETATM   26  C   UNL     1     -41.598  61.195 -61.435  1.00  0.00     0.034 C 
ENDBRANCH  24  25
ENDBRANCH  21  24
ENDBRANCH   1  18
TORSDOF 5
ENDMDL
MODEL 2
REMARK VINA RESULT:      -7.7     14.630     17.752
REMARK  5 active torsions:
REMARK  status: ('A' for Active; 'I' for Inactive)
REMARK    1  A    between atoms: C_2  and  O_3 
REMARK    2  A    between atoms: O_3  and  C_4 
REMARK    3  A    between atoms: C_7  and  C_8 
REMARK       I    between atoms: C_8  and  N_9 
REMARK    4  A    between atoms: N_9  and  N_10 
REMARK    5  A    between atoms: C_11  and  C_12 
ROOT
HETATM    1  C   UNL     1     -37.081  41.670 -58.742  1.00  0.00     0.271 C 
HETATM    2  N   UNL     1     -37.387  40.360 -59.093  1.00  0.00    -0.243 N 
HETATM    3  O   UNL     1     -37.158  42.646 -59.481  1.00  0.00    -0.266 OA
HETATM    4  H   UNL     1     -37.572  39.689 -58.355  1.00  0.00     0.192 HD
ENDROOT
BRANCH   2   5
HETATM    5  N   UNL     1     -37.820  39.926 -60.323  1.00  0.00    -0.183 NA
HETATM    6  C   UNL     1     -38.389  38.767 -60.417  1.00  0.00     0.153 C 
BRANCH   6   7
HETATM    7  C   UNL     1     -38.828  38.268 -61.711  1.00  0.00     0.018 A 
HETATM    8  C   UNL     1     -40.185  37.966 -62.069  1.00  0.00     0.004 A 
HETATM    9  C   UNL     1     -40.184  37.524 -63.390  1.00  0.00     0.043 A 
HETATM   10  C   UNL     1     -41.419  38.019 -61.383  1.00  0.00     0.014 A 
HETATM   11  C   UNL     1     -41.349  37.139 -64.066  1.00  0.00     0.030 A 
HETATM   12  N   UNL     1     -38.880  37.554 -63.823  1.00  0.00    -0.358 N 
HETATM   13  C   UNL     1     -42.556  37.204 -63.364  1.00  0.00     0.002 A 
HETATM   14  C   UNL     1     -42.593  37.637 -62.042  1.00  0.00     0.001 A 
HETATM   15  H   UNL     1     -38.584  37.283 -64.750  1.00  0.00     0.166 HD
HETATM   16  C   UNL     1     -38.046  38.002 -62.828  1.00  0.00     0.018 A 
HETATM   17  C   UNL     1     -36.583  38.132 -63.054  1.00  0.00     0.069 C 
ENDBRANCH   6   7
ENDBRANCH   2   5
BRANCH   1  18
HETATM   18  C   UNL     1     -36.651  41.878 -57.326  1.00  0.00     0.033 A 
HETATM   19  C   UNL     1     -35.359  42.290 -56.981  1.00  0.00     0.020 A 
HETATM   20  C   UNL     1     -35.032  42.510 -55.639  1.00  0.00     0.038 A 
HETATM   21  C   UNL     1     -35.987  42.349 -54.632  1.00  0.00     0.068 A 
HETATM   22  C   UNL     1     -37.273  41.933 -54.973  1.00  0.00     0.038 A 
HETATM   23  C   UNL     1     -37.604  41.703 -56.312  1.00  0.00     0.020 A 
BRANCH  21  24
HETATM   24  O   UNL     1     -35.544  42.623 -53.369  1.00  0.00    -0.352 OA
BRANCH  24  25
HETATM   25  C   UNL     1     -35.607  41.552 -52.426  1.00  0.00     0.171 C 
HETATM   26  C   UNL     1     -34.666  41.879 -51.281  1.00  0.00     0.034 C 
ENDBRANCH  24  25
ENDBRANCH  21  24
ENDBRANCH   1  18
TORSDOF 5
ENDMDL
MODEL 3
REMARK VINA RESULT:      -7.6      1.933      2.284
REMARK  5 active torsions:
REMARK  status: ('A' for Active; 'I' for Inactive)
REMARK    1  A    between atoms: C_2  and  O_3 
REMARK    2  A    between atoms: O_3  and  C_4 
REMARK    3  A    between atoms: C_7  and  C_8 
REMARK       I    between atoms: C_8  and  N_9 
REMARK    4  A    between atoms: N_9  and  N_10 
REMARK    5  A    between atoms: C_11  and  C_12 
ROOT
HETATM    1  C   UNL     1     -42.545  56.498 -56.391  1.00  0.00     0.271 C 
HETATM    2  N   UNL     1     -42.250  55.140 -56.351  1.00  0.00    -0.243 N 
HETATM    3  O   UNL     1     -42.134  57.344 -55.602  1.00  0.00    -0.266 OA
HETATM    4  H   UNL     1     -42.389  54.587 -57.190  1.00  0.00     0.192 HD
ENDROOT
BRANCH   2   5
HETATM    5  N   UNL     1     -41.458  54.505 -55.424  1.00  0.00    -0.183 NA
HETATM    6  C   UNL     1     -41.990  54.097 -54.316  1.00  0.00     0.153 C 
BRANCH   6   7
HETATM    7  C   UNL     1     -41.169  53.450 -53.304  1.00  0.00     0.018 A 
HETATM    8  C   UNL     1     -40.595  52.139 -53.411  1.00  0.00     0.004 A 
HETATM    9  C   UNL     1     -39.879  51.895 -52.242  1.00  0.00     0.043 A 
HETATM   10  C   UNL     1     -40.625  51.129 -54.399  1.00  0.00     0.014 A 
HETATM   11  C   UNL     1     -39.187  50.700 -52.007  1.00  0.00     0.030 A 
HETATM   12  N   UNL     1     -40.011  53.010 -51.450  1.00  0.00    -0.358 N 
HETATM   13  C   UNL     1     -39.232  49.719 -53.002  1.00  0.00     0.002 A 
HETATM   14  C   UNL     1     -39.941  49.928 -54.181  1.00  0.00     0.001 A 
HETATM   15  H   UNL     1     -39.592  53.109 -50.536  1.00  0.00     0.166 HD
HETATM   16  C   UNL     1     -40.783  53.961 -52.071  1.00  0.00     0.018 A 
HETATM   17  C   UNL     1     -41.066  55.266 -51.418  1.00  0.00     0.069 C 
ENDBRANCH   6   7
ENDBRANCH   2   5
BRANCH   1  18
HETATM   18  C   UNL     1     -43.417  56.939 -57.521  1.00  0.00     0.033 A 
HETATM   19  C   UNL     1     -44.486  57.826 -57.349  1.00  0.00     0.020 A 
HETATM   20  C   UNL     1     -45.238  58.235 -58.455  1.00  0.00     0.038 A 
HETATM   21  C   UNL     1     -44.923  57.788 -59.741  1.00  0.00     0.068 A 
HETATM   22  C   UNL     1     -43.863  56.900 -59.914  1.00  0.00     0.038 A 
HETATM   23  C   UNL     1     -43.113  56.481 -58.810  1.00  0.00     0.020 A 
BRANCH  21  24
HETATM   24  O   UNL     1     -45.719  58.285 -60.734  1.00  0.00    -0.352 OA
BRANCH  24  25
HETATM   25  C   UNL     1     -47.121  58.041 -60.609  1.00  0.00     0.171 C 
HETATM   26  C   UNL     1     -47.393  56.620 -61.068  1.00  0.00     0.034 C 
ENDBRANCH  24  25
ENDBRANCH  21  24
ENDBRANCH   1  18
TORSDOF 5
ENDMDL
MODEL 4
REMARK VINA RESULT:      -7.6      2.283      3.831
REMARK  5 active torsions:
REMARK  status: ('A' for Active; 'I' for Inactive)
REMARK    1  A    between atoms: C_2  and  O_3 
REMARK    2  A    between atoms: O_3  and  C_4 
REMARK    3  A    between atoms: C_7  and  C_8 
REMARK       I    between atoms: C_8  and  N_9 
REMARK    4  A    between atoms: N_9  and  N_10 
REMARK    5  A    between atoms: C_11  and  C_12 
ROOT
HETATM    1  C   UNL     1     -42.646  56.558 -56.527  1.00  0.00     0.271 C 
HETATM    2  N   UNL     1     -42.446  55.224 -56.195  1.00  0.00    -0.243 N 
HETATM    3  O   UNL     1     -42.102  57.519 -55.991  1.00  0.00    -0.266 OA
HETATM    4  H   UNL     1     -42.703  54.511 -56.869  1.00  0.00     0.192 HD
ENDROOT
BRANCH   2   5
HETATM    5  N   UNL     1     -41.615  54.744 -55.210  1.00  0.00    -0.183 NA
HETATM    6  C   UNL     1     -42.108  53.984 -54.285  1.00  0.00     0.153 C 
BRANCH   6   7
HETATM    7  C   UNL     1     -41.260  53.489 -53.213  1.00  0.00     0.018 A 
HETATM    8  C   UNL     1     -41.142  54.075 -51.908  1.00  0.00     0.004 A 
HETATM    9  C   UNL     1     -40.240  53.303 -51.179  1.00  0.00     0.043 A 
HETATM   10  C   UNL     1     -41.717  55.202 -51.279  1.00  0.00     0.014 A 
HETATM   11  C   UNL     1     -39.885  53.592 -49.855  1.00  0.00     0.030 A 
HETATM   12  N   UNL     1     -39.821  52.288 -52.005  1.00  0.00    -0.358 N 
HETATM   13  C   UNL     1     -40.471  54.712 -49.257  1.00  0.00     0.002 A 
HETATM   14  C   UNL     1     -41.374  55.507 -49.957  1.00  0.00     0.001 A 
HETATM   15  H   UNL     1     -39.159  51.574 -51.735  1.00  0.00     0.166 HD
HETATM   16  C   UNL     1     -40.425  52.379 -53.235  1.00  0.00     0.018 A 
HETATM   17  C   UNL     1     -40.141  51.386 -54.304  1.00  0.00     0.069 C 
ENDBRANCH   6   7
ENDBRANCH   2   5
BRANCH   1  18
HETATM   18  C   UNL     1     -43.590  56.811 -57.657  1.00  0.00     0.033 A 
HETATM   19  C   UNL     1     -43.654  55.989 -58.787  1.00  0.00     0.020 A 
HETATM   20  C   UNL     1     -44.591  56.254 -59.791  1.00  0.00     0.038 A 
HETATM   21  C   UNL     1     -45.487  57.320 -59.672  1.00  0.00     0.068 A 
HETATM   22  C   UNL     1     -45.420  58.145 -58.550  1.00  0.00     0.038 A 
HETATM   23  C   UNL     1     -44.480  57.889 -57.547  1.00  0.00     0.020 A 
BRANCH  21  24
HETATM   24  O   UNL     1     -46.367  57.452 -60.709  1.00  0.00    -0.352 OA
BRANCH  24  25
HETATM   25  C   UNL     1     -47.162  56.307 -61.020  1.00  0.00     0.171 C 
HETATM   26  C   UNL     1     -48.239  56.735 -62.000  1.00  0.00     0.034 C 
ENDBRANCH  24  25
ENDBRANCH  21  24
ENDBRANCH   1  18
TORSDOF 5
ENDMDL
MODEL 5
REMARK VINA RESULT:      -7.5      2.383      9.623
REMARK  5 active torsions:
REMARK  status: ('A' for Active; 'I' for Inactive)
REMARK    1  A    between atoms: C_2  and  O_3 
REMARK    2  A    between atoms: O_3  and  C_4 
REMARK    3  A    between atoms: C_7  and  C_8 
REMARK       I    between atoms: C_8  and  N_9 
REMARK    4  A    between atoms: N_9  and  N_10 
REMARK    5  A    between atoms: C_11  and  C_12 
ROOT
HETATM    1  C   UNL     1     -42.789  54.821 -54.832  1.00  0.00     0.271 C 
HETATM    2  N   UNL     1     -42.220  55.358 -55.980  1.00  0.00    -0.243 N 
HETATM    3  O   UNL     1     -43.951  54.976 -54.468  1.00  0.00    -0.266 OA
HETATM    4  H   UNL     1     -41.367  54.944 -56.340  1.00  0.00     0.192 HD
ENDROOT
BRANCH   2   5
HETATM    5  N   UNL     1     -42.850  56.157 -56.905  1.00  0.00    -0.183 NA
HETATM    6  C   UNL     1     -42.842  55.805 -58.151  1.00  0.00     0.153 C 
BRANCH   6   7
HETATM    7  C   UNL     1     -43.473  56.648 -59.155  1.00  0.00     0.018 A 
HETATM    8  C   UNL     1     -43.095  57.999 -59.463  1.00  0.00     0.004 A 
HETATM    9  C   UNL     1     -43.933  58.449 -60.480  1.00  0.00     0.043 A 
HETATM   10  C   UNL     1     -42.116  58.886 -58.961  1.00  0.00     0.014 A 
HETATM   11  C   UNL     1     -43.844  59.736 -61.027  1.00  0.00     0.030 A 
HETATM   12  N   UNL     1     -44.790  57.418 -60.780  1.00  0.00    -0.358 N 
HETATM   13  C   UNL     1     -42.866  60.592 -60.513  1.00  0.00     0.002 A 
HETATM   14  C   UNL     1     -42.014  60.176 -59.494  1.00  0.00     0.001 A 
HETATM   15  H   UNL     1     -45.511  57.468 -61.486  1.00  0.00     0.166 HD
HETATM   16  C   UNL     1     -44.529  56.322 -59.995  1.00  0.00     0.018 A 
HETATM   17  C   UNL     1     -45.318  55.071 -60.138  1.00  0.00     0.069 C 
ENDBRANCH   6   7
ENDBRANCH   2   5
BRANCH   1  18
HETATM   18  C   UNL     1     -41.890  53.963 -54.002  1.00  0.00     0.033 A 
HETATM   19  C   UNL     1     -40.985  53.054 -54.561  1.00  0.00     0.020 A 
HETATM   20  C   UNL     1     -40.139  52.312 -53.731  1.00  0.00     0.038 A 
HETATM   21  C   UNL     1     -40.166  52.482 -52.344  1.00  0.00     0.068 A 
HETATM   22  C   UNL     1     -41.072  53.382 -51.784  1.00  0.00     0.038 A 
HETATM   23  C   UNL     1     -41.926  54.121 -52.609  1.00  0.00     0.020 A 
BRANCH  21  24
HETATM   24  O   UNL     1     -39.271  51.715 -51.652  1.00  0.00    -0.352 OA
BRANCH  24  25
HETATM   25  C   UNL     1     -39.818  50.743 -50.761  1.00  0.00     0.171 C 
HETATM   26  C   UNL     1     -39.643  49.375 -51.393  1.00  0.00     0.034 C 
ENDBRANCH  24  25
ENDBRANCH  21  24
ENDBRANCH   1  18
TORSDOF 5
ENDMDL
MODEL 6
REMARK VINA RESULT:      -7.2      2.584      9.591
REMARK  5 active torsions:
REMARK  status: ('A' for Active; 'I' for Inactive)
REMARK    1  A    between atoms: C_2  and  O_3 
REMARK    2  A    between atoms: O_3  and  C_4 
REMARK    3  A    between atoms: C_7  and  C_8 
REMARK       I    between atoms: C_8  and  N_9 
REMARK    4  A    between atoms: N_9  and  N_10 
REMARK    5  A    between atoms: C_11  and  C_12 
ROOT
HETATM    1  C   UNL     1     -41.654  56.238 -54.902  1.00  0.00     0.271 C 
HETATM    2  N   UNL     1     -42.090  56.139 -56.218  1.00  0.00    -0.243 N 
HETATM    3  O   UNL     1     -41.714  57.243 -54.200  1.00  0.00    -0.266 OA
HETATM    4  H   UNL     1     -42.265  55.218 -56.604  1.00  0.00     0.192 HD
ENDROOT
BRANCH   2   5
HETATM    5  N   UNL     1     -42.657  57.143 -56.966  1.00  0.00    -0.183 NA
HETATM    6  C   UNL     1     -43.562  56.841 -57.841  1.00  0.00     0.153 C 
BRANCH   6   7
HETATM    7  C   UNL     1     -44.157  57.879 -58.669  1.00  0.00     0.018 A 
HETATM    8  C   UNL     1     -43.467  58.637 -59.675  1.00  0.00     0.004 A 
HETATM    9  C   UNL     1     -44.385  59.519 -60.241  1.00  0.00     0.043 A 
HETATM   10  C   UNL     1     -42.137  58.659 -60.152  1.00  0.00     0.014 A 
HETATM   11  C   UNL     1     -44.049  60.417 -61.262  1.00  0.00     0.030 A 
HETATM   12  N   UNL     1     -45.586  59.310 -59.607  1.00  0.00    -0.358 N 
HETATM   13  C   UNL     1     -42.727  60.416 -61.716  1.00  0.00     0.002 A 
HETATM   14  C   UNL     1     -41.783  59.551 -61.170  1.00  0.00     0.001 A 
HETATM   15  H   UNL     1     -46.434  59.817 -59.818  1.00  0.00     0.166 HD
HETATM   16  C   UNL     1     -45.472  58.325 -58.657  1.00  0.00     0.018 A 
HETATM   17  C   UNL     1     -46.641  57.909 -57.839  1.00  0.00     0.069 C 
ENDBRANCH   6   7
ENDBRANCH   2   5
BRANCH   1  18
HETATM   18  C   UNL     1     -41.091  54.987 -54.309  1.00  0.00     0.033 A 
HETATM   19  C   UNL     1     -41.101  54.731 -52.933  1.00  0.00     0.020 A 
HETATM   20  C   UNL     1     -40.598  53.521 -52.445  1.00  0.00     0.038 A 
HETATM   21  C   UNL     1     -40.106  52.546 -53.316  1.00  0.00     0.068 A 
HETATM   22  C   UNL     1     -40.089  52.801 -54.687  1.00  0.00     0.038 A 
HETATM   23  C   UNL     1     -40.583  54.013 -55.180  1.00  0.00     0.020 A 
BRANCH  21  24
HETATM   24  O   UNL     1     -39.671  51.400 -52.712  1.00  0.00    -0.352 OA
BRANCH  24  25
HETATM   25  C   UNL     1     -39.734  51.369 -51.285  1.00  0.00     0.171 C 
HETATM   26  C   UNL     1     -39.690  49.917 -50.845  1.00  0.00     0.034 C 
ENDBRANCH  24  25
ENDBRANCH  21  24
ENDBRANCH   1  18
TORSDOF 5
ENDMDL
MODEL 7
REMARK VINA RESULT:      -7.2      2.641      9.561
REMARK  5 active torsions:
REMARK  status: ('A' for Active; 'I' for Inactive)
REMARK    1  A    between atoms: C_2  and  O_3 
REMARK    2  A    between atoms: O_3  and  C_4 
REMARK    3  A    between atoms: C_7  and  C_8 
REMARK       I    between atoms: C_8  and  N_9 
REMARK    4  A    between atoms: N_9  and  N_10 
REMARK    5  A    between atoms: C_11  and  C_12 
ROOT
HETATM    1  C   UNL     1     -42.856  54.561 -54.975  1.00  0.00     0.271 C 
HETATM    2  N   UNL     1     -42.796  55.903 -55.330  1.00  0.00    -0.243 N 
HETATM    3  O   UNL     1     -43.403  53.672 -55.621  1.00  0.00    -0.266 OA
HETATM    4  H   UNL     1     -42.090  56.490 -54.897  1.00  0.00     0.192 HD
ENDROOT
BRANCH   2   5
HETATM    5  N   UNL     1     -43.341  56.474 -56.455  1.00  0.00    -0.183 NA
HETATM    6  C   UNL     1     -42.753  56.301 -57.596  1.00  0.00     0.153 C 
BRANCH   6   7
HETATM    7  C   UNL     1     -43.289  56.920 -58.798  1.00  0.00     0.018 A 
HETATM    8  C   UNL     1     -43.047  58.271 -59.218  1.00  0.00     0.004 A 
HETATM    9  C   UNL     1     -43.730  58.470 -60.415  1.00  0.00     0.043 A 
HETATM   10  C   UNL     1     -42.311  59.351 -58.681  1.00  0.00     0.014 A 
HETATM   11  C   UNL     1     -43.713  59.687 -61.109  1.00  0.00     0.030 A 
HETATM   12  N   UNL     1     -44.366  57.290 -60.716  1.00  0.00    -0.358 N 
HETATM   13  C   UNL     1     -42.976  60.738 -60.556  1.00  0.00     0.002 A 
HETATM   14  C   UNL     1     -42.284  60.575 -59.358  1.00  0.00     0.001 A 
HETATM   15  H   UNL     1     -44.939  57.147 -61.535  1.00  0.00     0.166 HD
HETATM   16  C   UNL     1     -44.112  56.341 -59.756  1.00  0.00     0.018 A 
HETATM   17  C   UNL     1     -44.683  54.972 -59.860  1.00  0.00     0.069 C 
ENDBRANCH   6   7
ENDBRANCH   2   5
BRANCH   1  18
HETATM   18  C   UNL     1     -42.160  54.194 -53.704  1.00  0.00     0.033 A 
HETATM   19  C   UNL     1     -42.598  54.631 -52.449  1.00  0.00     0.020 A 
HETATM   20  C   UNL     1     -41.928  54.216 -51.294  1.00  0.00     0.038 A 
HETATM   21  C   UNL     1     -40.837  53.346 -51.370  1.00  0.00     0.068 A 
HETATM   22  C   UNL     1     -40.396  52.914 -52.620  1.00  0.00     0.038 A 
HETATM   23  C   UNL     1     -41.057  53.332 -53.780  1.00  0.00     0.020 A 
BRANCH  21  24
HETATM   24  O   UNL     1     -40.293  52.998 -50.167  1.00  0.00    -0.352 OA
BRANCH  24  25
HETATM   25  C   UNL     1     -39.824  54.069 -49.346  1.00  0.00     0.171 C 
HETATM   26  C   UNL     1     -40.356  53.852 -47.941  1.00  0.00     0.034 C 
ENDBRANCH  24  25
ENDBRANCH  21  24
ENDBRANCH   1  18
TORSDOF 5
ENDMDL
MODEL 8
REMARK VINA RESULT:      -7.1      3.016      9.678
REMARK  5 active torsions:
REMARK  status: ('A' for Active; 'I' for Inactive)
REMARK    1  A    between atoms: C_2  and  O_3 
REMARK    2  A    between atoms: O_3  and  C_4 
REMARK    3  A    between atoms: C_7  and  C_8 
REMARK       I    between atoms: C_8  and  N_9 
REMARK    4  A    between atoms: N_9  and  N_10 
REMARK    5  A    between atoms: C_11  and  C_12 
ROOT
HETATM    1  C   UNL     1     -42.586  55.433 -54.982  1.00  0.00     0.271 C 
HETATM    2  N   UNL     1     -41.941  56.059 -56.042  1.00  0.00    -0.243 N 
HETATM    3  O   UNL     1     -43.746  55.629 -54.632  1.00  0.00    -0.266 OA
HETATM    4  H   UNL     1     -41.107  55.629 -56.427  1.00  0.00     0.192 HD
ENDROOT
BRANCH   2   5
HETATM    5  N   UNL     1     -42.481  57.008 -56.878  1.00  0.00    -0.183 NA
HETATM    6  C   UNL     1     -43.315  56.637 -57.797  1.00  0.00     0.153 C 
BRANCH   6   7
HETATM    7  C   UNL     1     -43.877  57.614 -58.716  1.00  0.00     0.018 A 
HETATM    8  C   UNL     1     -45.189  58.188 -58.619  1.00  0.00     0.004 A 
HETATM    9  C   UNL     1     -45.338  59.080 -59.679  1.00  0.00     0.043 A 
HETATM   10  C   UNL     1     -46.272  58.025 -57.726  1.00  0.00     0.014 A 
HETATM   11  C   UNL     1     -46.507  59.820 -59.893  1.00  0.00     0.030 A 
HETATM   12  N   UNL     1     -44.166  59.051 -60.396  1.00  0.00    -0.358 N 
HETATM   13  C   UNL     1     -47.562  59.640 -58.994  1.00  0.00     0.002 A 
HETATM   14  C   UNL     1     -47.449  58.755 -57.925  1.00  0.00     0.001 A 
HETATM   15  H   UNL     1     -43.995  59.603 -61.225  1.00  0.00     0.166 HD
HETATM   16  C   UNL     1     -43.270  58.176 -59.832  1.00  0.00     0.018 A 
HETATM   17  C   UNL     1     -41.921  57.973 -60.421  1.00  0.00     0.069 C 
ENDBRANCH   6   7
ENDBRANCH   2   5
BRANCH   1  18
HETATM   18  C   UNL     1     -41.778  54.418 -54.240  1.00  0.00     0.033 A 
HETATM   19  C   UNL     1     -40.877  53.557 -54.876  1.00  0.00     0.020 A 
HETATM   20  C   UNL     1     -40.118  52.659 -54.119  1.00  0.00     0.038 A 
HETATM   21  C   UNL     1     -40.228  52.624 -52.726  1.00  0.00     0.068 A 
HETATM   22  C   UNL     1     -41.130  53.476 -52.091  1.00  0.00     0.038 A 
HETATM   23  C   UNL     1     -41.897  54.370 -52.844  1.00  0.00     0.020 A 
BRANCH  21  24
HETATM   24  O   UNL     1     -39.411  51.720 -52.107  1.00  0.00    -0.352 OA
BRANCH  24  25
HETATM   25  C   UNL     1     -39.895  51.154 -50.888  1.00  0.00     0.171 C 
HETATM   26  C   UNL     1     -39.651  49.657 -50.937  1.00  0.00     0.034 C 
ENDBRANCH  24  25
ENDBRANCH  21  24
ENDBRANCH   1  18
TORSDOF 5
ENDMDL
MODEL 9
REMARK VINA RESULT:      -7.0     15.121     19.064
REMARK  5 active torsions:
REMARK  status: ('A' for Active; 'I' for Inactive)
REMARK    1  A    between atoms: C_2  and  O_3 
REMARK    2  A    between atoms: O_3  and  C_4 
REMARK    3  A    between atoms: C_7  and  C_8 
REMARK       I    between atoms: C_8  and  N_9 
REMARK    4  A    between atoms: N_9  and  N_10 
REMARK    5  A    between atoms: C_11  and  C_12 
ROOT
HETATM    1  C   UNL     1     -34.448  38.994 -50.062  1.00  0.00     0.271 C 
HETATM    2  N   UNL     1     -34.211  39.820 -51.154  1.00  0.00    -0.243 N 
HETATM    3  O   UNL     1     -35.426  38.268 -49.911  1.00  0.00    -0.266 OA
HETATM    4  H   UNL     1     -33.265  40.145 -51.323  1.00  0.00     0.192 HD
ENDROOT
BRANCH   2   5
HETATM    5  N   UNL     1     -35.026  39.975 -52.251  1.00  0.00    -0.183 NA
HETATM    6  C   UNL     1     -35.677  41.085 -52.399  1.00  0.00     0.153 C 
BRANCH   6   7
HETATM    7  C   UNL     1     -36.571  41.264 -53.532  1.00  0.00     0.018 A 
HETATM    8  C   UNL     1     -36.161  41.542 -54.879  1.00  0.00     0.004 A 
HETATM    9  C   UNL     1     -37.311  41.635 -55.660  1.00  0.00     0.043 A 
HETATM   10  C   UNL     1     -34.910  41.732 -55.508  1.00  0.00     0.014 A 
HETATM   11  C   UNL     1     -37.280  41.901 -57.034  1.00  0.00     0.030 A 
HETATM   12  N   UNL     1     -38.381  41.425 -54.824  1.00  0.00    -0.358 N 
HETATM   13  C   UNL     1     -36.028  42.083 -57.631  1.00  0.00     0.002 A 
HETATM   14  C   UNL     1     -34.859  42.000 -56.880  1.00  0.00     0.001 A 
HETATM   15  H   UNL     1     -39.346  41.436 -55.124  1.00  0.00     0.166 HD
HETATM   16  C   UNL     1     -37.958  41.197 -53.537  1.00  0.00     0.018 A 
HETATM   17  C   UNL     1     -38.932  40.933 -52.445  1.00  0.00     0.069 C 
ENDBRANCH   6   7
ENDBRANCH   2   5
BRANCH   1  18
HETATM   18  C   UNL     1     -33.388  38.992 -49.008  1.00  0.00     0.033 A 
HETATM   19  C   UNL     1     -33.401  38.107 -47.925  1.00  0.00     0.020 A 
HETATM   20  C   UNL     1     -32.355  38.127 -46.996  1.00  0.00     0.038 A 
HETATM   21  C   UNL     1     -31.279  39.005 -47.146  1.00  0.00     0.068 A 
HETATM   22  C   UNL     1     -31.267  39.892 -48.221  1.00  0.00     0.038 A 
HETATM   23  C   UNL     1     -32.314  39.882 -49.149  1.00  0.00     0.020 A 
BRANCH  21  24
HETATM   24  O   UNL     1     -30.313  38.902 -46.185  1.00  0.00    -0.352 OA
BRANCH  24  25
HETATM   25  C   UNL     1     -29.498  40.055 -45.974  1.00  0.00     0.171 C 
HETATM   26  C   UNL     1     -29.951  40.721 -44.687  1.00  0.00     0.034 C 
ENDBRANCH  24  25
ENDBRANCH  21  24
ENDBRANCH   1  18
TORSDOF 5
ENDMDL
MODEL 10
REMARK VINA RESULT:      -6.8     14.738     16.746
REMARK  5 active torsions:
REMARK  status: ('A' for Active; 'I' for Inactive)
REMARK    1  A    between atoms: C_2  and  O_3 
REMARK    2  A    between atoms: O_3  and  C_4 
REMARK    3  A    between atoms: C_7  and  C_8 
REMARK       I    between atoms: C_8  and  N_9 
REMARK    4  A    between atoms: N_9  and  N_10 
REMARK    5  A    between atoms: C_11  and  C_12 
ROOT
HETATM    1  C   UNL     1     -35.730  41.680 -53.257  1.00  0.00     0.271 C 
HETATM    2  N   UNL     1     -35.631  40.369 -52.805  1.00  0.00    -0.243 N 
HETATM    3  O   UNL     1     -35.616  42.687 -52.565  1.00  0.00    -0.266 OA
HETATM    4  H   UNL     1     -35.449  39.634 -53.481  1.00  0.00     0.192 HD
ENDROOT
BRANCH   2   5
HETATM    5  N   UNL     1     -35.395  39.969 -51.511  1.00  0.00    -0.183 NA
HETATM    6  C   UNL     1     -34.775  38.852 -51.301  1.00  0.00     0.153 C 
BRANCH   6   7
HETATM    7  C   UNL     1     -34.540  38.388 -49.943  1.00  0.00     0.018 A 
HETATM    8  C   UNL     1     -33.427  38.761 -49.117  1.00  0.00     0.004 A 
HETATM    9  C   UNL     1     -33.573  38.111 -47.893  1.00  0.00     0.043 A 
HETATM   10  C   UNL     1     -32.298  39.591 -49.302  1.00  0.00     0.014 A 
HETATM   11  C   UNL     1     -32.657  38.249 -46.843  1.00  0.00     0.030 A 
HETATM   12  N   UNL     1     -34.727  37.370 -47.968  1.00  0.00    -0.358 N 
HETATM   13  C   UNL     1     -31.550  39.078 -47.053  1.00  0.00     0.002 A 
HETATM   14  C   UNL     1     -31.371  39.739 -48.265  1.00  0.00     0.001 A 
HETATM   15  H   UNL     1     -35.080  36.793 -47.217  1.00  0.00     0.166 HD
HETATM   16  C   UNL     1     -35.328  37.523 -49.193  1.00  0.00     0.018 A 
HETATM   17  C   UNL     1     -36.600  36.826 -49.517  1.00  0.00     0.069 C 
ENDBRANCH   6   7
ENDBRANCH   2   5
BRANCH   1  18
HETATM   18  C   UNL     1     -35.970  41.845 -54.723  1.00  0.00     0.033 A 
HETATM   19  C   UNL     1     -34.940  42.106 -55.633  1.00  0.00     0.020 A 
HETATM   20  C   UNL     1     -35.225  42.205 -56.999  1.00  0.00     0.038 A 
HETATM   21  C   UNL     1     -36.526  42.023 -57.475  1.00  0.00     0.068 A 
HETATM   22  C   UNL     1     -37.555  41.769 -56.569  1.00  0.00     0.038 A 
HETATM   23  C   UNL     1     -37.277  41.677 -55.202  1.00  0.00     0.020 A 
BRANCH  21  24
HETATM   24  O   UNL     1     -36.661  42.120 -58.831  1.00  0.00    -0.352 OA
BRANCH  24  25
HETATM   25  C   UNL     1     -37.700  41.340 -59.426  1.00  0.00     0.171 C 
HETATM   26  C   UNL     1     -37.054  40.181 -60.162  1.00  0.00     0.034 C 
ENDBRANCH  24  25
ENDBRANCH  21  24
ENDBRANCH   1  18
TORSDOF 5
ENDMDL
