MODEL 1
REMARK VINA RESULT:      -8.4      0.000      0.000
REMARK  4 active torsions:
REMARK  status: ('A' for Active; 'I' for Inactive)
REMARK    1  A    between atoms: N_2  and  C_4 
REMARK    2  A    between atoms: N_2  and  C_16 
REMARK    3  A    between atoms: C_4  and  C_5 
REMARK    4  A    between atoms: C_16  and  C_17 
ROOT
HETATM    1  C   UNL     1     -40.240  58.745 -52.807  1.00  0.00     0.270 C 
HETATM    2  N   UNL     1     -41.386  57.879 -53.252  1.00  0.00    -0.064 N 
HETATM    3  H   UNL     1     -40.974  57.183 -53.897  1.00  0.00     0.280 HD
ENDROOT
BRANCH   2   4
HETATM    4  C   UNL     1     -41.956  57.046 -52.109  1.00  0.00     0.312 C 
BRANCH   4   5
HETATM    5  C   UNL     1     -41.358  55.645 -52.088  1.00  0.00     0.133 A 
HETATM    6  N   UNL     1     -41.303  54.973 -53.195  1.00  0.00    -0.233 NA
HETATM    7  C   UNL     1     -40.744  53.677 -53.140  1.00  0.00     0.074 A 
HETATM    8  C   UNL     1     -40.262  53.115 -51.953  1.00  0.00     0.061 A 
HETATM    9  C   UNL     1     -40.665  52.923 -54.311  1.00  0.00     0.032 A 
HETATM   10  C   UNL     1     -40.355  53.929 -50.732  1.00  0.00     0.259 A 
HETATM   11  C   UNL     1     -39.710  51.832 -51.919  1.00  0.00     0.019 A 
HETATM   12  O   UNL     1     -39.964  53.544 -49.639  1.00  0.00    -0.267 OA
HETATM   13  N   UNL     1     -40.912  55.174 -50.887  1.00  0.00    -0.309 N 
HETATM   14  H   UNL     1     -40.972  55.701 -50.024  1.00  0.00     0.170 HD
HETATM   15  C   UNL     1     -39.639  51.092 -53.098  1.00  0.00     0.001 A 
HETATM   16  C   UNL     1     -40.115  51.636 -54.291  1.00  0.00     0.002 A 
ENDBRANCH   4   5
ENDBRANCH   2   4
BRANCH   2  17
HETATM   17  C   UNL     1     -42.468  58.623 -53.988  1.00  0.00     0.273 C 
BRANCH  17  18
HETATM   18  C   UNL     1     -42.426  58.467 -55.482  1.00  0.00    -0.028 A 
HETATM   19  C   UNL     1     -42.097  59.555 -56.305  1.00  0.00     0.035 A 
HETATM   20  C   UNL     1     -42.015  59.402 -57.693  1.00  0.00     0.070 A 
HETATM   21 CL   UNL     1     -41.563  60.775 -58.636  1.00  0.00    -0.081 Cl
HETATM   22  C   UNL     1     -42.289  58.166 -58.287  1.00  0.00     0.123 A 
HETATM   23  C   UNL     1     -42.636  57.084 -57.474  1.00  0.00     0.104 A 
HETATM   24  O   UNL     1     -42.084  58.020 -59.632  1.00  0.00    -0.346 OA
HETATM   25  O   UNL     1     -42.835  55.819 -57.953  1.00  0.00    -0.348 OA
HETATM   26  C   UNL     1     -42.685  57.226 -56.083  1.00  0.00     0.048 A 
HETATM   27  C   UNL     1     -43.932  55.744 -58.871  1.00  0.00     0.178 C 
HETATM   28  C   UNL     1     -43.544  56.179 -60.275  1.00  0.00     0.053 C 
HETATM   29  C   UNL     1     -43.279  57.674 -60.333  1.00  0.00     0.178 C 
ENDBRANCH  17  18
ENDBRANCH   2  17
TORSDOF 4
ENDMDL
MODEL 2
REMARK VINA RESULT:      -8.3      2.890      7.377
REMARK  4 active torsions:
REMARK  status: ('A' for Active; 'I' for Inactive)
REMARK    1  A    between atoms: N_2  and  C_4 
REMARK    2  A    between atoms: N_2  and  C_16 
REMARK    3  A    between atoms: C_4  and  C_5 
REMARK    4  A    between atoms: C_16  and  C_17 
ROOT
HETATM    1  C   UNL     1     -44.479  57.589 -52.277  1.00  0.00     0.270 C 
HETATM    2  N   UNL     1     -43.252  57.750 -53.132  1.00  0.00    -0.064 N 
HETATM    3  H   UNL     1     -43.287  56.977 -53.819  1.00  0.00     0.280 HD
ENDROOT
BRANCH   2   4
HETATM    4  C   UNL     1     -43.303  59.014 -53.982  1.00  0.00     0.312 C 
BRANCH   4   5
HETATM    5  C   UNL     1     -42.921  58.729 -55.429  1.00  0.00     0.133 A 
HETATM    6  N   UNL     1     -43.276  57.600 -55.957  1.00  0.00    -0.233 NA
HETATM    7  C   UNL     1     -42.905  57.366 -57.299  1.00  0.00     0.074 A 
HETATM    8  C   UNL     1     -42.184  58.298 -58.055  1.00  0.00     0.061 A 
HETATM    9  C   UNL     1     -43.269  56.163 -57.904  1.00  0.00     0.032 A 
HETATM   10  C   UNL     1     -41.812  59.560 -57.396  1.00  0.00     0.259 A 
HETATM   11  C   UNL     1     -41.829  58.050 -59.383  1.00  0.00     0.019 A 
HETATM   12  O   UNL     1     -41.186  60.448 -57.957  1.00  0.00    -0.267 OA
HETATM   13  N   UNL     1     -42.218  59.693 -56.091  1.00  0.00    -0.309 N 
HETATM   14  H   UNL     1     -41.933  60.568 -55.666  1.00  0.00     0.170 HD
HETATM   15  C   UNL     1     -42.201  56.843 -59.971  1.00  0.00     0.001 A 
HETATM   16  C   UNL     1     -42.920  55.902 -59.233  1.00  0.00     0.002 A 
ENDBRANCH   4   5
ENDBRANCH   2   4
BRANCH   2  17
HETATM   17  C   UNL     1     -41.956  57.647 -52.372  1.00  0.00     0.273 C 
BRANCH  17  18
HETATM   18  C   UNL     1     -41.500  56.239 -52.107  1.00  0.00    -0.028 A 
HETATM   19  C   UNL     1     -40.973  55.883 -50.855  1.00  0.00     0.035 A 
HETATM   20  C   UNL     1     -40.588  54.564 -50.592  1.00  0.00     0.070 A 
HETATM   21 CL   UNL     1     -39.990  54.193 -49.017  1.00  0.00    -0.081 Cl
HETATM   22  C   UNL     1     -40.694  53.583 -51.583  1.00  0.00     0.123 A 
HETATM   23  C   UNL     1     -41.199  53.937 -52.837  1.00  0.00     0.104 A 
HETATM   24  O   UNL     1     -40.422  52.283 -51.257  1.00  0.00    -0.346 OA
HETATM   25  O   UNL     1     -41.421  53.033 -53.839  1.00  0.00    -0.348 OA
HETATM   26  C   UNL     1     -41.617  55.248 -53.092  1.00  0.00     0.048 A 
HETATM   27  C   UNL     1     -40.220  52.390 -54.277  1.00  0.00     0.178 C 
HETATM   28  C   UNL     1     -39.815  51.238 -53.372  1.00  0.00     0.053 C 
HETATM   29  C   UNL     1     -39.341  51.742 -52.019  1.00  0.00     0.178 C 
ENDBRANCH  17  18
ENDBRANCH   2  17
TORSDOF 4
ENDMDL
MODEL 3
REMARK VINA RESULT:      -8.2      2.070      2.570
REMARK  4 active torsions:
REMARK  status: ('A' for Active; 'I' for Inactive)
REMARK    1  A    between atoms: N_2  and  C_4 
REMARK    2  A    between atoms: N_2  and  C_16 
REMARK    3  A    between atoms: C_4  and  C_5 
REMARK    4  A    between atoms: C_16  and  C_17 
ROOT
HETATM    1  C   UNL     1     -43.367  54.815 -53.802  1.00  0.00     0.270 C 
HETATM    2  N   UNL     1     -42.331  55.816 -54.235  1.00  0.00    -0.064 N 
HETATM    3  H   UNL     1     -42.766  56.745 -54.094  1.00  0.00     0.280 HD
ENDROOT
BRANCH   2   4
HETATM    4  C   UNL     1     -41.116  55.824 -53.314  1.00  0.00     0.312 C 
BRANCH   4   5
HETATM    5  C   UNL     1     -40.735  54.414 -52.882  1.00  0.00     0.133 A 
HETATM    6  N   UNL     1     -40.538  53.514 -53.794  1.00  0.00    -0.233 NA
HETATM    7  C   UNL     1     -40.188  52.216 -53.359  1.00  0.00     0.074 A 
HETATM    8  C   UNL     1     -40.051  51.887 -52.006  1.00  0.00     0.061 A 
HETATM    9  C   UNL     1     -39.966  51.220 -54.310  1.00  0.00     0.032 A 
HETATM   10  C   UNL     1     -40.289  52.954 -51.023  1.00  0.00     0.259 A 
HETATM   11  C   UNL     1     -39.701  50.598 -51.596  1.00  0.00     0.019 A 
HETATM   12  O   UNL     1     -40.196  52.783 -49.815  1.00  0.00    -0.267 OA
HETATM   13  N   UNL     1     -40.624  54.180 -51.542  1.00  0.00    -0.309 N 
HETATM   14  H   UNL     1     -40.793  54.886 -50.836  1.00  0.00     0.170 HD
HETATM   15  C   UNL     1     -39.482  49.614 -52.559  1.00  0.00     0.001 A 
HETATM   16  C   UNL     1     -39.615  49.925 -53.913  1.00  0.00     0.002 A 
ENDBRANCH   4   5
ENDBRANCH   2   4
BRANCH   2  17
HETATM   17  C   UNL     1     -41.929  55.697 -55.681  1.00  0.00     0.273 C 
BRANCH  17  18
HETATM   18  C   UNL     1     -42.942  56.229 -56.656  1.00  0.00    -0.028 A 
HETATM   19  C   UNL     1     -43.728  57.346 -56.330  1.00  0.00     0.035 A 
HETATM   20  C   UNL     1     -44.641  57.869 -57.253  1.00  0.00     0.070 A 
HETATM   21 CL   UNL     1     -45.540  59.269 -56.797  1.00  0.00    -0.081 Cl
HETATM   22  C   UNL     1     -44.807  57.269 -58.504  1.00  0.00     0.123 A 
HETATM   23  C   UNL     1     -44.042  56.145 -58.825  1.00  0.00     0.104 A 
HETATM   24  O   UNL     1     -45.618  57.874 -59.424  1.00  0.00    -0.346 OA
HETATM   25  O   UNL     1     -44.070  55.544 -60.054  1.00  0.00    -0.348 OA
HETATM   26  C   UNL     1     -43.102  55.641 -57.918  1.00  0.00     0.048 A 
HETATM   27  C   UNL     1     -45.359  55.011 -60.376  1.00  0.00     0.178 C 
HETATM   28  C   UNL     1     -46.308  56.071 -60.910  1.00  0.00     0.053 C 
HETATM   29  C   UNL     1     -46.713  57.046 -59.817  1.00  0.00     0.178 C 
ENDBRANCH  17  18
ENDBRANCH   2  17
TORSDOF 4
ENDMDL
MODEL 4
REMARK VINA RESULT:      -8.0      2.289      3.100
REMARK  4 active torsions:
REMARK  status: ('A' for Active; 'I' for Inactive)
REMARK    1  A    between atoms: N_2  and  C_4 
REMARK    2  A    between atoms: N_2  and  C_16 
REMARK    3  A    between atoms: C_4  and  C_5 
REMARK    4  A    between atoms: C_16  and  C_17 
ROOT
HETATM    1  C   UNL     1     -43.217  55.203 -53.739  1.00  0.00     0.270 C 
HETATM    2  N   UNL     1     -42.310  55.653 -54.851  1.00  0.00    -0.064 N 
HETATM    3  H   UNL     1     -42.493  56.664 -54.968  1.00  0.00     0.280 HD
ENDROOT
BRANCH   2   4
HETATM    4  C   UNL     1     -40.838  55.578 -54.461  1.00  0.00     0.312 C 
BRANCH   4   5
HETATM    5  C   UNL     1     -40.524  54.290 -53.709  1.00  0.00     0.133 A 
HETATM    6  N   UNL     1     -40.399  53.190 -54.383  1.00  0.00    -0.233 NA
HETATM    7  C   UNL     1     -40.110  52.014 -53.656  1.00  0.00     0.074 A 
HETATM    8  C   UNL     1     -39.960  52.006 -52.265  1.00  0.00     0.061 A 
HETATM    9  C   UNL     1     -39.966  50.809 -54.345  1.00  0.00     0.032 A 
HETATM   10  C   UNL     1     -40.116  53.289 -51.561  1.00  0.00     0.259 A 
HETATM   11  C   UNL     1     -39.672  50.834 -51.563  1.00  0.00     0.019 A 
HETATM   12  O   UNL     1     -40.004  53.404 -50.348  1.00  0.00    -0.267 OA
HETATM   13  N   UNL     1     -40.395  54.374 -52.353  1.00  0.00    -0.309 N 
HETATM   14  H   UNL     1     -40.509  55.236 -51.834  1.00  0.00     0.170 HD
HETATM   15  C   UNL     1     -39.530  49.639 -52.267  1.00  0.00     0.001 A 
HETATM   16  C   UNL     1     -39.677  49.627 -53.655  1.00  0.00     0.002 A 
ENDBRANCH   4   5
ENDBRANCH   2   4
BRANCH   2  17
HETATM   17  C   UNL     1     -42.569  54.970 -56.168  1.00  0.00     0.273 C 
BRANCH  17  18
HETATM   18  C   UNL     1     -43.075  55.879 -57.253  1.00  0.00    -0.028 A 
HETATM   19  C   UNL     1     -43.540  55.351 -58.467  1.00  0.00     0.035 A 
HETATM   20  C   UNL     1     -44.052  56.192 -59.461  1.00  0.00     0.070 A 
HETATM   21 CL   UNL     1     -44.644  55.466 -60.910  1.00  0.00    -0.081 Cl
HETATM   22  C   UNL     1     -44.082  57.577 -59.272  1.00  0.00     0.123 A 
HETATM   23  C   UNL     1     -43.601  58.108 -58.073  1.00  0.00     0.104 A 
HETATM   24  O   UNL     1     -44.696  58.358 -60.212  1.00  0.00    -0.346 OA
HETATM   25  O   UNL     1     -43.670  59.439 -57.761  1.00  0.00    -0.348 OA
HETATM   26  C   UNL     1     -43.121  57.267 -57.063  1.00  0.00     0.048 A 
HETATM   27  C   UNL     1     -42.914  60.254 -58.663  1.00  0.00     0.178 C 
HETATM   28  C   UNL     1     -43.669  60.551 -59.949  1.00  0.00     0.053 C 
HETATM   29  C   UNL     1     -43.805  59.303 -60.806  1.00  0.00     0.178 C 
ENDBRANCH  17  18
ENDBRANCH   2  17
TORSDOF 4
ENDMDL
MODEL 5
REMARK VINA RESULT:      -8.0      5.664      7.842
REMARK  4 active torsions:
REMARK  status: ('A' for Active; 'I' for Inactive)
REMARK    1  A    between atoms: N_2  and  C_4 
REMARK    2  A    between atoms: N_2  and  C_16 
REMARK    3  A    between atoms: C_4  and  C_5 
REMARK    4  A    between atoms: C_16  and  C_17 
ROOT
HETATM    1  C   UNL     1     -44.403  57.150 -51.232  1.00  0.00     0.270 C 
HETATM    2  N   UNL     1     -43.593  58.374 -50.905  1.00  0.00    -0.064 N 
HETATM    3  H   UNL     1     -43.600  58.445 -49.873  1.00  0.00     0.280 HD
ENDROOT
BRANCH   2   4
HETATM    4  C   UNL     1     -42.121  58.204 -51.263  1.00  0.00     0.312 C 
BRANCH   4   5
HETATM    5  C   UNL     1     -41.637  56.788 -50.978  1.00  0.00     0.133 A 
HETATM    6  N   UNL     1     -41.365  56.009 -51.978  1.00  0.00    -0.233 NA
HETATM    7  C   UNL     1     -40.921  54.702 -51.680  1.00  0.00     0.074 A 
HETATM    8  C   UNL     1     -40.772  54.238 -50.369  1.00  0.00     0.061 A 
HETATM    9  C   UNL     1     -40.616  53.834 -52.729  1.00  0.00     0.032 A 
HETATM   10  C   UNL     1     -41.099  55.172 -49.280  1.00  0.00     0.259 A 
HETATM   11  C   UNL     1     -40.329  52.942 -50.093  1.00  0.00     0.019 A 
HETATM   12  O   UNL     1     -41.004  54.878 -48.096  1.00  0.00    -0.267 OA
HETATM   13  N   UNL     1     -41.521  56.418 -49.670  1.00  0.00    -0.309 N 
HETATM   14  H   UNL     1     -41.749  57.029 -48.895  1.00  0.00     0.170 HD
HETATM   15  C   UNL     1     -40.028  52.088 -51.153  1.00  0.00     0.001 A 
HETATM   16  C   UNL     1     -40.171  52.533 -52.468  1.00  0.00     0.002 A 
ENDBRANCH   4   5
ENDBRANCH   2   4
BRANCH   2  17
HETATM   17  C   UNL     1     -44.156  59.652 -51.469  1.00  0.00     0.273 C 
BRANCH  17  18
HETATM   18  C   UNL     1     -44.409  60.726 -50.449  1.00  0.00    -0.028 A 
HETATM   19  C   UNL     1     -43.589  61.863 -50.390  1.00  0.00     0.035 A 
HETATM   20  C   UNL     1     -43.850  62.885 -49.470  1.00  0.00     0.070 A 
HETATM   21 CL   UNL     1     -42.824  64.272 -49.487  1.00  0.00    -0.081 Cl
HETATM   22  C   UNL     1     -44.915  62.775 -48.572  1.00  0.00     0.123 A 
HETATM   23  C   UNL     1     -45.722  61.635 -48.613  1.00  0.00     0.104 A 
HETATM   24  O   UNL     1     -45.214  63.841 -47.768  1.00  0.00    -0.346 OA
HETATM   25  O   UNL     1     -46.837  61.477 -47.836  1.00  0.00    -0.348 OA
HETATM   26  C   UNL     1     -45.486  60.628 -49.555  1.00  0.00     0.048 A 
HETATM   27  C   UNL     1     -46.536  61.463 -46.437  1.00  0.00     0.178 C 
HETATM   28  C   UNL     1     -46.376  62.862 -45.864  1.00  0.00     0.053 C 
HETATM   29  C   UNL     1     -45.109  63.525 -46.380  1.00  0.00     0.178 C 
ENDBRANCH  17  18
ENDBRANCH   2  17
TORSDOF 4
ENDMDL
MODEL 6
REMARK VINA RESULT:      -8.0      2.137      2.724
REMARK  4 active torsions:
REMARK  status: ('A' for Active; 'I' for Inactive)
REMARK    1  A    between atoms: N_2  and  C_4 
REMARK    2  A    between atoms: N_2  and  C_16 
REMARK    3  A    between atoms: C_4  and  C_5 
REMARK    4  A    between atoms: C_16  and  C_17 
ROOT
HETATM    1  C   UNL     1     -41.607  59.064 -54.045  1.00  0.00     0.270 C 
HETATM    2  N   UNL     1     -42.335  57.755 -53.904  1.00  0.00    -0.064 N 
HETATM    3  H   UNL     1     -41.947  57.140 -54.640  1.00  0.00     0.280 HD
ENDROOT
BRANCH   2   4
HETATM    4  C   UNL     1     -41.995  57.044 -52.599  1.00  0.00     0.312 C 
BRANCH   4   5
HETATM    5  C   UNL     1     -41.392  55.669 -52.853  1.00  0.00     0.133 A 
HETATM    6  N   UNL     1     -41.182  54.883 -51.844  1.00  0.00    -0.233 NA
HETATM    7  C   UNL     1     -40.620  53.616 -52.114  1.00  0.00     0.074 A 
HETATM    8  C   UNL     1     -40.292  53.198 -53.408  1.00  0.00     0.061 A 
HETATM    9  C   UNL     1     -40.381  52.741 -51.054  1.00  0.00     0.032 A 
HETATM   10  C   UNL     1     -40.554  54.138 -54.509  1.00  0.00     0.259 A 
HETATM   11  C   UNL     1     -39.739  51.940 -53.656  1.00  0.00     0.019 A 
HETATM   12  O   UNL     1     -40.311  53.881 -55.680  1.00  0.00    -0.267 OA
HETATM   13  N   UNL     1     -41.101  55.343 -54.146  1.00  0.00    -0.309 N 
HETATM   14  H   UNL     1     -41.256  55.970 -54.928  1.00  0.00     0.170 HD
HETATM   15  C   UNL     1     -39.507  51.077 -52.586  1.00  0.00     0.001 A 
HETATM   16  C   UNL     1     -39.828  51.477 -51.287  1.00  0.00     0.002 A 
ENDBRANCH   4   5
ENDBRANCH   2   4
BRANCH   2  17
HETATM   17  C   UNL     1     -43.823  57.856 -54.109  1.00  0.00     0.273 C 
BRANCH  17  18
HETATM   18  C   UNL     1     -44.263  57.756 -55.543  1.00  0.00    -0.028 A 
HETATM   19  C   UNL     1     -45.476  58.326 -55.959  1.00  0.00     0.035 A 
HETATM   20  C   UNL     1     -45.867  58.273 -57.301  1.00  0.00     0.070 A 
HETATM   21 CL   UNL     1     -47.350  59.034 -57.745  1.00  0.00    -0.081 Cl
HETATM   22  C   UNL     1     -45.069  57.621 -58.246  1.00  0.00     0.123 A 
HETATM   23  C   UNL     1     -43.871  57.034 -57.833  1.00  0.00     0.104 A 
HETATM   24  O   UNL     1     -45.420  57.689 -59.567  1.00  0.00    -0.346 OA
HETATM   25  O   UNL     1     -42.983  56.453 -58.697  1.00  0.00    -0.348 OA
HETATM   26  C   UNL     1     -43.460  57.117 -56.498  1.00  0.00     0.048 A 
HETATM   27  C   UNL     1     -43.538  55.324 -59.380  1.00  0.00     0.178 C 
HETATM   28  C   UNL     1     -44.386  55.728 -60.575  1.00  0.00     0.053 C 
HETATM   29  C   UNL     1     -45.674  56.403 -60.132  1.00  0.00     0.178 C 
ENDBRANCH  17  18
ENDBRANCH   2  17
TORSDOF 4
ENDMDL
MODEL 7
REMARK VINA RESULT:      -7.9      1.533      2.138
REMARK  4 active torsions:
REMARK  status: ('A' for Active; 'I' for Inactive)
REMARK    1  A    between atoms: N_2  and  C_4 
REMARK    2  A    between atoms: N_2  and  C_16 
REMARK    3  A    between atoms: C_4  and  C_5 
REMARK    4  A    between atoms: C_16  and  C_17 
ROOT
HETATM    1  C   UNL     1     -40.710  59.095 -52.101  1.00  0.00     0.270 C 
HETATM    2  N   UNL     1     -41.692  58.121 -52.691  1.00  0.00    -0.064 N 
HETATM    3  H   UNL     1     -41.142  57.525 -53.333  1.00  0.00     0.280 HD
ENDROOT
BRANCH   2   4
HETATM    4  C   UNL     1     -42.240  57.151 -51.650  1.00  0.00     0.312 C 
BRANCH   4   5
HETATM    5  C   UNL     1     -41.568  55.787 -51.750  1.00  0.00     0.133 A 
HETATM    6  N   UNL     1     -41.517  55.201 -52.905  1.00  0.00    -0.233 NA
HETATM    7  C   UNL     1     -40.890  53.937 -52.963  1.00  0.00     0.074 A 
HETATM    8  C   UNL     1     -40.336  53.319 -51.836  1.00  0.00     0.061 A 
HETATM    9  C   UNL     1     -40.813  53.274 -54.188  1.00  0.00     0.032 A 
HETATM   10  C   UNL     1     -40.428  54.038 -50.556  1.00  0.00     0.259 A 
HETATM   11  C   UNL     1     -39.717  52.069 -51.914  1.00  0.00     0.019 A 
HETATM   12  O   UNL     1     -39.978  53.597 -49.508  1.00  0.00    -0.267 OA
HETATM   13  N   UNL     1     -41.055  55.257 -50.602  1.00  0.00    -0.309 N 
HETATM   14  H   UNL     1     -41.112  55.718 -49.701  1.00  0.00     0.170 HD
HETATM   15  C   UNL     1     -39.648  51.420 -53.146  1.00  0.00     0.001 A 
HETATM   16  C   UNL     1     -40.196  52.022 -54.280  1.00  0.00     0.002 A 
ENDBRANCH   4   5
ENDBRANCH   2   4
BRANCH   2  17
HETATM   17  C   UNL     1     -42.799  58.769 -53.480  1.00  0.00     0.273 C 
BRANCH  17  18
HETATM   18  C   UNL     1     -42.828  58.395 -54.936  1.00  0.00    -0.028 A 
HETATM   19  C   UNL     1     -42.852  57.047 -55.326  1.00  0.00     0.035 A 
HETATM   20  C   UNL     1     -42.924  56.696 -56.679  1.00  0.00     0.070 A 
HETATM   21 CL   UNL     1     -42.992  55.020 -57.079  1.00  0.00    -0.081 Cl
HETATM   22  C   UNL     1     -42.941  57.685 -57.667  1.00  0.00     0.123 A 
HETATM   23  C   UNL     1     -42.897  59.028 -57.284  1.00  0.00     0.104 A 
HETATM   24  O   UNL     1     -43.131  57.313 -58.970  1.00  0.00    -0.346 OA
HETATM   25  O   UNL     1     -42.999  60.065 -58.171  1.00  0.00    -0.348 OA
HETATM   26  C   UNL     1     -42.862  59.382 -55.930  1.00  0.00     0.048 A 
HETATM   27  C   UNL     1     -41.925  60.087 -59.116  1.00  0.00     0.178 C 
HETATM   28  C   UNL     1     -42.147  59.123 -60.270  1.00  0.00     0.053 C 
HETATM   29  C   UNL     1     -42.034  57.679 -59.808  1.00  0.00     0.178 C 
ENDBRANCH  17  18
ENDBRANCH   2  17
TORSDOF 4
ENDMDL
MODEL 8
REMARK VINA RESULT:      -7.6      3.334      7.961
REMARK  4 active torsions:
REMARK  status: ('A' for Active; 'I' for Inactive)
REMARK    1  A    between atoms: N_2  and  C_4 
REMARK    2  A    between atoms: N_2  and  C_16 
REMARK    3  A    between atoms: C_4  and  C_5 
REMARK    4  A    between atoms: C_16  and  C_17 
ROOT
HETATM    1  C   UNL     1     -42.119  58.594 -54.785  1.00  0.00     0.270 C 
HETATM    2  N   UNL     1     -43.145  57.885 -55.625  1.00  0.00    -0.064 N 
HETATM    3  H   UNL     1     -43.753  58.629 -56.008  1.00  0.00     0.280 HD
ENDROOT
BRANCH   2   4
HETATM    4  C   UNL     1     -42.530  57.227 -56.855  1.00  0.00     0.312 C 
BRANCH   4   5
HETATM    5  C   UNL     1     -43.592  56.868 -57.886  1.00  0.00     0.133 A 
HETATM    6  N   UNL     1     -44.430  57.782 -58.263  1.00  0.00    -0.233 NA
HETATM    7  C   UNL     1     -45.403  57.416 -59.219  1.00  0.00     0.074 A 
HETATM    8  C   UNL     1     -45.484  56.126 -59.754  1.00  0.00     0.061 A 
HETATM    9  C   UNL     1     -46.321  58.373 -59.653  1.00  0.00     0.032 A 
HETATM   10  C   UNL     1     -44.505  55.135 -59.282  1.00  0.00     0.259 A 
HETATM   11  C   UNL     1     -46.453  55.782 -60.700  1.00  0.00     0.019 A 
HETATM   12  O   UNL     1     -44.479  53.979 -59.680  1.00  0.00    -0.267 OA
HETATM   13  N   UNL     1     -43.600  55.586 -58.354  1.00  0.00    -0.309 N 
HETATM   14  H   UNL     1     -42.950  54.874 -58.042  1.00  0.00     0.170 HD
HETATM   15  C   UNL     1     -47.362  56.750 -61.123  1.00  0.00     0.001 A 
HETATM   16  C   UNL     1     -47.296  58.043 -60.600  1.00  0.00     0.002 A 
ENDBRANCH   4   5
ENDBRANCH   2   4
BRANCH   2  17
HETATM   17  C   UNL     1     -44.008  56.920 -54.855  1.00  0.00     0.273 C 
BRANCH  17  18
HETATM   18  C   UNL     1     -43.244  55.945 -54.003  1.00  0.00    -0.028 A 
HETATM   19  C   UNL     1     -43.005  56.216 -52.646  1.00  0.00     0.035 A 
HETATM   20  C   UNL     1     -42.334  55.290 -51.841  1.00  0.00     0.070 A 
HETATM   21 CL   UNL     1     -42.115  55.675 -50.173  1.00  0.00    -0.081 Cl
HETATM   22  C   UNL     1     -41.861  54.091 -52.382  1.00  0.00     0.123 A 
HETATM   23  C   UNL     1     -42.078  53.825 -53.736  1.00  0.00     0.104 A 
HETATM   24  O   UNL     1     -41.315  53.158 -51.544  1.00  0.00    -0.346 OA
HETATM   25  O   UNL     1     -41.732  52.645 -54.334  1.00  0.00    -0.348 OA
HETATM   26  C   UNL     1     -42.781  54.734 -54.536  1.00  0.00     0.048 A 
HETATM   27  C   UNL     1     -40.321  52.405 -54.304  1.00  0.00     0.178 C 
HETATM   28  C   UNL     1     -39.860  51.829 -52.975  1.00  0.00     0.053 C 
HETATM   29  C   UNL     1     -39.955  52.863 -51.865  1.00  0.00     0.178 C 
ENDBRANCH  17  18
ENDBRANCH   2  17
TORSDOF 4
ENDMDL
MODEL 9
REMARK VINA RESULT:      -7.4      3.888      5.780
REMARK  4 active torsions:
REMARK  status: ('A' for Active; 'I' for Inactive)
REMARK    1  A    between atoms: N_2  and  C_4 
REMARK    2  A    between atoms: N_2  and  C_16 
REMARK    3  A    between atoms: C_4  and  C_5 
REMARK    4  A    between atoms: C_16  and  C_17 
ROOT
HETATM    1  C   UNL     1     -41.622  58.046 -53.139  1.00  0.00     0.270 C 
HETATM    2  N   UNL     1     -42.135  56.639 -52.995  1.00  0.00    -0.064 N 
HETATM    3  H   UNL     1     -41.736  56.115 -53.793  1.00  0.00     0.280 HD
ENDROOT
BRANCH   2   4
HETATM    4  C   UNL     1     -41.569  55.943 -51.763  1.00  0.00     0.312 C 
BRANCH   4   5
HETATM    5  C   UNL     1     -41.053  54.548 -52.098  1.00  0.00     0.133 A 
HETATM    6  N   UNL     1     -40.892  53.695 -51.135  1.00  0.00    -0.233 NA
HETATM    7  C   UNL     1     -40.411  52.413 -51.479  1.00  0.00     0.074 A 
HETATM    8  C   UNL     1     -40.112  52.049 -52.797  1.00  0.00     0.061 A 
HETATM    9  C   UNL     1     -40.226  51.465 -50.472  1.00  0.00     0.032 A 
HETATM   10  C   UNL     1     -40.316  53.064 -53.841  1.00  0.00     0.259 A 
HETATM   11  C   UNL     1     -39.640  50.774 -53.118  1.00  0.00     0.019 A 
HETATM   12  O   UNL     1     -40.092  52.859 -55.026  1.00  0.00    -0.267 OA
HETATM   13  N   UNL     1     -40.786  54.279 -53.409  1.00  0.00    -0.309 N 
HETATM   14  H   UNL     1     -40.902  54.957 -54.153  1.00  0.00     0.170 HD
HETATM   15  C   UNL     1     -39.461  49.840 -52.100  1.00  0.00     0.001 A 
HETATM   16  C   UNL     1     -39.754  50.185 -50.779  1.00  0.00     0.002 A 
ENDBRANCH   4   5
ENDBRANCH   2   4
BRANCH   2  17
HETATM   17  C   UNL     1     -43.635  56.523 -53.056  1.00  0.00     0.273 C 
BRANCH  17  18
HETATM   18  C   UNL     1     -44.372  57.790 -52.720  1.00  0.00    -0.028 A 
HETATM   19  C   UNL     1     -44.678  58.725 -53.721  1.00  0.00     0.035 A 
HETATM   20  C   UNL     1     -45.403  59.883 -53.418  1.00  0.00     0.070 A 
HETATM   21 CL   UNL     1     -45.778  60.964 -54.709  1.00  0.00    -0.081 Cl
HETATM   22  C   UNL     1     -45.808  60.143 -52.106  1.00  0.00     0.123 A 
HETATM   23  C   UNL     1     -45.487  59.225 -51.102  1.00  0.00     0.104 A 
HETATM   24  O   UNL     1     -46.614  61.221 -51.865  1.00  0.00    -0.346 OA
HETATM   25  O   UNL     1     -45.915  59.348 -49.808  1.00  0.00    -0.348 OA
HETATM   26  C   UNL     1     -44.794  58.048 -51.408  1.00  0.00     0.048 A 
HETATM   27  C   UNL     1     -45.412  60.528 -49.173  1.00  0.00     0.178 C 
HETATM   28  C   UNL     1     -46.222  61.766 -49.523  1.00  0.00     0.053 C 
HETATM   29  C   UNL     1     -46.015  62.164 -50.975  1.00  0.00     0.178 C 
ENDBRANCH  17  18
ENDBRANCH   2  17
TORSDOF 4
ENDMDL
MODEL 10
REMARK VINA RESULT:      -7.4      2.391      2.945
REMARK  4 active torsions:
REMARK  status: ('A' for Active; 'I' for Inactive)
REMARK    1  A    between atoms: N_2  and  C_4 
REMARK    2  A    between atoms: N_2  and  C_16 
REMARK    3  A    between atoms: C_4  and  C_5 
REMARK    4  A    between atoms: C_16  and  C_17 
ROOT
HETATM    1  C   UNL     1     -43.579  60.732 -53.087  1.00  0.00     0.270 C 
HETATM    2  N   UNL     1     -43.586  59.255 -53.371  1.00  0.00    -0.064 N 
HETATM    3  H   UNL     1     -42.788  59.090 -54.009  1.00  0.00     0.280 HD
ENDROOT
BRANCH   2   4
HETATM    4  C   UNL     1     -43.258  58.428 -52.133  1.00  0.00     0.312 C 
BRANCH   4   5
HETATM    5  C   UNL     1     -42.782  57.029 -52.506  1.00  0.00     0.133 A 
HETATM    6  N   UNL     1     -41.873  56.903 -53.421  1.00  0.00    -0.233 NA
HETATM    7  C   UNL     1     -41.456  55.594 -53.745  1.00  0.00     0.074 A 
HETATM    8  C   UNL     1     -41.984  54.459 -53.119  1.00  0.00     0.061 A 
HETATM    9  C   UNL     1     -40.477  55.416 -54.723  1.00  0.00     0.032 A 
HETATM   10  C   UNL     1     -43.014  54.672 -52.091  1.00  0.00     0.259 A 
HETATM   11  C   UNL     1     -41.557  53.171 -53.451  1.00  0.00     0.019 A 
HETATM   12  O   UNL     1     -43.545  53.756 -51.477  1.00  0.00    -0.267 OA
HETATM   13  N   UNL     1     -43.352  55.979 -51.847  1.00  0.00    -0.309 N 
HETATM   14  H   UNL     1     -44.073  56.087 -51.143  1.00  0.00     0.170 HD
HETATM   15  C   UNL     1     -40.579  53.011 -54.430  1.00  0.00     0.001 A 
HETATM   16  C   UNL     1     -40.040  54.132 -55.065  1.00  0.00     0.002 A 
ENDBRANCH   4   5
ENDBRANCH   2   4
BRANCH   2  17
HETATM   17  C   UNL     1     -44.840  58.766 -54.046  1.00  0.00     0.273 C 
BRANCH  17  18
HETATM   18  C   UNL     1     -44.729  58.624 -55.539  1.00  0.00    -0.028 A 
HETATM   19  C   UNL     1     -45.837  58.225 -56.302  1.00  0.00     0.035 A 
HETATM   20  C   UNL     1     -45.748  58.135 -57.696  1.00  0.00     0.070 A 
HETATM   21 CL   UNL     1     -47.164  57.680 -58.571  1.00  0.00    -0.081 Cl
HETATM   22  C   UNL     1     -44.543  58.410 -58.349  1.00  0.00     0.123 A 
HETATM   23  C   UNL     1     -43.432  58.788 -57.591  1.00  0.00     0.104 A 
HETATM   24  O   UNL     1     -44.522  58.428 -59.717  1.00  0.00    -0.346 OA
HETATM   25  O   UNL     1     -42.238  59.162 -58.145  1.00  0.00    -0.348 OA
HETATM   26  C   UNL     1     -43.527  58.914 -56.201  1.00  0.00     0.048 A 
HETATM   27  C   UNL     1     -41.625  58.108 -58.895  1.00  0.00     0.178 C 
HETATM   28  C   UNL     1     -42.198  57.983 -60.297  1.00  0.00     0.053 C 
HETATM   29  C   UNL     1     -43.625  57.460 -60.262  1.00  0.00     0.178 C 
ENDBRANCH  17  18
ENDBRANCH   2  17
TORSDOF 4
ENDMDL
