MODEL 1
REMARK VINA RESULT:      -8.4      0.000      0.000
REMARK  3 active torsions:
REMARK  status: ('A' for Active; 'I' for Inactive)
REMARK    1  A    between atoms: C_3  and  O_4 
REMARK    2  A    between atoms: O_4  and  C_5 
REMARK    3  A    between atoms: C_10  and  N_11 
REMARK       I    between atoms: N_11  and  C_12 
REMARK       I    between atoms: C_12  and  N_13 
ROOT
HETATM    1  N   UNL     1     -43.217  55.164 -56.880  1.00  0.00    -0.309 N 
HETATM    2  C   UNL     1     -43.025  56.375 -57.507  1.00  0.00     0.323 C 
HETATM    3  N   UNL     1     -43.488  56.422 -58.815  1.00  0.00    -0.328 N 
HETATM    4  C   UNL     1     -43.651  57.744 -59.430  1.00  0.00     0.185 C 
HETATM    5  C   UNL     1     -44.973  57.743 -60.124  1.00  0.00     0.035 A 
HETATM    6  C   UNL     1     -45.743  56.638 -60.439  1.00  0.00    -0.020 A 
HETATM    7  C   UNL     1     -45.308  55.259 -60.072  1.00  0.00     0.061 C 
HETATM    8  C   UNL     1     -43.813  55.271 -59.686  1.00  0.00     0.132 C 
HETATM    9  N   UNL     1     -45.641  58.860 -60.539  1.00  0.00    -0.357 N 
HETATM   10  H   UNL     1     -45.326  59.813 -60.424  1.00  0.00     0.166 HD
HETATM   11  C   UNL     1     -46.840  58.498 -61.118  1.00  0.00     0.043 A 
HETATM   12  C   UNL     1     -46.927  57.104 -61.070  1.00  0.00    -0.001 A 
HETATM   13  C   UNL     1     -47.851  59.297 -61.665  1.00  0.00     0.030 A 
HETATM   14  C   UNL     1     -48.981  58.653 -62.179  1.00  0.00     0.002 A 
HETATM   15  C   UNL     1     -49.093  57.265 -62.147  1.00  0.00     0.001 A 
HETATM   16  C   UNL     1     -48.075  56.479 -61.595  1.00  0.00     0.014 A 
HETATM   17  O   UNL     1     -42.530  57.366 -56.976  1.00  0.00    -0.247 OA
HETATM   18  H   UNL     1     -43.901  54.564 -57.308  1.00  0.00     0.170 HD
ENDROOT
BRANCH   1  19
HETATM   19  C   UNL     1     -42.870  54.828 -55.553  1.00  0.00     0.037 A 
HETATM   20  C   UNL     1     -43.580  55.253 -54.432  1.00  0.00     0.032 A 
HETATM   21  C   UNL     1     -43.222  54.807 -53.156  1.00  0.00     0.039 A 
HETATM   22  C   UNL     1     -42.152  53.928 -52.990  1.00  0.00     0.075 A 
HETATM   23  C   UNL     1     -41.367  53.568 -54.094  1.00  0.00    -0.026 A 
HETATM   24  C   UNL     1     -40.188  52.648 -53.944  1.00  0.00     0.051 C 
HETATM   25  C   UNL     1     -41.747  54.009 -55.372  1.00  0.00     0.039 A 
BRANCH  22  26
HETATM   26  O   UNL     1     -41.795  53.416 -51.772  1.00  0.00    -0.346 OA
BRANCH  26  27
HETATM   27  C   UNL     1     -41.132  54.331 -50.882  1.00  0.00     0.121 C 
HETATM   28  C   UNL     1     -42.009  54.671 -49.676  1.00  0.00     0.040 C 
HETATM   29  C   UNL     1     -39.859  53.632 -50.411  1.00  0.00     0.040 C 
ENDBRANCH  26  27
ENDBRANCH  22  26
ENDBRANCH   1  19
TORSDOF 3
ENDMDL
MODEL 2
REMARK VINA RESULT:      -8.3      3.383      4.949
REMARK  3 active torsions:
REMARK  status: ('A' for Active; 'I' for Inactive)
REMARK    1  A    between atoms: C_3  and  O_4 
REMARK    2  A    between atoms: O_4  and  C_5 
REMARK    3  A    between atoms: C_10  and  N_11 
REMARK       I    between atoms: N_11  and  C_12 
REMARK       I    between atoms: C_12  and  N_13 
ROOT
HETATM    1  N   UNL     1     -41.795  56.013 -55.089  1.00  0.00    -0.309 N 
HETATM    2  C   UNL     1     -42.587  56.045 -56.216  1.00  0.00     0.323 C 
HETATM    3  N   UNL     1     -42.975  57.319 -56.606  1.00  0.00    -0.328 N 
HETATM    4  C   UNL     1     -43.504  57.481 -57.965  1.00  0.00     0.185 C 
HETATM    5  C   UNL     1     -42.855  58.693 -58.546  1.00  0.00     0.035 A 
HETATM    6  C   UNL     1     -42.168  59.676 -57.858  1.00  0.00    -0.020 A 
HETATM    7  C   UNL     1     -41.980  59.600 -56.380  1.00  0.00     0.061 C 
HETATM    8  C   UNL     1     -42.943  58.551 -55.785  1.00  0.00     0.132 C 
HETATM    9  N   UNL     1     -42.825  59.004 -59.876  1.00  0.00    -0.357 N 
HETATM   10  H   UNL     1     -43.232  58.455 -60.620  1.00  0.00     0.166 HD
HETATM   11  C   UNL     1     -42.123  60.177 -60.064  1.00  0.00     0.043 A 
HETATM   12  C   UNL     1     -41.701  60.621 -58.809  1.00  0.00    -0.001 A 
HETATM   13  C   UNL     1     -41.823  60.864 -61.247  1.00  0.00     0.030 A 
HETATM   14  C   UNL     1     -41.072  62.039 -61.142  1.00  0.00     0.002 A 
HETATM   15  C   UNL     1     -40.641  62.507 -59.903  1.00  0.00     0.001 A 
HETATM   16  C   UNL     1     -40.946  61.808 -58.730  1.00  0.00     0.014 A 
HETATM   17  O   UNL     1     -42.908  55.058 -56.872  1.00  0.00    -0.247 OA
HETATM   18  H   UNL     1     -41.357  56.886 -54.848  1.00  0.00     0.170 HD
ENDROOT
BRANCH   1  19
HETATM   19  C   UNL     1     -41.237  54.872 -54.473  1.00  0.00     0.037 A 
HETATM   20  C   UNL     1     -40.464  53.926 -55.143  1.00  0.00     0.032 A 
HETATM   21  C   UNL     1     -39.876  52.867 -54.444  1.00  0.00     0.039 A 
HETATM   22  C   UNL     1     -40.053  52.747 -53.066  1.00  0.00     0.075 A 
HETATM   23  C   UNL     1     -40.906  53.632 -52.392  1.00  0.00    -0.026 A 
HETATM   24  C   UNL     1     -41.143  53.510 -50.913  1.00  0.00     0.051 C 
HETATM   25  C   UNL     1     -41.477  54.700 -53.103  1.00  0.00     0.039 A 
BRANCH  22  26
HETATM   26  O   UNL     1     -39.454  51.765 -52.324  1.00  0.00    -0.346 OA
BRANCH  26  27
HETATM   27  C   UNL     1     -40.028  50.453 -52.449  1.00  0.00     0.121 C 
HETATM   28  C   UNL     1     -39.475  49.715 -53.669  1.00  0.00     0.040 C 
HETATM   29  C   UNL     1     -39.657  49.694 -51.177  1.00  0.00     0.040 C 
ENDBRANCH  26  27
ENDBRANCH  22  26
ENDBRANCH   1  19
TORSDOF 3
ENDMDL
MODEL 3
REMARK VINA RESULT:      -8.2      5.924      8.175
REMARK  3 active torsions:
REMARK  status: ('A' for Active; 'I' for Inactive)
REMARK    1  A    between atoms: C_3  and  O_4 
REMARK    2  A    between atoms: O_4  and  C_5 
REMARK    3  A    between atoms: C_10  and  N_11 
REMARK       I    between atoms: N_11  and  C_12 
REMARK       I    between atoms: C_12  and  N_13 
ROOT
HETATM    1  N   UNL     1     -42.757  56.099 -52.934  1.00  0.00    -0.309 N 
HETATM    2  C   UNL     1     -42.403  57.355 -53.377  1.00  0.00     0.323 C 
HETATM    3  N   UNL     1     -43.347  58.339 -53.120  1.00  0.00    -0.328 N 
HETATM    4  C   UNL     1     -42.916  59.737 -53.228  1.00  0.00     0.185 C 
HETATM    5  C   UNL     1     -43.455  60.454 -52.033  1.00  0.00     0.035 A 
HETATM    6  C   UNL     1     -44.444  60.009 -51.176  1.00  0.00    -0.020 A 
HETATM    7  C   UNL     1     -45.092  58.678 -51.364  1.00  0.00     0.061 C 
HETATM    8  C   UNL     1     -44.772  58.138 -52.774  1.00  0.00     0.132 C 
HETATM    9  N   UNL     1     -43.022  61.671 -51.589  1.00  0.00    -0.357 N 
HETATM   10  H   UNL     1     -42.290  62.228 -52.009  1.00  0.00     0.166 HD
HETATM   11  C   UNL     1     -43.716  62.025 -50.450  1.00  0.00     0.043 A 
HETATM   12  C   UNL     1     -44.619  60.996 -50.171  1.00  0.00    -0.001 A 
HETATM   13  C   UNL     1     -43.601  63.166 -49.647  1.00  0.00     0.030 A 
HETATM   14  C   UNL     1     -44.435  63.258 -48.528  1.00  0.00     0.002 A 
HETATM   15  C   UNL     1     -45.347  62.249 -48.227  1.00  0.00     0.001 A 
HETATM   16  C   UNL     1     -45.448  61.113 -49.038  1.00  0.00     0.014 A 
HETATM   17  O   UNL     1     -41.334  57.629 -53.917  1.00  0.00    -0.247 OA
HETATM   18  H   UNL     1     -43.489  56.079 -52.245  1.00  0.00     0.170 HD
ENDROOT
BRANCH   1  19
HETATM   19  C   UNL     1     -41.995  54.915 -53.035  1.00  0.00     0.037 A 
HETATM   20  C   UNL     1     -41.768  54.237 -54.232  1.00  0.00     0.032 A 
HETATM   21  C   UNL     1     -40.930  53.117 -54.264  1.00  0.00     0.039 A 
HETATM   22  C   UNL     1     -40.310  52.668 -53.099  1.00  0.00     0.075 A 
HETATM   23  C   UNL     1     -40.603  53.277 -51.871  1.00  0.00    -0.026 A 
HETATM   24  C   UNL     1     -39.976  52.795 -50.593  1.00  0.00     0.051 C 
HETATM   25  C   UNL     1     -41.433  54.410 -51.855  1.00  0.00     0.039 A 
BRANCH  22  26
HETATM   26  O   UNL     1     -39.437  51.613 -53.084  1.00  0.00    -0.346 OA
BRANCH  26  27
HETATM   27  C   UNL     1     -40.008  50.328 -53.381  1.00  0.00     0.121 C 
HETATM   28  C   UNL     1     -39.493  49.782 -54.713  1.00  0.00     0.040 C 
HETATM   29  C   UNL     1     -39.589  49.395 -52.246  1.00  0.00     0.040 C 
ENDBRANCH  26  27
ENDBRANCH  22  26
ENDBRANCH   1  19
TORSDOF 3
ENDMDL
MODEL 4
REMARK VINA RESULT:      -8.1      1.088      1.727
REMARK  3 active torsions:
REMARK  status: ('A' for Active; 'I' for Inactive)
REMARK    1  A    between atoms: C_3  and  O_4 
REMARK    2  A    between atoms: O_4  and  C_5 
REMARK    3  A    between atoms: C_10  and  N_11 
REMARK       I    between atoms: N_11  and  C_12 
REMARK       I    between atoms: C_12  and  N_13 
ROOT
HETATM    1  N   UNL     1     -42.391  55.067 -56.155  1.00  0.00    -0.309 N 
HETATM    2  C   UNL     1     -42.472  56.397 -56.506  1.00  0.00     0.323 C 
HETATM    3  N   UNL     1     -42.813  56.619 -57.833  1.00  0.00    -0.328 N 
HETATM    4  C   UNL     1     -43.267  57.965 -58.201  1.00  0.00     0.185 C 
HETATM    5  C   UNL     1     -44.474  57.798 -59.065  1.00  0.00     0.035 A 
HETATM    6  C   UNL     1     -44.891  56.638 -59.692  1.00  0.00    -0.020 A 
HETATM    7  C   UNL     1     -44.139  55.359 -59.536  1.00  0.00     0.061 C 
HETATM    8  C   UNL     1     -42.741  55.645 -58.945  1.00  0.00     0.132 C 
HETATM    9  N   UNL     1     -45.376  58.784 -59.350  1.00  0.00    -0.357 N 
HETATM   10  H   UNL     1     -45.338  59.735 -59.011  1.00  0.00     0.166 HD
HETATM   11  C   UNL     1     -46.379  58.280 -60.152  1.00  0.00     0.043 A 
HETATM   12  C   UNL     1     -46.095  56.931 -60.384  1.00  0.00    -0.001 A 
HETATM   13  C   UNL     1     -47.513  58.912 -60.676  1.00  0.00     0.030 A 
HETATM   14  C   UNL     1     -48.380  58.144 -61.459  1.00  0.00     0.002 A 
HETATM   15  C   UNL     1     -48.121  56.798 -61.709  1.00  0.00     0.001 A 
HETATM   16  C   UNL     1     -46.983  56.180 -61.177  1.00  0.00     0.014 A 
HETATM   17  O   UNL     1     -42.309  57.335 -55.730  1.00  0.00    -0.247 OA
HETATM   18  H   UNL     1     -42.849  54.430 -56.784  1.00  0.00     0.170 HD
ENDROOT
BRANCH   1  19
HETATM   19  C   UNL     1     -42.085  54.540 -54.881  1.00  0.00     0.037 A 
HETATM   20  C   UNL     1     -40.844  54.009 -54.537  1.00  0.00     0.032 A 
HETATM   21  C   UNL     1     -40.594  53.584 -53.228  1.00  0.00     0.039 A 
HETATM   22  C   UNL     1     -41.582  53.692 -52.251  1.00  0.00     0.075 A 
HETATM   23  C   UNL     1     -42.866  54.133 -52.601  1.00  0.00    -0.026 A 
HETATM   24  C   UNL     1     -43.962  54.229 -51.578  1.00  0.00     0.051 C 
HETATM   25  C   UNL     1     -43.099  54.571 -53.915  1.00  0.00     0.039 A 
BRANCH  22  26
HETATM   26  O   UNL     1     -41.372  53.345 -50.943  1.00  0.00    -0.346 OA
BRANCH  26  27
HETATM   27  C   UNL     1     -40.413  54.147 -50.232  1.00  0.00     0.121 C 
HETATM   28  C   UNL     1     -40.846  55.613 -50.172  1.00  0.00     0.040 C 
HETATM   29  C   UNL     1     -40.333  53.576 -48.819  1.00  0.00     0.040 C 
ENDBRANCH  26  27
ENDBRANCH  22  26
ENDBRANCH   1  19
TORSDOF 3
ENDMDL
MODEL 5
REMARK VINA RESULT:      -8.0      3.887      9.663
REMARK  3 active torsions:
REMARK  status: ('A' for Active; 'I' for Inactive)
REMARK    1  A    between atoms: C_3  and  O_4 
REMARK    2  A    between atoms: O_4  and  C_5 
REMARK    3  A    between atoms: C_10  and  N_11 
REMARK       I    between atoms: N_11  and  C_12 
REMARK       I    between atoms: C_12  and  N_13 
ROOT
HETATM    1  N   UNL     1     -42.373  57.880 -57.179  1.00  0.00    -0.309 N 
HETATM    2  C   UNL     1     -43.277  57.623 -56.172  1.00  0.00     0.323 C 
HETATM    3  N   UNL     1     -43.266  56.312 -55.715  1.00  0.00    -0.328 N 
HETATM    4  C   UNL     1     -43.920  56.037 -54.431  1.00  0.00     0.185 C 
HETATM    5  C   UNL     1     -43.000  55.156 -53.651  1.00  0.00     0.035 A 
HETATM    6  C   UNL     1     -41.918  54.448 -54.140  1.00  0.00    -0.020 A 
HETATM    7  C   UNL     1     -41.532  54.519 -55.579  1.00  0.00     0.061 C 
HETATM    8  C   UNL     1     -42.685  55.135 -56.398  1.00  0.00     0.132 C 
HETATM    9  N   UNL     1     -43.080  54.936 -52.305  1.00  0.00    -0.357 N 
HETATM   10  H   UNL     1     -43.764  55.340 -51.680  1.00  0.00     0.166 HD
HETATM   11  C   UNL     1     -42.061  54.094 -51.909  1.00  0.00     0.043 A 
HETATM   12  C   UNL     1     -41.317  53.770 -53.047  1.00  0.00    -0.001 A 
HETATM   13  C   UNL     1     -41.740  53.610 -50.635  1.00  0.00     0.030 A 
HETATM   14  C   UNL     1     -40.627  52.770 -50.522  1.00  0.00     0.002 A 
HETATM   15  C   UNL     1     -39.869  52.428 -51.639  1.00  0.00     0.001 A 
HETATM   16  C   UNL     1     -40.201  52.922 -52.906  1.00  0.00     0.014 A 
HETATM   17  O   UNL     1     -44.016  58.463 -55.665  1.00  0.00    -0.247 OA
HETATM   18  H   UNL     1     -41.632  57.206 -57.272  1.00  0.00     0.170 HD
ENDROOT
BRANCH   1  19
HETATM   19  C   UNL     1     -42.145  59.116 -57.823  1.00  0.00     0.037 A 
HETATM   20  C   UNL     1     -41.820  60.294 -57.153  1.00  0.00     0.032 A 
HETATM   21  C   UNL     1     -41.526  61.459 -57.869  1.00  0.00     0.039 A 
HETATM   22  C   UNL     1     -41.551  61.454 -59.263  1.00  0.00     0.075 A 
HETATM   23  C   UNL     1     -41.970  60.307 -59.951  1.00  0.00    -0.026 A 
HETATM   24  C   UNL     1     -42.039  60.280 -61.452  1.00  0.00     0.051 C 
HETATM   25  C   UNL     1     -42.247  59.140 -59.220  1.00  0.00     0.039 A 
BRANCH  22  26
HETATM   26  O   UNL     1     -41.216  62.549 -60.014  1.00  0.00    -0.346 OA
BRANCH  26  27
HETATM   27  C   UNL     1     -39.808  62.768 -60.203  1.00  0.00     0.121 C 
HETATM   28  C   UNL     1     -39.484  63.096 -61.661  1.00  0.00     0.040 C 
HETATM   29  C   UNL     1     -39.430  63.949 -59.313  1.00  0.00     0.040 C 
ENDBRANCH  26  27
ENDBRANCH  22  26
ENDBRANCH   1  19
TORSDOF 3
ENDMDL
MODEL 6
REMARK VINA RESULT:      -7.8     15.994     20.166
REMARK  3 active torsions:
REMARK  status: ('A' for Active; 'I' for Inactive)
REMARK    1  A    between atoms: C_3  and  O_4 
REMARK    2  A    between atoms: O_4  and  C_5 
REMARK    3  A    between atoms: C_10  and  N_11 
REMARK       I    between atoms: N_11  and  C_12 
REMARK       I    between atoms: C_12  and  N_13 
ROOT
HETATM    1  N   UNL     1     -36.351  40.979 -55.809  1.00  0.00    -0.309 N 
HETATM    2  C   UNL     1     -35.138  40.968 -55.155  1.00  0.00     0.323 C 
HETATM    3  N   UNL     1     -35.212  41.293 -53.808  1.00  0.00    -0.328 N 
HETATM    4  C   UNL     1     -34.056  40.964 -52.966  1.00  0.00     0.185 C 
HETATM    5  C   UNL     1     -34.587  40.342 -51.717  1.00  0.00     0.035 A 
HETATM    6  C   UNL     1     -35.893  40.376 -51.265  1.00  0.00    -0.020 A 
HETATM    7  C   UNL     1     -36.966  41.061 -52.043  1.00  0.00     0.061 C 
HETATM    8  C   UNL     1     -36.330  41.971 -53.115  1.00  0.00     0.132 C 
HETATM    9  N   UNL     1     -33.847  39.613 -50.830  1.00  0.00    -0.357 N 
HETATM   10  H   UNL     1     -32.862  39.405 -50.912  1.00  0.00     0.166 HD
HETATM   11  C   UNL     1     -34.657  39.166 -49.805  1.00  0.00     0.043 A 
HETATM   12  C   UNL     1     -35.949  39.636 -50.054  1.00  0.00    -0.001 A 
HETATM   13  C   UNL     1     -34.342  38.378 -48.691  1.00  0.00     0.030 A 
HETATM   14  C   UNL     1     -35.379  38.062 -47.807  1.00  0.00     0.002 A 
HETATM   15  C   UNL     1     -36.677  38.518 -48.029  1.00  0.00     0.001 A 
HETATM   16  C   UNL     1     -36.975  39.304 -49.148  1.00  0.00     0.014 A 
HETATM   17  O   UNL     1     -34.068  40.660 -55.674  1.00  0.00    -0.247 OA
HETATM   18  H   UNL     1     -37.160  40.934 -55.212  1.00  0.00     0.170 HD
ENDROOT
BRANCH   1  19
HETATM   19  C   UNL     1     -36.588  40.674 -57.167  1.00  0.00     0.037 A 
HETATM   20  C   UNL     1     -36.629  39.377 -57.676  1.00  0.00     0.032 A 
HETATM   21  C   UNL     1     -36.955  39.153 -59.018  1.00  0.00     0.039 A 
HETATM   22  C   UNL     1     -37.247  40.225 -59.861  1.00  0.00     0.075 A 
HETATM   23  C   UNL     1     -37.116  41.539 -59.392  1.00  0.00    -0.026 A 
HETATM   24  C   UNL     1     -37.392  42.716 -60.284  1.00  0.00     0.051 C 
HETATM   25  C   UNL     1     -36.804  41.750 -58.038  1.00  0.00     0.039 A 
BRANCH  22  26
HETATM   26  O   UNL     1     -37.627  40.060 -61.166  1.00  0.00    -0.346 OA
BRANCH  26  27
HETATM   27  C   UNL     1     -37.767  38.698 -61.606  1.00  0.00     0.121 C 
HETATM   28  C   UNL     1     -39.218  38.226 -61.509  1.00  0.00     0.040 C 
HETATM   29  C   UNL     1     -37.311  38.665 -63.063  1.00  0.00     0.040 C 
ENDBRANCH  26  27
ENDBRANCH  22  26
ENDBRANCH   1  19
TORSDOF 3
ENDMDL
MODEL 7
REMARK VINA RESULT:      -7.8      3.362      9.823
REMARK  3 active torsions:
REMARK  status: ('A' for Active; 'I' for Inactive)
REMARK    1  A    between atoms: C_3  and  O_4 
REMARK    2  A    between atoms: O_4  and  C_5 
REMARK    3  A    between atoms: C_10  and  N_11 
REMARK       I    between atoms: N_11  and  C_12 
REMARK       I    between atoms: C_12  and  N_13 
ROOT
HETATM    1  N   UNL     1     -42.396  56.708 -57.259  1.00  0.00    -0.309 N 
HETATM    2  C   UNL     1     -43.309  56.785 -56.230  1.00  0.00     0.323 C 
HETATM    3  N   UNL     1     -43.277  55.707 -55.356  1.00  0.00    -0.328 N 
HETATM    4  C   UNL     1     -43.944  55.867 -54.059  1.00  0.00     0.185 C 
HETATM    5  C   UNL     1     -43.017  55.325 -53.021  1.00  0.00     0.035 A 
HETATM    6  C   UNL     1     -41.914  54.519 -53.234  1.00  0.00    -0.020 A 
HETATM    7  C   UNL     1     -41.509  54.108 -54.610  1.00  0.00     0.061 C 
HETATM    8  C   UNL     1     -42.663  54.383 -55.597  1.00  0.00     0.132 C 
HETATM    9  N   UNL     1     -43.112  55.571 -51.681  1.00  0.00    -0.357 N 
HETATM   10  H   UNL     1     -43.812  56.146 -51.234  1.00  0.00     0.166 HD
HETATM   11  C   UNL     1     -42.081  54.938 -51.017  1.00  0.00     0.043 A 
HETATM   12  C   UNL     1     -41.314  54.267 -51.973  1.00  0.00    -0.001 A 
HETATM   13  C   UNL     1     -41.768  54.922 -49.652  1.00  0.00     0.030 A 
HETATM   14  C   UNL     1     -40.640  54.197 -49.254  1.00  0.00     0.002 A 
HETATM   15  C   UNL     1     -39.859  53.516 -50.184  1.00  0.00     0.001 A 
HETATM   16  C   UNL     1     -40.184  53.543 -51.546  1.00  0.00     0.014 A 
HETATM   17  O   UNL     1     -44.072  57.729 -56.043  1.00  0.00    -0.247 OA
HETATM   18  H   UNL     1     -41.640  56.061 -57.113  1.00  0.00     0.170 HD
ENDROOT
BRANCH   1  19
HETATM   19  C   UNL     1     -42.185  57.658 -58.282  1.00  0.00     0.037 A 
HETATM   20  C   UNL     1     -42.245  57.361 -59.643  1.00  0.00     0.032 A 
HETATM   21  C   UNL     1     -42.109  58.376 -60.596  1.00  0.00     0.039 A 
HETATM   22  C   UNL     1     -41.916  59.698 -60.195  1.00  0.00     0.075 A 
HETATM   23  C   UNL     1     -41.756  60.000 -58.836  1.00  0.00    -0.026 A 
HETATM   24  C   UNL     1     -41.515  61.410 -58.375  1.00  0.00     0.051 C 
HETATM   25  C   UNL     1     -41.911  58.975 -57.889  1.00  0.00     0.039 A 
BRANCH  22  26
HETATM   26  O   UNL     1     -41.834  60.737 -61.084  1.00  0.00    -0.346 OA
BRANCH  26  27
HETATM   27  C   UNL     1     -42.923  60.846 -62.016  1.00  0.00     0.121 C 
HETATM   28  C   UNL     1     -44.146  61.502 -61.372  1.00  0.00     0.040 C 
HETATM   29  C   UNL     1     -42.422  61.713 -63.168  1.00  0.00     0.040 C 
ENDBRANCH  26  27
ENDBRANCH  22  26
ENDBRANCH   1  19
TORSDOF 3
ENDMDL
MODEL 8
REMARK VINA RESULT:      -7.7      2.652      3.970
REMARK  3 active torsions:
REMARK  status: ('A' for Active; 'I' for Inactive)
REMARK    1  A    between atoms: C_3  and  O_4 
REMARK    2  A    between atoms: O_4  and  C_5 
REMARK    3  A    between atoms: C_10  and  N_11 
REMARK       I    between atoms: N_11  and  C_12 
REMARK       I    between atoms: C_12  and  N_13 
ROOT
HETATM    1  N   UNL     1     -41.888  55.955 -54.402  1.00  0.00    -0.309 N 
HETATM    2  C   UNL     1     -43.163  56.402 -54.129  1.00  0.00     0.323 C 
HETATM    3  N   UNL     1     -43.506  57.581 -54.776  1.00  0.00    -0.328 N 
HETATM    4  C   UNL     1     -44.929  57.934 -54.833  1.00  0.00     0.185 C 
HETATM    5  C   UNL     1     -45.215  58.374 -56.231  1.00  0.00     0.035 A 
HETATM    6  C   UNL     1     -44.288  58.723 -57.196  1.00  0.00    -0.020 A 
HETATM    7  C   UNL     1     -42.823  58.667 -56.920  1.00  0.00     0.061 C 
HETATM    8  C   UNL     1     -42.583  58.556 -55.399  1.00  0.00     0.132 C 
HETATM    9  N   UNL     1     -46.461  58.477 -56.780  1.00  0.00    -0.357 N 
HETATM   10  H   UNL     1     -47.332  58.267 -56.313  1.00  0.00     0.166 HD
HETATM   11  C   UNL     1     -46.358  58.885 -58.095  1.00  0.00     0.043 A 
HETATM   12  C   UNL     1     -45.000  59.049 -58.380  1.00  0.00    -0.001 A 
HETATM   13  C   UNL     1     -47.361  59.107 -59.047  1.00  0.00     0.030 A 
HETATM   14  C   UNL     1     -46.963  59.510 -60.326  1.00  0.00     0.002 A 
HETATM   15  C   UNL     1     -45.616  59.684 -60.637  1.00  0.00     0.001 A 
HETATM   16  C   UNL     1     -44.626  59.456 -59.675  1.00  0.00     0.014 A 
HETATM   17  O   UNL     1     -43.972  55.813 -53.417  1.00  0.00    -0.247 OA
HETATM   18  H   UNL     1     -41.464  56.347 -55.225  1.00  0.00     0.170 HD
ENDROOT
BRANCH   1  19
HETATM   19  C   UNL     1     -41.274  54.784 -53.909  1.00  0.00     0.037 A 
HETATM   20  C   UNL     1     -40.886  53.712 -54.711  1.00  0.00     0.032 A 
HETATM   21  C   UNL     1     -40.205  52.623 -54.158  1.00  0.00     0.039 A 
HETATM   22  C   UNL     1     -39.902  52.598 -52.797  1.00  0.00     0.075 A 
HETATM   23  C   UNL     1     -40.369  53.620 -51.958  1.00  0.00    -0.026 A 
HETATM   24  C   UNL     1     -40.087  53.606 -50.482  1.00  0.00     0.051 C 
HETATM   25  C   UNL     1     -41.037  54.716 -52.529  1.00  0.00     0.039 A 
BRANCH  22  26
HETATM   26  O   UNL     1     -39.188  51.585 -52.215  1.00  0.00    -0.346 OA
BRANCH  26  27
HETATM   27  C   UNL     1     -39.849  50.310 -52.159  1.00  0.00     0.121 C 
HETATM   28  C   UNL     1     -39.366  49.381 -53.274  1.00  0.00     0.040 C 
HETATM   29  C   UNL     1     -39.507  49.703 -50.800  1.00  0.00     0.040 C 
ENDBRANCH  26  27
ENDBRANCH  22  26
ENDBRANCH   1  19
TORSDOF 3
ENDMDL
MODEL 9
REMARK VINA RESULT:      -7.4      6.679     10.116
REMARK  3 active torsions:
REMARK  status: ('A' for Active; 'I' for Inactive)
REMARK    1  A    between atoms: C_3  and  O_4 
REMARK    2  A    between atoms: O_4  and  C_5 
REMARK    3  A    between atoms: C_10  and  N_11 
REMARK       I    between atoms: N_11  and  C_12 
REMARK       I    between atoms: C_12  and  N_13 
ROOT
HETATM    1  N   UNL     1     -42.947  60.040 -50.677  1.00  0.00    -0.309 N 
HETATM    2  C   UNL     1     -42.184  59.977 -51.823  1.00  0.00     0.323 C 
HETATM    3  N   UNL     1     -41.267  58.936 -51.842  1.00  0.00    -0.328 N 
HETATM    4  C   UNL     1     -40.676  58.577 -53.137  1.00  0.00     0.185 C 
HETATM    5  C   UNL     1     -40.711  57.088 -53.235  1.00  0.00     0.035 A 
HETATM    6  C   UNL     1     -40.923  56.193 -52.202  1.00  0.00    -0.020 A 
HETATM    7  C   UNL     1     -41.173  56.663 -50.809  1.00  0.00     0.061 C 
HETATM    8  C   UNL     1     -40.785  58.152 -50.684  1.00  0.00     0.132 C 
HETATM    9  N   UNL     1     -40.559  56.375 -54.391  1.00  0.00    -0.357 N 
HETATM   10  H   UNL     1     -40.408  56.766 -55.311  1.00  0.00     0.166 HD
HETATM   11  C   UNL     1     -40.673  55.026 -54.125  1.00  0.00     0.043 A 
HETATM   12  C   UNL     1     -40.899  54.885 -52.753  1.00  0.00    -0.001 A 
HETATM   13  C   UNL     1     -40.604  53.930 -54.994  1.00  0.00     0.030 A 
HETATM   14  C   UNL     1     -40.770  52.655 -54.445  1.00  0.00     0.002 A 
HETATM   15  C   UNL     1     -40.994  52.484 -53.080  1.00  0.00     0.001 A 
HETATM   16  C   UNL     1     -41.063  53.590 -52.224  1.00  0.00     0.014 A 
HETATM   17  O   UNL     1     -42.305  60.732 -52.785  1.00  0.00    -0.247 OA
HETATM   18  H   UNL     1     -42.967  59.197 -50.130  1.00  0.00     0.170 HD
ENDROOT
BRANCH   1  19
HETATM   19  C   UNL     1     -43.966  60.972 -50.384  1.00  0.00     0.037 A 
HETATM   20  C   UNL     1     -45.314  60.768 -50.677  1.00  0.00     0.032 A 
HETATM   21  C   UNL     1     -46.275  61.703 -50.277  1.00  0.00     0.039 A 
HETATM   22  C   UNL     1     -45.896  62.848 -49.578  1.00  0.00     0.075 A 
HETATM   23  C   UNL     1     -44.538  63.118 -49.361  1.00  0.00    -0.026 A 
HETATM   24  C   UNL     1     -44.096  64.359 -48.639  1.00  0.00     0.051 C 
HETATM   25  C   UNL     1     -43.585  62.163 -49.753  1.00  0.00     0.039 A 
BRANCH  22  26
HETATM   26  O   UNL     1     -46.800  63.766 -49.113  1.00  0.00    -0.346 OA
BRANCH  26  27
HETATM   27  C   UNL     1     -47.801  63.255 -48.216  1.00  0.00     0.121 C 
HETATM   28  C   UNL     1     -47.411  63.484 -46.755  1.00  0.00     0.040 C 
HETATM   29  C   UNL     1     -49.090  64.011 -48.529  1.00  0.00     0.040 C 
ENDBRANCH  26  27
ENDBRANCH  22  26
ENDBRANCH   1  19
TORSDOF 3
ENDMDL
MODEL 10
REMARK VINA RESULT:      -7.4      6.493      8.297
REMARK  3 active torsions:
REMARK  status: ('A' for Active; 'I' for Inactive)
REMARK    1  A    between atoms: C_3  and  O_4 
REMARK    2  A    between atoms: O_4  and  C_5 
REMARK    3  A    between atoms: C_10  and  N_11 
REMARK       I    between atoms: N_11  and  C_12 
REMARK       I    between atoms: C_12  and  N_13 
ROOT
HETATM    1  N   UNL     1     -41.945  57.473 -52.471  1.00  0.00    -0.309 N 
HETATM    2  C   UNL     1     -41.637  58.268 -51.388  1.00  0.00     0.323 C 
HETATM    3  N   UNL     1     -42.063  59.583 -51.506  1.00  0.00    -0.328 N 
HETATM    4  C   UNL     1     -42.102  60.395 -50.285  1.00  0.00     0.185 C 
HETATM    5  C   UNL     1     -43.402  61.130 -50.289  1.00  0.00     0.035 A 
HETATM    6  C   UNL     1     -44.253  61.303 -51.366  1.00  0.00    -0.020 A 
HETATM    7  C   UNL     1     -43.942  60.717 -52.702  1.00  0.00     0.061 C 
HETATM    8  C   UNL     1     -42.461  60.283 -52.748  1.00  0.00     0.132 C 
HETATM    9  N   UNL     1     -43.966  61.732 -49.200  1.00  0.00    -0.357 N 
HETATM   10  H   UNL     1     -43.576  61.750 -48.268  1.00  0.00     0.166 HD
HETATM   11  C   UNL     1     -45.176  62.293 -49.552  1.00  0.00     0.043 A 
HETATM   12  C   UNL     1     -45.378  62.040 -50.912  1.00  0.00    -0.001 A 
HETATM   13  C   UNL     1     -46.104  62.991 -48.769  1.00  0.00     0.030 A 
HETATM   14  C   UNL     1     -47.271  63.443 -49.395  1.00  0.00     0.002 A 
HETATM   15  C   UNL     1     -47.497  63.207 -50.749  1.00  0.00     0.001 A 
HETATM   16  C   UNL     1     -46.561  62.506 -51.518  1.00  0.00     0.014 A 
HETATM   17  O   UNL     1     -41.076  57.873 -50.370  1.00  0.00    -0.247 OA
HETATM   18  H   UNL     1     -42.665  57.831 -53.075  1.00  0.00     0.170 HD
ENDROOT
BRANCH   1  19
HETATM   19  C   UNL     1     -41.658  56.099 -52.627  1.00  0.00     0.037 A 
HETATM   20  C   UNL     1     -42.014  55.121 -51.700  1.00  0.00     0.032 A 
HETATM   21  C   UNL     1     -41.770  53.770 -51.967  1.00  0.00     0.039 A 
HETATM   22  C   UNL     1     -41.171  53.385 -53.166  1.00  0.00     0.075 A 
HETATM   23  C   UNL     1     -40.718  54.360 -54.065  1.00  0.00    -0.026 A 
HETATM   24  C   UNL     1     -40.039  53.979 -55.350  1.00  0.00     0.051 C 
HETATM   25  C   UNL     1     -40.984  55.712 -53.792  1.00  0.00     0.039 A 
BRANCH  22  26
HETATM   26  O   UNL     1     -40.961  52.074 -53.502  1.00  0.00    -0.346 OA
BRANCH  26  27
HETATM   27  C   UNL     1     -39.654  51.556 -53.203  1.00  0.00     0.121 C 
HETATM   28  C   UNL     1     -39.529  51.172 -51.728  1.00  0.00     0.040 C 
HETATM   29  C   UNL     1     -39.470  50.316 -54.075  1.00  0.00     0.040 C 
ENDBRANCH  26  27
ENDBRANCH  22  26
ENDBRANCH   1  19
TORSDOF 3
ENDMDL
