MODEL 1
REMARK VINA RESULT:      -7.8      0.000      0.000
REMARK  6 active torsions:
REMARK  status: ('A' for Active; 'I' for Inactive)
REMARK    1  A    between atoms: N_2  and  C_4 
REMARK    2  A    between atoms: N_2  and  C_11 
REMARK    3  A    between atoms: C_4  and  C_5 
REMARK    4  A    between atoms: C_5  and  O_6 
REMARK    5  A    between atoms: C_11  and  C_12 
REMARK    6  A    between atoms: C_13  and  C_14 
ROOT
HETATM    1  C   UNL     1     -41.683  54.072 -50.700  1.00  0.00     0.016 A 
HETATM    2  C   UNL     1     -40.444  53.407 -50.991  1.00  0.00     0.102 A 
HETATM    3  N   UNL     1     -39.467  53.852 -50.192  1.00  0.00    -0.174 NA
HETATM    4  N   UNL     1     -40.044  54.749 -49.391  1.00  0.00    -0.288 N 
HETATM    5  H   UNL     1     -39.466  55.207 -48.690  1.00  0.00     0.188 HD
HETATM    6  C   UNL     1     -41.375  54.914 -49.645  1.00  0.00     0.120 A 
ENDROOT
BRANCH   1   7
HETATM    7  C   UNL     1     -42.987  53.833 -51.381  1.00  0.00     0.277 C 
BRANCH   7   8
HETATM    8  N   UNL     1     -43.667  55.066 -51.945  1.00  0.00    -0.068 N 
HETATM    9  C   UNL     1     -44.113  56.001 -50.845  1.00  0.00     0.270 C 
HETATM   10  H   UNL     1     -44.507  54.732 -52.426  1.00  0.00     0.279 HD
BRANCH   8  11
HETATM   11  C   UNL     1     -42.772  55.753 -52.974  1.00  0.00     0.272 C 
BRANCH  11  12
HETATM   12  C   UNL     1     -43.355  55.751 -54.406  1.00  0.00     0.082 C 
HETATM   13  C   UNL     1     -42.795  56.911 -55.233  1.00  0.00     0.039 C 
HETATM   14  C   UNL     1     -43.062  56.500 -56.676  1.00  0.00     0.003 C 
HETATM   15  C   UNL     1     -42.962  54.977 -56.690  1.00  0.00     0.003 C 
HETATM   16  C   UNL     1     -42.974  54.516 -55.229  1.00  0.00     0.039 C 
BRANCH  12  17
HETATM   17  O   UNL     1     -44.778  55.861 -54.331  1.00  0.00    -0.388 OA
HETATM   18  H   UNL     1     -45.184  55.004 -54.565  1.00  0.00     0.210 HD
ENDBRANCH  12  17
ENDBRANCH  11  12
ENDBRANCH   8  11
ENDBRANCH   7   8
ENDBRANCH   1   7
BRANCH   2  19
HETATM   19  C   UNL     1     -40.162  52.379 -51.985  1.00  0.00     0.072 A 
HETATM   20  C   UNL     1     -39.942  51.052 -51.612  1.00  0.00     0.132 A 
HETATM   21  F   UNL     1     -39.950  50.702 -50.316  1.00  0.00    -0.205 F 
HETATM   22  C   UNL     1     -39.688  50.061 -52.562  1.00  0.00     0.043 A 
HETATM   23  C   UNL     1     -39.656  50.392 -53.916  1.00  0.00     0.006 A 
HETATM   24  C   UNL     1     -39.870  51.712 -54.308  1.00  0.00     0.043 A 
HETATM   25  C   UNL     1     -40.120  52.692 -53.347  1.00  0.00     0.132 A 
HETATM   26  F   UNL     1     -40.276  53.958 -53.763  1.00  0.00    -0.205 F 
ENDBRANCH   2  19
TORSDOF 6
ENDMDL
MODEL 2
REMARK VINA RESULT:      -7.8      0.203      1.731
REMARK  6 active torsions:
REMARK  status: ('A' for Active; 'I' for Inactive)
REMARK    1  A    between atoms: N_2  and  C_4 
REMARK    2  A    between atoms: N_2  and  C_11 
REMARK    3  A    between atoms: C_4  and  C_5 
REMARK    4  A    between atoms: C_5  and  O_6 
REMARK    5  A    between atoms: C_11  and  C_12 
REMARK    6  A    between atoms: C_13  and  C_14 
ROOT
HETATM    1  C   UNL     1     -41.646  54.093 -50.701  1.00  0.00     0.016 A 
HETATM    2  C   UNL     1     -40.426  53.370 -50.924  1.00  0.00     0.102 A 
HETATM    3  N   UNL     1     -39.444  53.843 -50.147  1.00  0.00    -0.174 NA
HETATM    4  N   UNL     1     -40.001  54.816 -49.424  1.00  0.00    -0.288 N 
HETATM    5  H   UNL     1     -39.417  55.307 -48.752  1.00  0.00     0.188 HD
HETATM    6  C   UNL     1     -41.324  55.003 -49.708  1.00  0.00     0.120 A 
ENDROOT
BRANCH   1   7
HETATM    7  C   UNL     1     -42.949  53.845 -51.379  1.00  0.00     0.277 C 
BRANCH   7   8
HETATM    8  N   UNL     1     -43.621  55.067 -51.975  1.00  0.00    -0.068 N 
HETATM    9  C   UNL     1     -44.071  56.028 -50.899  1.00  0.00     0.270 C 
HETATM   10  H   UNL     1     -44.460  54.725 -52.455  1.00  0.00     0.279 HD
BRANCH   8  11
HETATM   11  C   UNL     1     -42.718  55.728 -53.014  1.00  0.00     0.272 C 
BRANCH  11  12
HETATM   12  C   UNL     1     -43.319  55.749 -54.438  1.00  0.00     0.082 C 
HETATM   13  C   UNL     1     -42.815  56.957 -55.233  1.00  0.00     0.039 C 
HETATM   14  C   UNL     1     -43.084  56.582 -56.686  1.00  0.00     0.003 C 
HETATM   15  C   UNL     1     -42.926  55.066 -56.751  1.00  0.00     0.003 C 
HETATM   16  C   UNL     1     -42.901  54.558 -55.306  1.00  0.00     0.039 C 
BRANCH  12  17
HETATM   17  O   UNL     1     -44.744  55.802 -54.343  1.00  0.00    -0.388 OA
HETATM   18  H   UNL     1     -45.093  56.407 -55.026  1.00  0.00     0.210 HD
ENDBRANCH  12  17
ENDBRANCH  11  12
ENDBRANCH   8  11
ENDBRANCH   7   8
ENDBRANCH   1   7
BRANCH   2  19
HETATM   19  C   UNL     1     -40.167  52.261 -51.834  1.00  0.00     0.072 A 
HETATM   20  C   UNL     1     -40.082  52.460 -53.213  1.00  0.00     0.132 A 
HETATM   21  F   UNL     1     -40.276  53.681 -53.735  1.00  0.00    -0.205 F 
HETATM   22  C   UNL     1     -39.817  51.404 -54.086  1.00  0.00     0.043 A 
HETATM   23  C   UNL     1     -39.627  50.119 -53.580  1.00  0.00     0.006 A 
HETATM   24  C   UNL     1     -39.711  49.899 -52.206  1.00  0.00     0.043 A 
HETATM   25  C   UNL     1     -39.979  50.965 -51.346  1.00  0.00     0.132 A 
HETATM   26  F   UNL     1     -40.097  50.703 -50.036  1.00  0.00    -0.205 F 
ENDBRANCH   2  19
TORSDOF 6
ENDMDL
MODEL 3
REMARK VINA RESULT:      -7.6      1.759      2.996
REMARK  6 active torsions:
REMARK  status: ('A' for Active; 'I' for Inactive)
REMARK    1  A    between atoms: N_2  and  C_4 
REMARK    2  A    between atoms: N_2  and  C_11 
REMARK    3  A    between atoms: C_4  and  C_5 
REMARK    4  A    between atoms: C_5  and  O_6 
REMARK    5  A    between atoms: C_11  and  C_12 
REMARK    6  A    between atoms: C_13  and  C_14 
ROOT
HETATM    1  C   UNL     1     -41.344  54.122 -50.961  1.00  0.00     0.016 A 
HETATM    2  C   UNL     1     -40.217  53.253 -51.150  1.00  0.00     0.102 A 
HETATM    3  N   UNL     1     -39.235  53.555 -50.291  1.00  0.00    -0.174 NA
HETATM    4  N   UNL     1     -39.708  54.559 -49.551  1.00  0.00    -0.288 N 
HETATM    5  H   UNL     1     -39.111  54.936 -48.819  1.00  0.00     0.188 HD
HETATM    6  C   UNL     1     -40.973  54.934 -49.903  1.00  0.00     0.120 A 
ENDROOT
BRANCH   1   7
HETATM    7  C   UNL     1     -42.621  54.081 -51.729  1.00  0.00     0.277 C 
BRANCH   7   8
HETATM    8  N   UNL     1     -42.779  55.148 -52.795  1.00  0.00    -0.068 N 
HETATM    9  C   UNL     1     -43.497  54.609 -54.011  1.00  0.00     0.270 C 
HETATM   10  H   UNL     1     -41.830  55.404 -53.084  1.00  0.00     0.279 HD
BRANCH   8  11
HETATM   11  C   UNL     1     -43.451  56.392 -52.219  1.00  0.00     0.272 C 
BRANCH  11  12
HETATM   12  C   UNL     1     -42.530  57.633 -52.175  1.00  0.00     0.082 C 
HETATM   13  C   UNL     1     -41.165  57.331 -52.799  1.00  0.00     0.039 C 
HETATM   14  C   UNL     1     -40.590  58.706 -53.115  1.00  0.00     0.003 C 
HETATM   15  C   UNL     1     -41.793  59.583 -53.449  1.00  0.00     0.003 C 
HETATM   16  C   UNL     1     -43.042  58.815 -53.004  1.00  0.00     0.039 C 
BRANCH  12  17
HETATM   17  O   UNL     1     -42.354  58.037 -50.815  1.00  0.00    -0.388 OA
HETATM   18  H   UNL     1     -41.635  57.513 -50.411  1.00  0.00     0.210 HD
ENDBRANCH  12  17
ENDBRANCH  11  12
ENDBRANCH   8  11
ENDBRANCH   7   8
ENDBRANCH   1   7
BRANCH   2  19
HETATM   19  C   UNL     1     -40.044  52.163 -52.102  1.00  0.00     0.072 A 
HETATM   20  C   UNL     1     -40.036  52.397 -53.478  1.00  0.00     0.132 A 
HETATM   21  F   UNL     1     -40.224  53.636 -53.956  1.00  0.00    -0.205 F 
HETATM   22  C   UNL     1     -39.853  51.357 -54.392  1.00  0.00     0.043 A 
HETATM   23  C   UNL     1     -39.671  50.054 -53.931  1.00  0.00     0.006 A 
HETATM   24  C   UNL     1     -39.680  49.800 -52.561  1.00  0.00     0.043 A 
HETATM   25  C   UNL     1     -39.866  50.849 -51.659  1.00  0.00     0.132 A 
HETATM   26  F   UNL     1     -39.913  50.555 -50.351  1.00  0.00    -0.205 F 
ENDBRANCH   2  19
TORSDOF 6
ENDMDL
MODEL 4
REMARK VINA RESULT:      -7.6      1.739      2.435
REMARK  6 active torsions:
REMARK  status: ('A' for Active; 'I' for Inactive)
REMARK    1  A    between atoms: N_2  and  C_4 
REMARK    2  A    between atoms: N_2  and  C_11 
REMARK    3  A    between atoms: C_4  and  C_5 
REMARK    4  A    between atoms: C_5  and  O_6 
REMARK    5  A    between atoms: C_11  and  C_12 
REMARK    6  A    between atoms: C_13  and  C_14 
ROOT
HETATM    1  C   UNL     1     -41.390  54.138 -50.987  1.00  0.00     0.016 A 
HETATM    2  C   UNL     1     -40.249  53.287 -51.175  1.00  0.00     0.102 A 
HETATM    3  N   UNL     1     -39.282  53.588 -50.300  1.00  0.00    -0.174 NA
HETATM    4  N   UNL     1     -39.776  54.575 -49.551  1.00  0.00    -0.288 N 
HETATM    5  H   UNL     1     -39.192  54.948 -48.807  1.00  0.00     0.188 HD
HETATM    6  C   UNL     1     -41.042  54.938 -49.912  1.00  0.00     0.120 A 
ENDROOT
BRANCH   1   7
HETATM    7  C   UNL     1     -42.657  54.092 -51.769  1.00  0.00     0.277 C 
BRANCH   7   8
HETATM    8  N   UNL     1     -42.807  55.159 -52.836  1.00  0.00    -0.068 N 
HETATM    9  C   UNL     1     -43.524  54.624 -54.055  1.00  0.00     0.270 C 
HETATM   10  H   UNL     1     -41.857  55.411 -53.122  1.00  0.00     0.279 HD
BRANCH   8  11
HETATM   11  C   UNL     1     -43.476  56.407 -52.262  1.00  0.00     0.272 C 
BRANCH  11  12
HETATM   12  C   UNL     1     -42.551  57.645 -52.221  1.00  0.00     0.082 C 
HETATM   13  C   UNL     1     -41.175  57.327 -52.809  1.00  0.00     0.039 C 
HETATM   14  C   UNL     1     -40.587  58.694 -53.138  1.00  0.00     0.003 C 
HETATM   15  C   UNL     1     -41.780  59.569 -53.514  1.00  0.00     0.003 C 
HETATM   16  C   UNL     1     -43.040  58.813 -53.082  1.00  0.00     0.039 C 
BRANCH  12  17
HETATM   17  O   UNL     1     -42.403  58.073 -50.865  1.00  0.00    -0.388 OA
HETATM   18  H   UNL     1     -41.727  58.776 -50.818  1.00  0.00     0.210 HD
ENDBRANCH  12  17
ENDBRANCH  11  12
ENDBRANCH   8  11
ENDBRANCH   7   8
ENDBRANCH   1   7
BRANCH   2  19
HETATM   19  C   UNL     1     -40.051  52.213 -52.141  1.00  0.00     0.072 A 
HETATM   20  C   UNL     1     -39.859  50.894 -51.728  1.00  0.00     0.132 A 
HETATM   21  F   UNL     1     -39.817  50.592 -50.421  1.00  0.00    -0.205 F 
HETATM   22  C   UNL     1     -39.685  49.860 -52.650  1.00  0.00     0.043 A 
HETATM   23  C   UNL     1     -39.707  50.140 -54.015  1.00  0.00     0.006 A 
HETATM   24  C   UNL     1     -39.894  51.451 -54.447  1.00  0.00     0.043 A 
HETATM   25  C   UNL     1     -40.063  52.475 -53.514  1.00  0.00     0.132 A 
HETATM   26  F   UNL     1     -40.195  53.729 -53.970  1.00  0.00    -0.205 F 
ENDBRANCH   2  19
TORSDOF 6
ENDMDL
MODEL 5
REMARK VINA RESULT:      -7.5      1.865      2.680
REMARK  6 active torsions:
REMARK  status: ('A' for Active; 'I' for Inactive)
REMARK    1  A    between atoms: N_2  and  C_4 
REMARK    2  A    between atoms: N_2  and  C_11 
REMARK    3  A    between atoms: C_4  and  C_5 
REMARK    4  A    between atoms: C_5  and  O_6 
REMARK    5  A    between atoms: C_11  and  C_12 
REMARK    6  A    between atoms: C_13  and  C_14 
ROOT
HETATM    1  C   UNL     1     -42.446  55.796 -52.042  1.00  0.00     0.016 A 
HETATM    2  C   UNL     1     -42.415  54.365 -51.937  1.00  0.00     0.102 A 
HETATM    3  N   UNL     1     -43.477  53.915 -51.257  1.00  0.00    -0.174 NA
HETATM    4  N   UNL     1     -44.190  55.001 -50.954  1.00  0.00    -0.288 N 
HETATM    5  H   UNL     1     -45.057  54.875 -50.437  1.00  0.00     0.188 HD
HETATM    6  C   UNL     1     -43.623  56.157 -51.409  1.00  0.00     0.120 A 
ENDROOT
BRANCH   1   7
HETATM    7  C   UNL     1     -41.436  56.646 -52.733  1.00  0.00     0.277 C 
BRANCH   7   8
HETATM    8  N   UNL     1     -41.941  57.417 -53.937  1.00  0.00    -0.068 N 
HETATM    9  C   UNL     1     -41.374  58.818 -53.972  1.00  0.00     0.270 C 
HETATM   10  H   UNL     1     -42.956  57.497 -53.818  1.00  0.00     0.279 HD
BRANCH   8  11
HETATM   11  C   UNL     1     -41.675  56.642 -55.226  1.00  0.00     0.272 C 
BRANCH  11  12
HETATM   12  C   UNL     1     -42.887  56.594 -56.185  1.00  0.00     0.082 C 
HETATM   13  C   UNL     1     -42.929  57.832 -57.084  1.00  0.00     0.039 C 
HETATM   14  C   UNL     1     -43.832  57.419 -58.240  1.00  0.00     0.003 C 
HETATM   15  C   UNL     1     -43.600  55.922 -58.422  1.00  0.00     0.003 C 
HETATM   16  C   UNL     1     -42.841  55.434 -57.184  1.00  0.00     0.039 C 
BRANCH  12  17
HETATM   17  O   UNL     1     -44.089  56.522 -55.415  1.00  0.00    -0.388 OA
HETATM   18  H   UNL     1     -43.972  55.879 -54.689  1.00  0.00     0.210 HD
ENDBRANCH  12  17
ENDBRANCH  11  12
ENDBRANCH   8  11
ENDBRANCH   7   8
ENDBRANCH   1   7
BRANCH   2  19
HETATM   19  C   UNL     1     -41.428  53.424 -52.453  1.00  0.00     0.072 A 
HETATM   20  C   UNL     1     -40.418  52.913 -51.636  1.00  0.00     0.132 A 
HETATM   21  F   UNL     1     -40.315  53.308 -50.357  1.00  0.00    -0.205 F 
HETATM   22  C   UNL     1     -39.482  51.999 -52.122  1.00  0.00     0.043 A 
HETATM   23  C   UNL     1     -39.549  51.579 -53.450  1.00  0.00     0.006 A 
HETATM   24  C   UNL     1     -40.548  52.081 -54.282  1.00  0.00     0.043 A 
HETATM   25  C   UNL     1     -41.476  52.996 -53.782  1.00  0.00     0.132 A 
HETATM   26  F   UNL     1     -42.393  53.489 -54.628  1.00  0.00    -0.205 F 
ENDBRANCH   2  19
TORSDOF 6
ENDMDL
MODEL 6
REMARK VINA RESULT:      -7.5      1.865      3.064
REMARK  6 active torsions:
REMARK  status: ('A' for Active; 'I' for Inactive)
REMARK    1  A    between atoms: N_2  and  C_4 
REMARK    2  A    between atoms: N_2  and  C_11 
REMARK    3  A    between atoms: C_4  and  C_5 
REMARK    4  A    between atoms: C_5  and  O_6 
REMARK    5  A    between atoms: C_11  and  C_12 
REMARK    6  A    between atoms: C_13  and  C_14 
ROOT
HETATM    1  C   UNL     1     -42.453  55.801 -52.064  1.00  0.00     0.016 A 
HETATM    2  C   UNL     1     -42.432  54.371 -51.941  1.00  0.00     0.102 A 
HETATM    3  N   UNL     1     -43.492  53.938 -51.248  1.00  0.00    -0.174 NA
HETATM    4  N   UNL     1     -44.194  55.034 -50.952  1.00  0.00    -0.288 N 
HETATM    5  H   UNL     1     -45.057  54.922 -50.426  1.00  0.00     0.188 HD
HETATM    6  C   UNL     1     -43.621  56.179 -51.426  1.00  0.00     0.120 A 
ENDROOT
BRANCH   1   7
HETATM    7  C   UNL     1     -41.442  56.635 -52.774  1.00  0.00     0.277 C 
BRANCH   7   8
HETATM    8  N   UNL     1     -41.959  57.422 -53.962  1.00  0.00    -0.068 N 
HETATM    9  C   UNL     1     -41.401  58.827 -53.977  1.00  0.00     0.270 C 
HETATM   10  H   UNL     1     -42.973  57.494 -53.836  1.00  0.00     0.279 HD
BRANCH   8  11
HETATM   11  C   UNL     1     -41.696  56.671 -55.265  1.00  0.00     0.272 C 
BRANCH  11  12
HETATM   12  C   UNL     1     -42.922  56.603 -56.204  1.00  0.00     0.082 C 
HETATM   13  C   UNL     1     -43.020  57.857 -57.077  1.00  0.00     0.039 C 
HETATM   14  C   UNL     1     -43.930  57.438 -58.225  1.00  0.00     0.003 C 
HETATM   15  C   UNL     1     -43.655  55.953 -58.442  1.00  0.00     0.003 C 
HETATM   16  C   UNL     1     -42.859  55.466 -57.227  1.00  0.00     0.039 C 
BRANCH  12  17
HETATM   17  O   UNL     1     -44.108  56.478 -55.414  1.00  0.00    -0.388 OA
HETATM   18  H   UNL     1     -43.977  55.783 -54.739  1.00  0.00     0.210 HD
ENDBRANCH  12  17
ENDBRANCH  11  12
ENDBRANCH   8  11
ENDBRANCH   7   8
ENDBRANCH   1   7
BRANCH   2  19
HETATM   19  C   UNL     1     -41.458  53.417 -52.454  1.00  0.00     0.072 A 
HETATM   20  C   UNL     1     -41.466  53.022 -53.794  1.00  0.00     0.132 A 
HETATM   21  F   UNL     1     -42.402  53.491 -54.633  1.00  0.00    -0.205 F 
HETATM   22  C   UNL     1     -40.524  52.121 -54.293  1.00  0.00     0.043 A 
HETATM   23  C   UNL     1     -39.546  51.601 -53.445  1.00  0.00     0.006 A 
HETATM   24  C   UNL     1     -39.524  51.980 -52.104  1.00  0.00     0.043 A 
HETATM   25  C   UNL     1     -40.474  52.880 -51.619  1.00  0.00     0.132 A 
HETATM   26  F   UNL     1     -40.445  53.184 -50.313  1.00  0.00    -0.205 F 
ENDBRANCH   2  19
TORSDOF 6
ENDMDL
MODEL 7
REMARK VINA RESULT:      -7.4      2.224      3.392
REMARK  6 active torsions:
REMARK  status: ('A' for Active; 'I' for Inactive)
REMARK    1  A    between atoms: N_2  and  C_4 
REMARK    2  A    between atoms: N_2  and  C_11 
REMARK    3  A    between atoms: C_4  and  C_5 
REMARK    4  A    between atoms: C_5  and  O_6 
REMARK    5  A    between atoms: C_11  and  C_12 
REMARK    6  A    between atoms: C_13  and  C_14 
ROOT
HETATM    1  C   UNL     1     -42.261  55.740 -51.257  1.00  0.00     0.016 A 
HETATM    2  C   UNL     1     -42.429  54.371 -51.655  1.00  0.00     0.102 A 
HETATM    3  N   UNL     1     -43.670  53.947 -51.389  1.00  0.00    -0.174 NA
HETATM    4  N   UNL     1     -44.299  55.000 -50.864  1.00  0.00    -0.288 N 
HETATM    5  H   UNL     1     -45.274  54.890 -50.596  1.00  0.00     0.188 HD
HETATM    6  C   UNL     1     -43.504  56.106 -50.771  1.00  0.00     0.120 A 
ENDROOT
BRANCH   1   7
HETATM    7  C   UNL     1     -41.019  56.549 -51.404  1.00  0.00     0.277 C 
BRANCH   7   8
HETATM    8  N   UNL     1     -41.228  58.028 -51.666  1.00  0.00    -0.068 N 
HETATM    9  C   UNL     1     -40.605  58.874 -50.579  1.00  0.00     0.270 C 
HETATM   10  H   UNL     1     -42.240  58.182 -51.636  1.00  0.00     0.279 HD
BRANCH   8  11
HETATM   11  C   UNL     1     -40.732  58.405 -53.061  1.00  0.00     0.272 C 
BRANCH  11  12
HETATM   12  C   UNL     1     -41.847  58.431 -54.131  1.00  0.00     0.082 C 
HETATM   13  C   UNL     1     -41.957  57.083 -54.848  1.00  0.00     0.039 C 
HETATM   14  C   UNL     1     -43.344  57.111 -55.479  1.00  0.00     0.003 C 
HETATM   15  C   UNL     1     -44.206  57.936 -54.529  1.00  0.00     0.003 C 
HETATM   16  C   UNL     1     -43.252  58.641 -53.559  1.00  0.00     0.039 C 
BRANCH  12  17
HETATM   17  O   UNL     1     -41.555  59.456 -55.085  1.00  0.00    -0.388 OA
HETATM   18  H   UNL     1     -40.591  59.492 -55.238  1.00  0.00     0.210 HD
ENDBRANCH  12  17
ENDBRANCH  11  12
ENDBRANCH   8  11
ENDBRANCH   7   8
ENDBRANCH   1   7
BRANCH   2  19
HETATM   19  C   UNL     1     -41.466  53.467 -52.273  1.00  0.00     0.072 A 
HETATM   20  C   UNL     1     -41.478  53.226 -53.648  1.00  0.00     0.132 A 
HETATM   21  F   UNL     1     -42.406  53.799 -54.429  1.00  0.00    -0.205 F 
HETATM   22  C   UNL     1     -40.548  52.374 -54.245  1.00  0.00     0.043 A 
HETATM   23  C   UNL     1     -39.579  51.748 -53.462  1.00  0.00     0.006 A 
HETATM   24  C   UNL     1     -39.553  51.973 -52.087  1.00  0.00     0.043 A 
HETATM   25  C   UNL     1     -40.492  52.825 -51.503  1.00  0.00     0.132 A 
HETATM   26  F   UNL     1     -40.461  52.979 -50.171  1.00  0.00    -0.205 F 
ENDBRANCH   2  19
TORSDOF 6
ENDMDL
MODEL 8
REMARK VINA RESULT:      -6.9     13.718     15.949
REMARK  6 active torsions:
REMARK  status: ('A' for Active; 'I' for Inactive)
REMARK    1  A    between atoms: N_2  and  C_4 
REMARK    2  A    between atoms: N_2  and  C_11 
REMARK    3  A    between atoms: C_4  and  C_5 
REMARK    4  A    between atoms: C_5  and  O_6 
REMARK    5  A    between atoms: C_11  and  C_12 
REMARK    6  A    between atoms: C_13  and  C_14 
ROOT
HETATM    1  C   UNL     1     -35.091  40.739 -52.516  1.00  0.00     0.016 A 
HETATM    2  C   UNL     1     -35.597  41.792 -53.351  1.00  0.00     0.102 A 
HETATM    3  N   UNL     1     -35.329  42.991 -52.818  1.00  0.00    -0.174 NA
HETATM    4  N   UNL     1     -34.653  42.737 -51.696  1.00  0.00    -0.288 N 
HETATM    5  H   UNL     1     -34.342  43.527 -51.136  1.00  0.00     0.188 HD
HETATM    6  C   UNL     1     -34.472  41.403 -51.471  1.00  0.00     0.120 A 
ENDROOT
BRANCH   1   7
HETATM    7  C   UNL     1     -35.195  39.278 -52.789  1.00  0.00     0.277 C 
BRANCH   7   8
HETATM    8  N   UNL     1     -33.937  38.620 -53.322  1.00  0.00    -0.068 N 
HETATM    9  C   UNL     1     -33.950  37.128 -53.079  1.00  0.00     0.270 C 
HETATM   10  H   UNL     1     -33.159  39.014 -52.783  1.00  0.00     0.279 HD
BRANCH   8  11
HETATM   11  C   UNL     1     -33.722  38.974 -54.792  1.00  0.00     0.272 C 
BRANCH  11  12
HETATM   12  C   UNL     1     -32.318  39.545 -55.096  1.00  0.00     0.082 C 
HETATM   13  C   UNL     1     -31.245  38.456 -54.998  1.00  0.00     0.039 C 
HETATM   14  C   UNL     1     -30.063  39.030 -55.768  1.00  0.00     0.003 C 
HETATM   15  C   UNL     1     -30.675  39.889 -56.871  1.00  0.00     0.003 C 
HETATM   16  C   UNL     1     -32.157  40.068 -56.526  1.00  0.00     0.039 C 
BRANCH  12  17
HETATM   17  O   UNL     1     -32.026  40.588 -54.163  1.00  0.00    -0.388 OA
HETATM   18  H   UNL     1     -32.524  40.433 -53.337  1.00  0.00     0.210 HD
ENDBRANCH  12  17
ENDBRANCH  11  12
ENDBRANCH   8  11
ENDBRANCH   7   8
ENDBRANCH   1   7
BRANCH   2  19
HETATM   19  C   UNL     1     -36.311  41.700 -54.618  1.00  0.00     0.072 A 
HETATM   20  C   UNL     1     -35.685  42.013 -55.826  1.00  0.00     0.132 A 
HETATM   21  F   UNL     1     -34.414  42.442 -55.841  1.00  0.00    -0.205 F 
HETATM   22  C   UNL     1     -36.361  41.910 -57.043  1.00  0.00     0.043 A 
HETATM   23  C   UNL     1     -37.688  41.483 -57.065  1.00  0.00     0.006 A 
HETATM   24  C   UNL     1     -38.331  41.170 -55.869  1.00  0.00     0.043 A 
HETATM   25  C   UNL     1     -37.643  41.280 -54.659  1.00  0.00     0.132 A 
HETATM   26  F   UNL     1     -38.312  41.013 -53.528  1.00  0.00    -0.205 F 
ENDBRANCH   2  19
TORSDOF 6
ENDMDL
MODEL 9
REMARK VINA RESULT:      -6.9      2.856      4.643
REMARK  6 active torsions:
REMARK  status: ('A' for Active; 'I' for Inactive)
REMARK    1  A    between atoms: N_2  and  C_4 
REMARK    2  A    between atoms: N_2  and  C_11 
REMARK    3  A    between atoms: C_4  and  C_5 
REMARK    4  A    between atoms: C_5  and  O_6 
REMARK    5  A    between atoms: C_11  and  C_12 
REMARK    6  A    between atoms: C_13  and  C_14 
ROOT
HETATM    1  C   UNL     1     -42.794  56.238 -53.498  1.00  0.00     0.016 A 
HETATM    2  C   UNL     1     -42.762  54.804 -53.445  1.00  0.00     0.102 A 
HETATM    3  N   UNL     1     -43.810  54.280 -54.092  1.00  0.00    -0.174 NA
HETATM    4  N   UNL     1     -44.488  55.324 -54.573  1.00  0.00    -0.288 N 
HETATM    5  H   UNL     1     -45.329  55.140 -55.114  1.00  0.00     0.188 HD
HETATM    6  C   UNL     1     -43.918  56.523 -54.255  1.00  0.00     0.120 A 
ENDROOT
BRANCH   1   7
HETATM    7  C   UNL     1     -41.791  57.160 -52.897  1.00  0.00     0.277 C 
BRANCH   7   8
HETATM    8  N   UNL     1     -42.127  57.683 -51.514  1.00  0.00    -0.068 N 
HETATM    9  C   UNL     1     -40.956  57.536 -50.569  1.00  0.00     0.270 C 
HETATM   10  H   UNL     1     -42.885  57.090 -51.162  1.00  0.00     0.279 HD
BRANCH   8  11
HETATM   11  C   UNL     1     -42.645  59.118 -51.589  1.00  0.00     0.272 C 
BRANCH  11  12
HETATM   12  C   UNL     1     -44.147  59.257 -51.248  1.00  0.00     0.082 C 
HETATM   13  C   UNL     1     -44.403  60.484 -50.370  1.00  0.00     0.039 C 
HETATM   14  C   UNL     1     -45.895  60.749 -50.530  1.00  0.00     0.003 C 
HETATM   15  C   UNL     1     -46.235  60.311 -51.951  1.00  0.00     0.003 C 
HETATM   16  C   UNL     1     -45.039  59.505 -52.468  1.00  0.00     0.039 C 
BRANCH  12  17
HETATM   17  O   UNL     1     -44.580  58.080 -50.563  1.00  0.00    -0.388 OA
HETATM   18  H   UNL     1     -44.377  58.165 -49.611  1.00  0.00     0.210 HD
ENDBRANCH  12  17
ENDBRANCH  11  12
ENDBRANCH   8  11
ENDBRANCH   7   8
ENDBRANCH   1   7
BRANCH   2  19
HETATM   19  C   UNL     1     -41.783  53.928 -52.814  1.00  0.00     0.072 A 
HETATM   20  C   UNL     1     -41.720  53.793 -51.426  1.00  0.00     0.132 A 
HETATM   21  F   UNL     1     -42.544  54.501 -50.638  1.00  0.00    -0.205 F 
HETATM   22  C   UNL     1     -40.795  52.942 -50.818  1.00  0.00     0.043 A 
HETATM   23  C   UNL     1     -39.913  52.203 -51.605  1.00  0.00     0.006 A 
HETATM   24  C   UNL     1     -39.957  52.327 -52.993  1.00  0.00     0.043 A 
HETATM   25  C   UNL     1     -40.886  53.184 -53.586  1.00  0.00     0.132 A 
HETATM   26  F   UNL     1     -40.866  53.308 -54.921  1.00  0.00    -0.205 F 
ENDBRANCH   2  19
TORSDOF 6
ENDMDL
MODEL 10
REMARK VINA RESULT:      -6.9     13.700     15.806
REMARK  6 active torsions:
REMARK  status: ('A' for Active; 'I' for Inactive)
REMARK    1  A    between atoms: N_2  and  C_4 
REMARK    2  A    between atoms: N_2  and  C_11 
REMARK    3  A    between atoms: C_4  and  C_5 
REMARK    4  A    between atoms: C_5  and  O_6 
REMARK    5  A    between atoms: C_11  and  C_12 
REMARK    6  A    between atoms: C_13  and  C_14 
ROOT
HETATM    1  C   UNL     1     -36.849  39.651 -52.690  1.00  0.00     0.016 A 
HETATM    2  C   UNL     1     -37.296  40.657 -53.612  1.00  0.00     0.102 A 
HETATM    3  N   UNL     1     -38.459  41.185 -53.212  1.00  0.00    -0.174 NA
HETATM    4  N   UNL     1     -38.751  40.573 -52.063  1.00  0.00    -0.288 N 
HETATM    5  H   UNL     1     -39.606  40.841 -51.582  1.00  0.00     0.188 HD
HETATM    6  C   UNL     1     -37.815  39.649 -51.697  1.00  0.00     0.120 A 
ENDROOT
BRANCH   1   7
HETATM    7  C   UNL     1     -35.596  38.854 -52.802  1.00  0.00     0.277 C 
BRANCH   7   8
HETATM    8  N   UNL     1     -34.311  39.610 -52.527  1.00  0.00    -0.068 N 
HETATM    9  C   UNL     1     -34.119  39.853 -51.047  1.00  0.00     0.270 C 
HETATM   10  H   UNL     1     -34.417  40.524 -52.979  1.00  0.00     0.279 HD
BRANCH   8  11
HETATM   11  C   UNL     1     -33.119  38.901 -53.166  1.00  0.00     0.272 C 
BRANCH  11  12
HETATM   12  C   UNL     1     -32.540  39.641 -54.394  1.00  0.00     0.082 C 
HETATM   13  C   UNL     1     -31.165  39.086 -54.776  1.00  0.00     0.039 C 
HETATM   14  C   UNL     1     -30.966  39.546 -56.215  1.00  0.00     0.003 C 
HETATM   15  C   UNL     1     -32.363  39.572 -56.830  1.00  0.00     0.003 C 
HETATM   16  C   UNL     1     -33.361  39.456 -55.673  1.00  0.00     0.039 C 
BRANCH  12  17
HETATM   17  O   UNL     1     -32.425  41.033 -54.089  1.00  0.00    -0.388 OA
HETATM   18  H   UNL     1     -32.974  41.241 -53.309  1.00  0.00     0.210 HD
ENDBRANCH  12  17
ENDBRANCH  11  12
ENDBRANCH   8  11
ENDBRANCH   7   8
ENDBRANCH   1   7
BRANCH   2  19
HETATM   19  C   UNL     1     -36.664  41.128 -54.838  1.00  0.00     0.072 A 
HETATM   20  C   UNL     1     -36.963  40.553 -56.074  1.00  0.00     0.132 A 
HETATM   21  F   UNL     1     -37.819  39.522 -56.153  1.00  0.00    -0.205 F 
HETATM   22  C   UNL     1     -36.372  41.012 -57.252  1.00  0.00     0.043 A 
HETATM   23  C   UNL     1     -35.466  42.070 -57.206  1.00  0.00     0.006 A 
HETATM   24  C   UNL     1     -35.151  42.655 -55.980  1.00  0.00     0.043 A 
HETATM   25  C   UNL     1     -35.748  42.184 -54.810  1.00  0.00     0.132 A 
HETATM   26  F   UNL     1     -35.384  42.744 -53.647  1.00  0.00    -0.205 F 
ENDBRANCH   2  19
TORSDOF 6
ENDMDL
