MODEL 1
REMARK VINA RESULT:      -8.6      0.000      0.000
REMARK  5 active torsions:
REMARK  status: ('A' for Active; 'I' for Inactive)
REMARK    1  A    between atoms: C_6  and  N_7 
REMARK       I    between atoms: N_7  and  C_8 
REMARK       I    between atoms: C_8  and  N_9 
REMARK    2  A    between atoms: N_9  and  C_10 
REMARK    3  A    between atoms: C_13  and  C_14 
REMARK       I    between atoms: C_14  and  N_15 
REMARK    4  A    between atoms: N_15  and  C_16 
REMARK    5  A    between atoms: C_16  and  C_17 
ROOT
HETATM    1  C   UNL     1     -42.219  58.892 -55.198  1.00  0.00     0.175 A 
HETATM    2  S   UNL     1     -42.366  60.195 -54.110  1.00  0.00    -0.061 SA
HETATM    3  C   UNL     1     -42.531  59.078 -52.828  1.00  0.00     0.090 A 
HETATM    4  C   UNL     1     -42.435  57.780 -53.305  1.00  0.00     0.133 A 
HETATM    5  N   UNL     1     -42.283  57.679 -54.698  1.00  0.00    -0.218 NA
ENDROOT
BRANCH   1   6
HETATM    6  N   UNL     1     -42.043  59.276 -56.492  1.00  0.00    -0.287 N 
HETATM    7  C   UNL     1     -42.535  58.673 -57.610  1.00  0.00     0.326 C 
HETATM    8  N   UNL     1     -43.379  57.611 -57.425  1.00  0.00    -0.309 N 
HETATM    9  O   UNL     1     -42.209  59.152 -58.695  1.00  0.00    -0.247 OA
HETATM   10  H   UNL     1     -43.576  57.388 -56.455  1.00  0.00     0.170 HD
HETATM   11  H   UNL     1     -41.479  60.093 -56.665  1.00  0.00     0.172 HD
BRANCH   8  12
HETATM   12  C   UNL     1     -44.053  56.859 -58.408  1.00  0.00     0.037 A 
HETATM   13  C   UNL     1     -45.232  57.272 -59.034  1.00  0.00     0.053 A 
HETATM   14  C   UNL     1     -45.842  56.455 -59.988  1.00  0.00     0.036 A 
HETATM   15  C   UNL     1     -45.291  55.222 -60.328  1.00  0.00     0.024 A 
HETATM   16 CL   UNL     1     -47.293  56.976 -60.759  1.00  0.00    -0.084 Cl
HETATM   17  C   UNL     1     -44.113  54.805 -59.712  1.00  0.00     0.004 A 
HETATM   18  C   UNL     1     -43.496  55.622 -58.761  1.00  0.00     0.029 A 
ENDBRANCH   8  12
ENDBRANCH   1   6
BRANCH   4  19
HETATM   19  C   UNL     1     -42.465  56.610 -52.422  1.00  0.00     0.271 C 
HETATM   20  N   UNL     1     -41.240  56.014 -52.247  1.00  0.00    -0.351 N 
HETATM   21  H   UNL     1     -40.472  56.336 -52.821  1.00  0.00     0.163 HD
HETATM   22  O   UNL     1     -43.492  56.217 -51.878  1.00  0.00    -0.266 OA
BRANCH  20  23
HETATM   23  C   UNL     1     -41.103  54.837 -51.424  1.00  0.00     0.161 C 
BRANCH  23  24
HETATM   24  C   UNL     1     -40.635  53.625 -52.189  1.00  0.00    -0.040 A 
HETATM   25  C   UNL     1     -39.858  52.624 -51.583  1.00  0.00     0.010 A 
HETATM   26  C   UNL     1     -39.487  51.480 -52.295  1.00  0.00     0.024 A 
HETATM   27  C   UNL     1     -39.908  51.318 -53.613  1.00  0.00     0.034 A 
HETATM   28 CL   UNL     1     -39.463  49.904 -54.485  1.00  0.00    -0.084 Cl
HETATM   29  C   UNL     1     -40.696  52.288 -54.224  1.00  0.00     0.024 A 
HETATM   30  C   UNL     1     -41.061  53.435 -53.514  1.00  0.00     0.010 A 
ENDBRANCH  23  24
ENDBRANCH  20  23
ENDBRANCH   4  19
TORSDOF 5
ENDMDL
MODEL 2
REMARK VINA RESULT:      -8.3      2.115      2.553
REMARK  5 active torsions:
REMARK  status: ('A' for Active; 'I' for Inactive)
REMARK    1  A    between atoms: C_6  and  N_7 
REMARK       I    between atoms: N_7  and  C_8 
REMARK       I    between atoms: C_8  and  N_9 
REMARK    2  A    between atoms: N_9  and  C_10 
REMARK    3  A    between atoms: C_13  and  C_14 
REMARK       I    between atoms: C_14  and  N_15 
REMARK    4  A    between atoms: N_15  and  C_16 
REMARK    5  A    between atoms: C_16  and  C_17 
ROOT
HETATM    1  C   UNL     1     -44.590  57.752 -53.679  1.00  0.00     0.175 A 
HETATM    2  S   UNL     1     -43.919  59.109 -52.897  1.00  0.00    -0.061 SA
HETATM    3  C   UNL     1     -43.092  58.059 -51.833  1.00  0.00     0.090 A 
HETATM    4  C   UNL     1     -43.356  56.738 -52.157  1.00  0.00     0.133 A 
HETATM    5  N   UNL     1     -44.259  56.567 -53.220  1.00  0.00    -0.218 NA
ENDROOT
BRANCH   1   6
HETATM    6  N   UNL     1     -45.410  58.068 -54.718  1.00  0.00    -0.287 N 
HETATM    7  C   UNL     1     -45.113  58.045 -56.047  1.00  0.00     0.326 C 
HETATM    8  N   UNL     1     -43.880  57.565 -56.400  1.00  0.00    -0.309 N 
HETATM    9  O   UNL     1     -45.986  58.425 -56.824  1.00  0.00    -0.247 OA
HETATM   10  H   UNL     1     -43.308  57.248 -55.624  1.00  0.00     0.170 HD
HETATM   11  H   UNL     1     -46.349  58.365 -54.500  1.00  0.00     0.172 HD
BRANCH   8  12
HETATM   12  C   UNL     1     -43.356  57.392 -57.697  1.00  0.00     0.037 A 
HETATM   13  C   UNL     1     -42.899  58.441 -58.500  1.00  0.00     0.053 A 
HETATM   14  C   UNL     1     -42.409  58.180 -59.782  1.00  0.00     0.036 A 
HETATM   15  C   UNL     1     -42.369  56.879 -60.277  1.00  0.00     0.024 A 
HETATM   16 CL   UNL     1     -41.843  59.479 -60.762  1.00  0.00    -0.084 Cl
HETATM   17  C   UNL     1     -42.817  55.827 -59.482  1.00  0.00     0.004 A 
HETATM   18  C   UNL     1     -43.304  56.083 -58.196  1.00  0.00     0.029 A 
ENDBRANCH   8  12
ENDBRANCH   1   6
BRANCH   4  19
HETATM   19  C   UNL     1     -42.725  55.613 -51.462  1.00  0.00     0.271 C 
HETATM   20  N   UNL     1     -41.363  55.551 -51.626  1.00  0.00    -0.351 N 
HETATM   21  H   UNL     1     -40.939  56.183 -52.293  1.00  0.00     0.163 HD
HETATM   22  O   UNL     1     -43.361  54.813 -50.782  1.00  0.00    -0.266 OA
BRANCH  20  23
HETATM   23  C   UNL     1     -40.595  54.489 -51.024  1.00  0.00     0.161 C 
BRANCH  23  24
HETATM   24  C   UNL     1     -40.385  53.310 -51.940  1.00  0.00    -0.040 A 
HETATM   25  C   UNL     1     -40.639  53.392 -53.319  1.00  0.00     0.010 A 
HETATM   26  C   UNL     1     -40.378  52.305 -54.157  1.00  0.00     0.024 A 
HETATM   27  C   UNL     1     -39.841  51.134 -53.627  1.00  0.00     0.034 A 
HETATM   28 CL   UNL     1     -39.507  49.800 -54.661  1.00  0.00    -0.084 Cl
HETATM   29  C   UNL     1     -39.561  51.042 -52.267  1.00  0.00     0.024 A 
HETATM   30  C   UNL     1     -39.829  52.127 -51.428  1.00  0.00     0.010 A 
ENDBRANCH  23  24
ENDBRANCH  20  23
ENDBRANCH   4  19
TORSDOF 5
ENDMDL
MODEL 3
REMARK VINA RESULT:      -8.2      1.622      2.152
REMARK  5 active torsions:
REMARK  status: ('A' for Active; 'I' for Inactive)
REMARK    1  A    between atoms: C_6  and  N_7 
REMARK       I    between atoms: N_7  and  C_8 
REMARK       I    between atoms: C_8  and  N_9 
REMARK    2  A    between atoms: N_9  and  C_10 
REMARK    3  A    between atoms: C_13  and  C_14 
REMARK       I    between atoms: C_14  and  N_15 
REMARK    4  A    between atoms: N_15  and  C_16 
REMARK    5  A    between atoms: C_16  and  C_17 
ROOT
HETATM    1  C   UNL     1     -42.486  60.345 -56.749  1.00  0.00     0.175 A 
HETATM    2  S   UNL     1     -43.226  61.559 -55.810  1.00  0.00    -0.061 SA
HETATM    3  C   UNL     1     -42.630  60.799 -54.400  1.00  0.00     0.090 A 
HETATM    4  C   UNL     1     -41.881  59.682 -54.735  1.00  0.00     0.133 A 
HETATM    5  N   UNL     1     -41.827  59.406 -56.111  1.00  0.00    -0.218 NA
ENDROOT
BRANCH   1   6
HETATM    6  N   UNL     1     -42.670  60.502 -58.089  1.00  0.00    -0.287 N 
HETATM    7  C   UNL     1     -43.164  59.590 -58.972  1.00  0.00     0.326 C 
HETATM    8  N   UNL     1     -43.616  58.406 -58.455  1.00  0.00    -0.309 N 
HETATM    9  O   UNL     1     -43.194  59.916 -60.157  1.00  0.00    -0.247 OA
HETATM   10  H   UNL     1     -43.558  58.332 -57.444  1.00  0.00     0.170 HD
HETATM   11  H   UNL     1     -42.407  61.387 -58.497  1.00  0.00     0.172 HD
BRANCH   8  12
HETATM   12  C   UNL     1     -44.213  57.331 -59.144  1.00  0.00     0.037 A 
HETATM   13  C   UNL     1     -45.482  57.387 -59.727  1.00  0.00     0.053 A 
HETATM   14  C   UNL     1     -46.004  56.268 -60.380  1.00  0.00     0.036 A 
HETATM   15  C   UNL     1     -45.273  55.085 -60.458  1.00  0.00     0.024 A 
HETATM   16 CL   UNL     1     -47.567  56.348 -61.099  1.00  0.00    -0.084 Cl
HETATM   17  C   UNL     1     -44.005  55.022 -59.885  1.00  0.00     0.004 A 
HETATM   18  C   UNL     1     -43.477  56.142 -59.236  1.00  0.00     0.029 A 
ENDBRANCH   8  12
ENDBRANCH   1   6
BRANCH   4  19
HETATM   19  C   UNL     1     -41.182  58.871 -53.734  1.00  0.00     0.271 C 
HETATM   20  N   UNL     1     -41.812  57.688 -53.436  1.00  0.00    -0.351 N 
HETATM   21  H   UNL     1     -42.738  57.539 -53.818  1.00  0.00     0.163 HD
HETATM   22  O   UNL     1     -40.119  59.217 -53.226  1.00  0.00    -0.266 OA
BRANCH  20  23
HETATM   23  C   UNL     1     -41.264  56.786 -52.454  1.00  0.00     0.161 C 
BRANCH  23  24
HETATM   24  C   UNL     1     -41.022  55.397 -52.988  1.00  0.00    -0.040 A 
HETATM   25  C   UNL     1     -40.730  55.167 -54.342  1.00  0.00     0.010 A 
HETATM   26  C   UNL     1     -40.449  53.877 -54.801  1.00  0.00     0.024 A 
HETATM   27  C   UNL     1     -40.435  52.810 -53.906  1.00  0.00     0.034 A 
HETATM   28 CL   UNL     1     -40.075  51.225 -54.468  1.00  0.00    -0.084 Cl
HETATM   29  C   UNL     1     -40.700  53.022 -52.556  1.00  0.00     0.024 A 
HETATM   30  C   UNL     1     -40.988  54.311 -52.099  1.00  0.00     0.010 A 
ENDBRANCH  23  24
ENDBRANCH  20  23
ENDBRANCH   4  19
TORSDOF 5
ENDMDL
MODEL 4
REMARK VINA RESULT:      -8.1      1.750      8.750
REMARK  5 active torsions:
REMARK  status: ('A' for Active; 'I' for Inactive)
REMARK    1  A    between atoms: C_6  and  N_7 
REMARK       I    between atoms: N_7  and  C_8 
REMARK       I    between atoms: C_8  and  N_9 
REMARK    2  A    between atoms: N_9  and  C_10 
REMARK    3  A    between atoms: C_13  and  C_14 
REMARK       I    between atoms: C_14  and  N_15 
REMARK    4  A    between atoms: N_15  and  C_16 
REMARK    5  A    between atoms: C_16  and  C_17 
ROOT
HETATM    1  C   UNL     1     -43.672  56.467 -53.999  1.00  0.00     0.175 A 
HETATM    2  S   UNL     1     -43.593  58.138 -53.673  1.00  0.00    -0.061 SA
HETATM    3  C   UNL     1     -43.356  58.430 -55.340  1.00  0.00     0.090 A 
HETATM    4  C   UNL     1     -43.379  57.238 -56.046  1.00  0.00     0.133 A 
HETATM    5  N   UNL     1     -43.534  56.091 -55.250  1.00  0.00    -0.218 NA
ENDROOT
BRANCH   1   6
HETATM    6  N   UNL     1     -43.878  55.702 -52.893  1.00  0.00    -0.287 N 
HETATM    7  C   UNL     1     -43.166  54.612 -52.493  1.00  0.00     0.326 C 
HETATM    8  N   UNL     1     -42.057  54.289 -53.228  1.00  0.00    -0.309 N 
HETATM    9  O   UNL     1     -43.556  54.026 -51.485  1.00  0.00    -0.247 OA
HETATM   10  H   UNL     1     -41.859  54.918 -54.000  1.00  0.00     0.170 HD
HETATM   11  H   UNL     1     -44.648  55.948 -52.290  1.00  0.00     0.172 HD
BRANCH   8  12
HETATM   12  C   UNL     1     -41.134  53.250 -52.994  1.00  0.00     0.037 A 
HETATM   13  C   UNL     1     -40.862  52.227 -53.907  1.00  0.00     0.053 A 
HETATM   14  C   UNL     1     -39.942  51.227 -53.585  1.00  0.00     0.036 A 
HETATM   15  C   UNL     1     -39.285  51.233 -52.358  1.00  0.00     0.024 A 
HETATM   16 CL   UNL     1     -39.610  49.973 -54.719  1.00  0.00    -0.084 Cl
HETATM   17  C   UNL     1     -39.545  52.252 -51.444  1.00  0.00     0.004 A 
HETATM   18  C   UNL     1     -40.462  53.257 -51.764  1.00  0.00     0.029 A 
ENDBRANCH   8  12
ENDBRANCH   1   6
BRANCH   4  19
HETATM   19  C   UNL     1     -43.275  57.183 -57.507  1.00  0.00     0.271 C 
HETATM   20  N   UNL     1     -44.217  56.380 -58.102  1.00  0.00    -0.351 N 
HETATM   21  H   UNL     1     -44.798  55.810 -57.501  1.00  0.00     0.163 HD
HETATM   22  O   UNL     1     -42.432  57.816 -58.135  1.00  0.00    -0.266 OA
BRANCH  20  23
HETATM   23  C   UNL     1     -44.236  56.201 -59.533  1.00  0.00     0.161 C 
BRANCH  23  24
HETATM   24  C   UNL     1     -45.430  56.837 -60.198  1.00  0.00    -0.040 A 
HETATM   25  C   UNL     1     -46.487  56.068 -60.712  1.00  0.00     0.010 A 
HETATM   26  C   UNL     1     -47.611  56.682 -61.269  1.00  0.00     0.024 A 
HETATM   27  C   UNL     1     -47.699  58.072 -61.297  1.00  0.00     0.034 A 
HETATM   28 CL   UNL     1     -49.089  58.830 -61.970  1.00  0.00    -0.084 Cl
HETATM   29  C   UNL     1     -46.672  58.852 -60.773  1.00  0.00     0.024 A 
HETATM   30  C   UNL     1     -45.545  58.237 -60.222  1.00  0.00     0.010 A 
ENDBRANCH  23  24
ENDBRANCH  20  23
ENDBRANCH   4  19
TORSDOF 5
ENDMDL
MODEL 5
REMARK VINA RESULT:      -7.9      1.669      8.013
REMARK  5 active torsions:
REMARK  status: ('A' for Active; 'I' for Inactive)
REMARK    1  A    between atoms: C_6  and  N_7 
REMARK       I    between atoms: N_7  and  C_8 
REMARK       I    between atoms: C_8  and  N_9 
REMARK    2  A    between atoms: N_9  and  C_10 
REMARK    3  A    between atoms: C_13  and  C_14 
REMARK       I    between atoms: C_14  and  N_15 
REMARK    4  A    between atoms: N_15  and  C_16 
REMARK    5  A    between atoms: C_16  and  C_17 
ROOT
HETATM    1  C   UNL     1     -41.767  57.122 -51.901  1.00  0.00     0.175 A 
HETATM    2  S   UNL     1     -43.264  57.814 -51.474  1.00  0.00    -0.061 SA
HETATM    3  C   UNL     1     -43.364  58.506 -53.034  1.00  0.00     0.090 A 
HETATM    4  C   UNL     1     -42.263  58.143 -53.793  1.00  0.00     0.133 A 
HETATM    5  N   UNL     1     -41.317  57.358 -53.112  1.00  0.00    -0.218 NA
ENDROOT
BRANCH   1   6
HETATM    6  N   UNL     1     -41.202  56.383 -50.907  1.00  0.00    -0.287 N 
HETATM    7  C   UNL     1     -40.795  55.085 -50.967  1.00  0.00     0.326 C 
HETATM    8  N   UNL     1     -40.875  54.463 -52.184  1.00  0.00    -0.309 N 
HETATM    9  O   UNL     1     -40.360  54.585 -49.931  1.00  0.00    -0.247 OA
HETATM   10  H   UNL     1     -41.213  55.050 -52.940  1.00  0.00     0.170 HD
HETATM   11  H   UNL     1     -41.068  56.828 -50.011  1.00  0.00     0.172 HD
BRANCH   8  12
HETATM   12  C   UNL     1     -40.473  53.154 -52.517  1.00  0.00     0.037 A 
HETATM   13  C   UNL     1     -40.071  52.199 -51.578  1.00  0.00     0.053 A 
HETATM   14  C   UNL     1     -39.675  50.928 -51.998  1.00  0.00     0.036 A 
HETATM   15  C   UNL     1     -39.672  50.593 -53.349  1.00  0.00     0.024 A 
HETATM   16 CL   UNL     1     -39.185  49.756 -50.833  1.00  0.00    -0.084 Cl
HETATM   17  C   UNL     1     -40.076  51.536 -54.291  1.00  0.00     0.004 A 
HETATM   18  C   UNL     1     -40.479  52.809 -53.875  1.00  0.00     0.029 A 
ENDBRANCH   8  12
ENDBRANCH   1   6
BRANCH   4  19
HETATM   19  C   UNL     1     -42.111  58.527 -55.199  1.00  0.00     0.271 C 
HETATM   20  N   UNL     1     -42.535  57.569 -56.087  1.00  0.00    -0.351 N 
HETATM   21  H   UNL     1     -42.784  56.660 -55.717  1.00  0.00     0.163 HD
HETATM   22  O   UNL     1     -41.663  59.617 -55.543  1.00  0.00    -0.266 OA
BRANCH  20  23
HETATM   23  C   UNL     1     -42.432  57.784 -57.509  1.00  0.00     0.161 C 
BRANCH  23  24
HETATM   24  C   UNL     1     -43.664  57.359 -58.268  1.00  0.00    -0.040 A 
HETATM   25  C   UNL     1     -44.882  58.047 -58.144  1.00  0.00     0.010 A 
HETATM   26  C   UNL     1     -45.993  57.671 -58.904  1.00  0.00     0.024 A 
HETATM   27  C   UNL     1     -45.889  56.618 -59.810  1.00  0.00     0.034 A 
HETATM   28 CL   UNL     1     -47.252  56.165 -60.756  1.00  0.00    -0.084 Cl
HETATM   29  C   UNL     1     -44.684  55.939 -59.963  1.00  0.00     0.024 A 
HETATM   30  C   UNL     1     -43.575  56.310 -59.197  1.00  0.00     0.010 A 
ENDBRANCH  23  24
ENDBRANCH  20  23
ENDBRANCH   4  19
TORSDOF 5
ENDMDL
MODEL 6
REMARK VINA RESULT:      -7.8      2.741      8.869
REMARK  5 active torsions:
REMARK  status: ('A' for Active; 'I' for Inactive)
REMARK    1  A    between atoms: C_6  and  N_7 
REMARK       I    between atoms: N_7  and  C_8 
REMARK       I    between atoms: C_8  and  N_9 
REMARK    2  A    between atoms: N_9  and  C_10 
REMARK    3  A    between atoms: C_13  and  C_14 
REMARK       I    between atoms: C_14  and  N_15 
REMARK    4  A    between atoms: N_15  and  C_16 
REMARK    5  A    between atoms: C_16  and  C_17 
ROOT
HETATM    1  C   UNL     1     -43.814  56.204 -54.265  1.00  0.00     0.175 A 
HETATM    2  S   UNL     1     -44.277  57.840 -54.145  1.00  0.00    -0.061 SA
HETATM    3  C   UNL     1     -43.858  58.056 -55.787  1.00  0.00     0.090 A 
HETATM    4  C   UNL     1     -43.418  56.861 -56.334  1.00  0.00     0.133 A 
HETATM    5  N   UNL     1     -43.366  55.789 -55.427  1.00  0.00    -0.218 NA
ENDROOT
BRANCH   1   6
HETATM    6  N   UNL     1     -43.973  55.503 -53.109  1.00  0.00    -0.287 N 
HETATM    7  C   UNL     1     -43.224  54.457 -52.663  1.00  0.00     0.326 C 
HETATM    8  N   UNL     1     -42.126  54.116 -53.407  1.00  0.00    -0.309 N 
HETATM    9  O   UNL     1     -43.574  53.924 -51.612  1.00  0.00    -0.247 OA
HETATM   10  H   UNL     1     -41.964  54.701 -54.220  1.00  0.00     0.170 HD
HETATM   11  H   UNL     1     -44.734  55.768 -52.503  1.00  0.00     0.172 HD
BRANCH   8  12
HETATM   12  C   UNL     1     -41.172  53.116 -53.135  1.00  0.00     0.037 A 
HETATM   13  C   UNL     1     -40.853  52.080 -54.018  1.00  0.00     0.053 A 
HETATM   14  C   UNL     1     -39.903  51.121 -53.660  1.00  0.00     0.036 A 
HETATM   15  C   UNL     1     -39.263  51.179 -52.424  1.00  0.00     0.024 A 
HETATM   16 CL   UNL     1     -39.514  49.851 -54.757  1.00  0.00    -0.084 Cl
HETATM   17  C   UNL     1     -39.571  52.211 -51.540  1.00  0.00     0.004 A 
HETATM   18  C   UNL     1     -40.517  53.176 -51.897  1.00  0.00     0.029 A 
ENDBRANCH   8  12
ENDBRANCH   1   6
BRANCH   4  19
HETATM   19  C   UNL     1     -43.059  56.724 -57.748  1.00  0.00     0.271 C 
HETATM   20  N   UNL     1     -42.282  57.750 -58.227  1.00  0.00    -0.351 N 
HETATM   21  H   UNL     1     -42.136  58.551 -57.626  1.00  0.00     0.163 HD
HETATM   22  O   UNL     1     -43.411  55.767 -58.431  1.00  0.00    -0.266 OA
BRANCH  20  23
HETATM   23  C   UNL     1     -41.863  57.776 -59.606  1.00  0.00     0.161 C 
BRANCH  23  24
HETATM   24  C   UNL     1     -42.500  58.885 -60.404  1.00  0.00    -0.040 A 
HETATM   25  C   UNL     1     -41.737  59.755 -61.201  1.00  0.00     0.010 A 
HETATM   26  C   UNL     1     -42.356  60.736 -61.979  1.00  0.00     0.024 A 
HETATM   27  C   UNL     1     -43.745  60.843 -61.984  1.00  0.00     0.034 A 
HETATM   28 CL   UNL     1     -44.508  62.042 -62.953  1.00  0.00    -0.084 Cl
HETATM   29  C   UNL     1     -44.519  59.976 -61.219  1.00  0.00     0.024 A 
HETATM   30  C   UNL     1     -43.899  59.000 -60.435  1.00  0.00     0.010 A 
ENDBRANCH  23  24
ENDBRANCH  20  23
ENDBRANCH   4  19
TORSDOF 5
ENDMDL
MODEL 7
REMARK VINA RESULT:      -7.8      4.958      7.565
REMARK  5 active torsions:
REMARK  status: ('A' for Active; 'I' for Inactive)
REMARK    1  A    between atoms: C_6  and  N_7 
REMARK       I    between atoms: N_7  and  C_8 
REMARK       I    between atoms: C_8  and  N_9 
REMARK    2  A    between atoms: N_9  and  C_10 
REMARK    3  A    between atoms: C_13  and  C_14 
REMARK       I    between atoms: C_14  and  N_15 
REMARK    4  A    between atoms: N_15  and  C_16 
REMARK    5  A    between atoms: C_16  and  C_17 
ROOT
HETATM    1  C   UNL     1     -42.836  59.170 -51.699  1.00  0.00     0.175 A 
HETATM    2  S   UNL     1     -43.855  58.687 -52.976  1.00  0.00    -0.061 SA
HETATM    3  C   UNL     1     -43.535  57.054 -52.585  1.00  0.00     0.090 A 
HETATM    4  C   UNL     1     -42.693  56.979 -51.486  1.00  0.00     0.133 A 
HETATM    5  N   UNL     1     -42.264  58.222 -50.993  1.00  0.00    -0.218 NA
ENDROOT
BRANCH   1   6
HETATM    6  N   UNL     1     -42.739  60.520 -51.557  1.00  0.00    -0.287 N 
HETATM    7  C   UNL     1     -43.437  61.317 -50.701  1.00  0.00     0.326 C 
HETATM    8  N   UNL     1     -44.273  60.696 -49.813  1.00  0.00    -0.309 N 
HETATM    9  O   UNL     1     -43.236  62.528 -50.773  1.00  0.00    -0.247 OA
HETATM   10  H   UNL     1     -44.273  59.682 -49.866  1.00  0.00     0.170 HD
HETATM   11  H   UNL     1     -42.085  61.007 -52.151  1.00  0.00     0.172 HD
BRANCH   8  12
HETATM   12  C   UNL     1     -45.058  61.286 -48.803  1.00  0.00     0.037 A 
HETATM   13  C   UNL     1     -46.205  62.046 -49.050  1.00  0.00     0.053 A 
HETATM   14  C   UNL     1     -46.915  62.608 -47.987  1.00  0.00     0.036 A 
HETATM   15  C   UNL     1     -46.495  62.423 -46.672  1.00  0.00     0.024 A 
HETATM   16 CL   UNL     1     -48.331  63.539 -48.301  1.00  0.00    -0.084 Cl
HETATM   17  C   UNL     1     -45.356  61.662 -46.417  1.00  0.00     0.004 A 
HETATM   18  C   UNL     1     -44.645  61.093 -47.477  1.00  0.00     0.029 A 
ENDBRANCH   8  12
ENDBRANCH   1   6
BRANCH   4  19
HETATM   19  C   UNL     1     -42.303  55.704 -50.876  1.00  0.00     0.271 C 
HETATM   20  N   UNL     1     -41.001  55.345 -51.120  1.00  0.00    -0.351 N 
HETATM   21  H   UNL     1     -40.475  55.900 -51.784  1.00  0.00     0.163 HD
HETATM   22  O   UNL     1     -43.073  55.034 -50.194  1.00  0.00    -0.266 OA
BRANCH  20  23
HETATM   23  C   UNL     1     -40.468  54.107 -50.609  1.00  0.00     0.161 C 
BRANCH  23  24
HETATM   24  C   UNL     1     -40.316  53.041 -51.664  1.00  0.00    -0.040 A 
HETATM   25  C   UNL     1     -40.614  53.289 -53.014  1.00  0.00     0.010 A 
HETATM   26  C   UNL     1     -40.407  52.304 -53.982  1.00  0.00     0.024 A 
HETATM   27  C   UNL     1     -39.879  51.069 -53.613  1.00  0.00     0.034 A 
HETATM   28 CL   UNL     1     -39.611  49.860 -54.807  1.00  0.00    -0.084 Cl
HETATM   29  C   UNL     1     -39.557  50.811 -52.284  1.00  0.00     0.024 A 
HETATM   30  C   UNL     1     -39.771  51.794 -51.314  1.00  0.00     0.010 A 
ENDBRANCH  23  24
ENDBRANCH  20  23
ENDBRANCH   4  19
TORSDOF 5
ENDMDL
MODEL 8
REMARK VINA RESULT:      -7.7      5.356      7.561
REMARK  5 active torsions:
REMARK  status: ('A' for Active; 'I' for Inactive)
REMARK    1  A    between atoms: C_6  and  N_7 
REMARK       I    between atoms: N_7  and  C_8 
REMARK       I    between atoms: C_8  and  N_9 
REMARK    2  A    between atoms: N_9  and  C_10 
REMARK    3  A    between atoms: C_13  and  C_14 
REMARK       I    between atoms: C_14  and  N_15 
REMARK    4  A    between atoms: N_15  and  C_16 
REMARK    5  A    between atoms: C_16  and  C_17 
ROOT
HETATM    1  C   UNL     1     -42.445  58.576 -51.395  1.00  0.00     0.175 A 
HETATM    2  S   UNL     1     -40.886  59.252 -51.528  1.00  0.00    -0.061 SA
HETATM    3  C   UNL     1     -40.247  57.872 -50.748  1.00  0.00     0.090 A 
HETATM    4  C   UNL     1     -41.258  56.969 -50.460  1.00  0.00     0.133 A 
HETATM    5  N   UNL     1     -42.546  57.403 -50.814  1.00  0.00    -0.218 NA
ENDROOT
BRANCH   1   6
HETATM    6  N   UNL     1     -43.427  59.356 -51.927  1.00  0.00    -0.287 N 
HETATM    7  C   UNL     1     -44.220  60.250 -51.275  1.00  0.00     0.326 C 
HETATM    8  N   UNL     1     -43.954  60.469 -49.950  1.00  0.00    -0.309 N 
HETATM    9  O   UNL     1     -45.090  60.814 -51.936  1.00  0.00    -0.247 OA
HETATM   10  H   UNL     1     -43.163  59.950 -49.584  1.00  0.00     0.170 HD
HETATM   11  H   UNL     1     -43.609  59.269 -52.915  1.00  0.00     0.172 HD
BRANCH   8  12
HETATM   12  C   UNL     1     -44.590  61.373 -49.076  1.00  0.00     0.037 A 
HETATM   13  C   UNL     1     -45.534  60.997 -48.116  1.00  0.00     0.053 A 
HETATM   14  C   UNL     1     -46.127  61.963 -47.300  1.00  0.00     0.036 A 
HETATM   15  C   UNL     1     -45.790  63.308 -47.429  1.00  0.00     0.024 A 
HETATM   16 CL   UNL     1     -47.287  61.489 -46.117  1.00  0.00    -0.084 Cl
HETATM   17  C   UNL     1     -44.846  63.691 -48.379  1.00  0.00     0.004 A 
HETATM   18  C   UNL     1     -44.246  62.727 -49.194  1.00  0.00     0.029 A 
ENDBRANCH   8  12
ENDBRANCH   1   6
BRANCH   4  19
HETATM   19  C   UNL     1     -40.999  55.659 -49.857  1.00  0.00     0.271 C 
HETATM   20  N   UNL     1     -40.656  54.686 -50.764  1.00  0.00    -0.351 N 
HETATM   21  H   UNL     1     -40.737  54.910 -51.748  1.00  0.00     0.163 HD
HETATM   22  O   UNL     1     -41.065  55.462 -48.647  1.00  0.00    -0.266 OA
BRANCH  20  23
HETATM   23  C   UNL     1     -40.391  53.336 -50.333  1.00  0.00     0.161 C 
BRANCH  23  24
HETATM   24  C   UNL     1     -40.129  52.386 -51.474  1.00  0.00    -0.040 A 
HETATM   25  C   UNL     1     -39.719  51.061 -51.253  1.00  0.00     0.010 A 
HETATM   26  C   UNL     1     -39.541  50.181 -52.324  1.00  0.00     0.024 A 
HETATM   27  C   UNL     1     -39.792  50.613 -53.624  1.00  0.00     0.034 A 
HETATM   28 CL   UNL     1     -39.586  49.526 -54.942  1.00  0.00    -0.084 Cl
HETATM   29  C   UNL     1     -40.220  51.915 -53.862  1.00  0.00     0.024 A 
HETATM   30  C   UNL     1     -40.391  52.797 -52.791  1.00  0.00     0.010 A 
ENDBRANCH  23  24
ENDBRANCH  20  23
ENDBRANCH   4  19
TORSDOF 5
ENDMDL
MODEL 9
REMARK VINA RESULT:      -7.7     16.150     18.007
REMARK  5 active torsions:
REMARK  status: ('A' for Active; 'I' for Inactive)
REMARK    1  A    between atoms: C_6  and  N_7 
REMARK       I    between atoms: N_7  and  C_8 
REMARK       I    between atoms: C_8  and  N_9 
REMARK    2  A    between atoms: N_9  and  C_10 
REMARK    3  A    between atoms: C_13  and  C_14 
REMARK       I    between atoms: C_14  and  N_15 
REMARK    4  A    between atoms: N_15  and  C_16 
REMARK    5  A    between atoms: C_16  and  C_17 
ROOT
HETATM    1  C   UNL     1     -35.663  41.991 -57.005  1.00  0.00     0.175 A 
HETATM    2  S   UNL     1     -36.607  41.987 -55.586  1.00  0.00    -0.061 SA
HETATM    3  C   UNL     1     -35.318  41.229 -54.758  1.00  0.00     0.090 A 
HETATM    4  C   UNL     1     -34.237  41.052 -55.608  1.00  0.00     0.133 A 
HETATM    5  N   UNL     1     -34.459  41.473 -56.929  1.00  0.00    -0.218 NA
ENDROOT
BRANCH   1   6
HETATM    6  N   UNL     1     -36.288  42.552 -58.076  1.00  0.00    -0.287 N 
HETATM    7  C   UNL     1     -36.893  41.910 -59.114  1.00  0.00     0.326 C 
HETATM    8  N   UNL     1     -36.969  40.545 -59.042  1.00  0.00    -0.309 N 
HETATM    9  O   UNL     1     -37.351  42.609 -60.016  1.00  0.00    -0.247 OA
HETATM   10  H   UNL     1     -36.580  40.141 -58.196  1.00  0.00     0.170 HD
HETATM   11  H   UNL     1     -36.308  43.559 -58.132  1.00  0.00     0.172 HD
BRANCH   8  12
HETATM   12  C   UNL     1     -37.584  39.662 -59.952  1.00  0.00     0.037 A 
HETATM   13  C   UNL     1     -37.103  39.410 -61.240  1.00  0.00     0.053 A 
HETATM   14  C   UNL     1     -37.785  38.529 -62.083  1.00  0.00     0.036 A 
HETATM   15  C   UNL     1     -38.947  37.893 -61.657  1.00  0.00     0.024 A 
HETATM   16 CL   UNL     1     -37.183  38.222 -63.668  1.00  0.00    -0.084 Cl
HETATM   17  C   UNL     1     -39.430  38.133 -60.372  1.00  0.00     0.004 A 
HETATM   18  C   UNL     1     -38.748  39.009 -59.523  1.00  0.00     0.029 A 
ENDBRANCH   8  12
ENDBRANCH   1   6
BRANCH   4  19
HETATM   19  C   UNL     1     -32.960  40.493 -55.155  1.00  0.00     0.271 C 
HETATM   20  N   UNL     1     -33.012  39.928 -53.904  1.00  0.00    -0.351 N 
HETATM   21  H   UNL     1     -33.858  40.055 -53.364  1.00  0.00     0.163 HD
HETATM   22  O   UNL     1     -31.946  40.516 -55.845  1.00  0.00    -0.266 OA
BRANCH  20  23
HETATM   23  C   UNL     1     -31.833  39.354 -53.305  1.00  0.00     0.161 C 
BRANCH  23  24
HETATM   24  C   UNL     1     -31.981  39.091 -51.828  1.00  0.00    -0.040 A 
HETATM   25  C   UNL     1     -31.831  40.113 -50.877  1.00  0.00     0.010 A 
HETATM   26  C   UNL     1     -32.034  39.858 -49.518  1.00  0.00     0.024 A 
HETATM   27  C   UNL     1     -32.410  38.583 -49.101  1.00  0.00     0.034 A 
HETATM   28 CL   UNL     1     -32.673  38.272 -47.429  1.00  0.00    -0.084 Cl
HETATM   29  C   UNL     1     -32.585  37.563 -50.030  1.00  0.00     0.024 A 
HETATM   30  C   UNL     1     -32.375  37.816 -51.388  1.00  0.00     0.010 A 
ENDBRANCH  23  24
ENDBRANCH  20  23
ENDBRANCH   4  19
TORSDOF 5
ENDMDL
MODEL 10
REMARK VINA RESULT:      -7.5      2.147      7.743
REMARK  5 active torsions:
REMARK  status: ('A' for Active; 'I' for Inactive)
REMARK    1  A    between atoms: C_6  and  N_7 
REMARK       I    between atoms: N_7  and  C_8 
REMARK       I    between atoms: C_8  and  N_9 
REMARK    2  A    between atoms: N_9  and  C_10 
REMARK    3  A    between atoms: C_13  and  C_14 
REMARK       I    between atoms: C_14  and  N_15 
REMARK    4  A    between atoms: N_15  and  C_16 
REMARK    5  A    between atoms: C_16  and  C_17 
ROOT
HETATM    1  C   UNL     1     -44.238  57.340 -52.355  1.00  0.00     0.175 A 
HETATM    2  S   UNL     1     -43.666  58.741 -51.570  1.00  0.00    -0.061 SA
HETATM    3  C   UNL     1     -43.910  59.622 -53.014  1.00  0.00     0.090 A 
HETATM    4  C   UNL     1     -44.440  58.800 -53.996  1.00  0.00     0.133 A 
HETATM    5  N   UNL     1     -44.600  57.458 -53.611  1.00  0.00    -0.218 NA
ENDROOT
BRANCH   1   6
HETATM    6  N   UNL     1     -44.256  56.236 -51.559  1.00  0.00    -0.287 N 
HETATM    7  C   UNL     1     -43.524  55.097 -51.704  1.00  0.00     0.326 C 
HETATM    8  N   UNL     1     -42.593  55.079 -52.707  1.00  0.00    -0.309 N 
HETATM    9  O   UNL     1     -43.734  54.189 -50.902  1.00  0.00    -0.247 OA
HETATM   10  H   UNL     1     -42.524  55.940 -53.240  1.00  0.00     0.170 HD
HETATM   11  H   UNL     1     -44.885  56.238 -50.770  1.00  0.00     0.172 HD
BRANCH   8  12
HETATM   12  C   UNL     1     -41.684  54.050 -53.028  1.00  0.00     0.037 A 
HETATM   13  C   UNL     1     -41.069  53.229 -52.080  1.00  0.00     0.053 A 
HETATM   14  C   UNL     1     -40.168  52.242 -52.486  1.00  0.00     0.036 A 
HETATM   15  C   UNL     1     -39.869  52.062 -53.834  1.00  0.00     0.024 A 
HETATM   16 CL   UNL     1     -39.418  51.231 -51.309  1.00  0.00    -0.084 Cl
HETATM   17  C   UNL     1     -40.482  52.873 -54.787  1.00  0.00     0.004 A 
HETATM   18  C   UNL     1     -41.389  53.858 -54.385  1.00  0.00     0.029 A 
ENDBRANCH   8  12
ENDBRANCH   1   6
BRANCH   4  19
HETATM   19  C   UNL     1     -44.824  59.298 -55.320  1.00  0.00     0.271 C 
HETATM   20  N   UNL     1     -45.853  58.598 -55.901  1.00  0.00    -0.351 N 
HETATM   21  H   UNL     1     -46.162  57.749 -55.446  1.00  0.00     0.163 HD
HETATM   22  O   UNL     1     -44.282  60.265 -55.847  1.00  0.00    -0.266 OA
BRANCH  20  23
HETATM   23  C   UNL     1     -46.334  58.948 -57.214  1.00  0.00     0.161 C 
BRANCH  23  24
HETATM   24  C   UNL     1     -45.952  57.949 -58.277  1.00  0.00    -0.040 A 
HETATM   25  C   UNL     1     -44.625  57.523 -58.447  1.00  0.00     0.010 A 
HETATM   26  C   UNL     1     -44.305  56.550 -59.398  1.00  0.00     0.024 A 
HETATM   27  C   UNL     1     -45.312  55.980 -60.172  1.00  0.00     0.034 A 
HETATM   28 CL   UNL     1     -44.921  54.773 -61.333  1.00  0.00    -0.084 Cl
HETATM   29  C   UNL     1     -46.636  56.373 -60.003  1.00  0.00     0.024 A 
HETATM   30  C   UNL     1     -46.955  57.351 -59.057  1.00  0.00     0.010 A 
ENDBRANCH  23  24
ENDBRANCH  20  23
ENDBRANCH   4  19
TORSDOF 5
ENDMDL
