MODEL 1
REMARK VINA RESULT:      -8.6      0.000      0.000
REMARK  1 active torsions:
REMARK  status: ('A' for Active; 'I' for Inactive)
REMARK    1  A    between atoms: C_5  and  N_6 
ROOT
HETATM    1  N   UNL     1     -41.940  55.831 -51.424  1.00  0.00    -0.320 N 
HETATM    2  C   UNL     1     -43.346  56.045 -51.490  1.00  0.00     0.141 C 
HETATM    3  N   UNL     1     -44.222  55.163 -51.103  1.00  0.00    -0.380 N 
HETATM    4  H   UNL     1     -45.208  55.376 -51.163  1.00  0.00     0.158 HD
HETATM    5  H   UNL     1     -43.908  54.273 -50.739  1.00  0.00     0.158 HD
HETATM    6  S   UNL     1     -43.770  57.590 -52.105  1.00  0.00    -0.086 SA
HETATM    7  C   UNL     1     -42.023  57.931 -52.599  1.00  0.00     0.093 C 
HETATM    8  C   UNL     1     -41.158  57.069 -51.647  1.00  0.00     0.121 C 
HETATM    9  C   UNL     1     -41.606  59.381 -52.476  1.00  0.00     0.158 C 
HETATM   10  S   UNL     1     -40.943  59.568 -50.840  1.00  0.00     0.147 S 
HETATM   11  O   UNL     1     -41.890  60.300 -50.029  1.00  0.00    -0.228 OA
HETATM   12  O   UNL     1     -39.554  59.957 -50.959  1.00  0.00    -0.228 OA
HETATM   13  C   UNL     1     -40.989  57.864 -50.351  1.00  0.00     0.167 C 
ENDROOT
BRANCH   1  14
HETATM   14  C   UNL     1     -41.249  54.615 -51.224  1.00  0.00     0.048 A 
HETATM   15  C   UNL     1     -40.812  53.802 -52.320  1.00  0.00     0.001 A 
HETATM   16  C   UNL     1     -40.258  52.522 -52.053  1.00  0.00    -0.024 A 
HETATM   17  C   UNL     1     -40.861  54.201 -53.680  1.00  0.00     0.014 A 
HETATM   18  C   UNL     1     -39.866  51.681 -53.107  1.00  0.00     0.012 A 
HETATM   19  C   UNL     1     -40.087  52.093 -50.733  1.00  0.00     0.012 A 
HETATM   20  C   UNL     1     -39.979  52.090 -54.433  1.00  0.00     0.001 A 
HETATM   21  C   UNL     1     -40.464  53.356 -54.720  1.00  0.00     0.001 A 
HETATM   22  C   UNL     1     -40.453  52.908 -49.670  1.00  0.00     0.003 A 
HETATM   23  C   UNL     1     -41.031  54.151 -49.915  1.00  0.00     0.030 A 
ENDBRANCH   1  14
TORSDOF 1
ENDMDL
MODEL 2
REMARK VINA RESULT:      -8.4      1.323      2.725
REMARK  1 active torsions:
REMARK  status: ('A' for Active; 'I' for Inactive)
REMARK    1  A    between atoms: C_5  and  N_6 
ROOT
HETATM    1  N   UNL     1     -41.936  55.824 -53.645  1.00  0.00    -0.320 N 
HETATM    2  C   UNL     1     -43.314  56.125 -53.845  1.00  0.00     0.141 C 
HETATM    3  N   UNL     1     -44.254  55.225 -53.814  1.00  0.00    -0.380 N 
HETATM    4  H   UNL     1     -45.217  55.501 -53.953  1.00  0.00     0.158 HD
HETATM    5  H   UNL     1     -44.014  54.256 -53.647  1.00  0.00     0.158 HD
HETATM    6  S   UNL     1     -43.613  57.795 -54.103  1.00  0.00    -0.086 SA
HETATM    7  C   UNL     1     -41.807  58.149 -54.254  1.00  0.00     0.093 C 
HETATM    8  C   UNL     1     -41.106  57.033 -53.441  1.00  0.00     0.121 C 
HETATM    9  C   UNL     1     -41.382  59.499 -53.714  1.00  0.00     0.158 C 
HETATM   10  S   UNL     1     -40.960  59.240 -52.010  1.00  0.00     0.147 S 
HETATM   11  O   UNL     1     -42.001  59.802 -51.177  1.00  0.00    -0.228 OA
HETATM   12  O   UNL     1     -39.562  59.569 -51.837  1.00  0.00    -0.228 OA
HETATM   13  C   UNL     1     -41.111  57.474 -51.976  1.00  0.00     0.167 C 
ENDROOT
BRANCH   1  14
HETATM   14  C   UNL     1     -41.307  54.559 -53.665  1.00  0.00     0.048 A 
HETATM   15  C   UNL     1     -41.023  53.835 -52.461  1.00  0.00     0.001 A 
HETATM   16  C   UNL     1     -40.256  52.642 -52.537  1.00  0.00    -0.024 A 
HETATM   17  C   UNL     1     -41.487  54.209 -51.175  1.00  0.00     0.014 A 
HETATM   18  C   UNL     1     -39.919  51.936 -51.371  1.00  0.00     0.012 A 
HETATM   19  C   UNL     1     -39.840  52.154 -53.780  1.00  0.00     0.012 A 
HETATM   20  C   UNL     1     -40.351  52.365 -50.120  1.00  0.00     0.001 A 
HETATM   21  C   UNL     1     -41.149  53.496 -50.022  1.00  0.00     0.001 A 
HETATM   22  C   UNL     1     -40.170  52.823 -54.951  1.00  0.00     0.003 A 
HETATM   23  C   UNL     1     -40.891  54.013 -54.892  1.00  0.00     0.030 A 
ENDBRANCH   1  14
TORSDOF 1
ENDMDL
MODEL 3
REMARK VINA RESULT:      -8.3      1.186      1.284
REMARK  1 active torsions:
REMARK  status: ('A' for Active; 'I' for Inactive)
REMARK    1  A    between atoms: C_5  and  N_6 
ROOT
HETATM    1  N   UNL     1     -41.732  55.228 -52.326  1.00  0.00    -0.320 N 
HETATM    2  C   UNL     1     -43.084  55.318 -52.768  1.00  0.00     0.141 C 
HETATM    3  N   UNL     1     -44.004  54.460 -52.432  1.00  0.00    -0.380 N 
HETATM    4  H   UNL     1     -44.949  54.582 -52.768  1.00  0.00     0.158 HD
HETATM    5  H   UNL     1     -43.765  53.680 -51.834  1.00  0.00     0.158 HD
HETATM    6  S   UNL     1     -43.383  56.685 -53.761  1.00  0.00    -0.086 SA
HETATM    7  C   UNL     1     -41.579  57.059 -53.882  1.00  0.00     0.093 C 
HETATM    8  C   UNL     1     -40.954  56.459 -52.598  1.00  0.00     0.121 C 
HETATM    9  C   UNL     1     -41.245  58.534 -53.954  1.00  0.00     0.158 C 
HETATM   10  S   UNL     1     -41.016  59.073 -52.278  1.00  0.00     0.147 S 
HETATM   11  O   UNL     1     -42.155  59.869 -51.880  1.00  0.00    -0.228 OA
HETATM   12  O   UNL     1     -39.653  59.537 -52.137  1.00  0.00    -0.228 OA
HETATM   13  C   UNL     1     -41.136  57.492 -51.485  1.00  0.00     0.167 C 
ENDROOT
BRANCH   1  14
HETATM   14  C   UNL     1     -41.080  54.127 -51.728  1.00  0.00     0.048 A 
HETATM   15  C   UNL     1     -40.582  53.029 -52.503  1.00  0.00     0.001 A 
HETATM   16  C   UNL     1     -40.072  51.885 -51.832  1.00  0.00    -0.024 A 
HETATM   17  C   UNL     1     -40.528  53.010 -53.920  1.00  0.00     0.014 A 
HETATM   18  C   UNL     1     -39.622  50.773 -52.562  1.00  0.00     0.012 A 
HETATM   19  C   UNL     1     -40.003  51.864 -50.436  1.00  0.00     0.012 A 
HETATM   20  C   UNL     1     -39.634  50.773 -53.954  1.00  0.00     0.001 A 
HETATM   21  C   UNL     1     -40.074  51.898 -54.635  1.00  0.00     0.001 A 
HETATM   22  C   UNL     1     -40.427  52.954 -49.688  1.00  0.00     0.003 A 
HETATM   23  C   UNL     1     -40.963  54.069 -50.329  1.00  0.00     0.030 A 
ENDBRANCH   1  14
TORSDOF 1
ENDMDL
MODEL 4
REMARK VINA RESULT:      -7.6      1.811      2.166
REMARK  1 active torsions:
REMARK  status: ('A' for Active; 'I' for Inactive)
REMARK    1  A    between atoms: C_5  and  N_6 
ROOT
HETATM    1  N   UNL     1     -42.954  56.880 -52.866  1.00  0.00    -0.320 N 
HETATM    2  C   UNL     1     -43.976  56.940 -53.856  1.00  0.00     0.141 C 
HETATM    3  N   UNL     1     -44.705  55.914 -54.193  1.00  0.00    -0.380 N 
HETATM    4  H   UNL     1     -45.424  56.020 -54.895  1.00  0.00     0.158 HD
HETATM    5  H   UNL     1     -44.549  55.021 -53.744  1.00  0.00     0.158 HD
HETATM    6  S   UNL     1     -44.169  58.501 -54.540  1.00  0.00    -0.086 SA
HETATM    7  C   UNL     1     -42.634  59.111 -53.714  1.00  0.00     0.093 C 
HETATM    8  C   UNL     1     -42.469  58.220 -52.459  1.00  0.00     0.121 C 
HETATM    9  C   UNL     1     -42.682  60.564 -53.290  1.00  0.00     0.158 C 
HETATM   10  S   UNL     1     -43.311  60.574 -51.630  1.00  0.00     0.147 S 
HETATM   11  O   UNL     1     -44.672  61.061 -51.644  1.00  0.00    -0.228 OA
HETATM   12  O   UNL     1     -42.293  61.133 -50.767  1.00  0.00    -0.228 OA
HETATM   13  C   UNL     1     -43.347  58.822 -51.361  1.00  0.00     0.167 C 
ENDROOT
BRANCH   1  14
HETATM   14  C   UNL     1     -42.355  55.736 -52.296  1.00  0.00     0.048 A 
HETATM   15  C   UNL     1     -41.561  54.829 -53.072  1.00  0.00     0.001 A 
HETATM   16  C   UNL     1     -41.112  53.620 -52.477  1.00  0.00    -0.024 A 
HETATM   17  C   UNL     1     -41.154  55.068 -54.409  1.00  0.00     0.014 A 
HETATM   18  C   UNL     1     -40.375  52.688 -53.226  1.00  0.00     0.012 A 
HETATM   19  C   UNL     1     -41.392  53.353 -51.133  1.00  0.00     0.012 A 
HETATM   20  C   UNL     1     -40.038  52.937 -54.553  1.00  0.00     0.001 A 
HETATM   21  C   UNL     1     -40.416  54.134 -55.142  1.00  0.00     0.001 A 
HETATM   22  C   UNL     1     -42.108  54.262 -50.364  1.00  0.00     0.003 A 
HETATM   23  C   UNL     1     -42.586  55.436 -50.942  1.00  0.00     0.030 A 
ENDBRANCH   1  14
TORSDOF 1
ENDMDL
MODEL 5
REMARK VINA RESULT:      -7.5      3.052      3.894
REMARK  1 active torsions:
REMARK  status: ('A' for Active; 'I' for Inactive)
REMARK    1  A    between atoms: C_5  and  N_6 
ROOT
HETATM    1  N   UNL     1     -42.095  57.613 -52.975  1.00  0.00    -0.320 N 
HETATM    2  C   UNL     1     -41.257  58.755 -53.130  1.00  0.00     0.141 C 
HETATM    3  N   UNL     1     -39.971  58.730 -52.926  1.00  0.00    -0.380 N 
HETATM    4  H   UNL     1     -39.426  59.570 -53.063  1.00  0.00     0.158 HD
HETATM    5  H   UNL     1     -39.528  57.867 -52.638  1.00  0.00     0.158 HD
HETATM    6  S   UNL     1     -42.107  60.156 -53.637  1.00  0.00    -0.086 SA
HETATM    7  C   UNL     1     -43.737  59.328 -53.375  1.00  0.00     0.093 C 
HETATM    8  C   UNL     1     -43.452  57.814 -53.535  1.00  0.00     0.121 C 
HETATM    9  C   UNL     1     -44.816  59.738 -54.355  1.00  0.00     0.158 C 
HETATM   10  S   UNL     1     -44.709  58.599 -55.713  1.00  0.00     0.147 S 
HETATM   11  O   UNL     1     -44.129  59.276 -56.851  1.00  0.00    -0.228 OA
HETATM   12  O   UNL     1     -45.959  57.874 -55.792  1.00  0.00    -0.228 OA
HETATM   13  C   UNL     1     -43.490  57.506 -55.032  1.00  0.00     0.167 C 
ENDROOT
BRANCH   1  14
HETATM   14  C   UNL     1     -41.796  56.389 -52.337  1.00  0.00     0.048 A 
HETATM   15  C   UNL     1     -41.222  55.285 -53.047  1.00  0.00     0.001 A 
HETATM   16  C   UNL     1     -41.083  54.035 -52.385  1.00  0.00    -0.024 A 
HETATM   17  C   UNL     1     -40.741  55.354 -54.379  1.00  0.00     0.014 A 
HETATM   18  C   UNL     1     -40.571  52.920 -53.069  1.00  0.00     0.012 A 
HETATM   19  C   UNL     1     -41.446  53.908 -51.041  1.00  0.00     0.012 A 
HETATM   20  C   UNL     1     -40.157  53.017 -54.394  1.00  0.00     0.001 A 
HETATM   21  C   UNL     1     -40.229  54.238 -55.047  1.00  0.00     0.001 A 
HETATM   22  C   UNL     1     -41.943  54.997 -50.336  1.00  0.00     0.003 A 
HETATM   23  C   UNL     1     -42.119  56.220 -50.979  1.00  0.00     0.030 A 
ENDBRANCH   1  14
TORSDOF 1
ENDMDL
MODEL 6
REMARK VINA RESULT:      -7.1      2.414      3.275
REMARK  1 active torsions:
REMARK  status: ('A' for Active; 'I' for Inactive)
REMARK    1  A    between atoms: C_5  and  N_6 
ROOT
HETATM    1  N   UNL     1     -41.855  57.739 -51.740  1.00  0.00    -0.320 N 
HETATM    2  C   UNL     1     -41.301  58.785 -52.532  1.00  0.00     0.141 C 
HETATM    3  N   UNL     1     -40.327  58.603 -53.376  1.00  0.00    -0.380 N 
HETATM    4  H   UNL     1     -39.982  59.382 -53.919  1.00  0.00     0.158 HD
HETATM    5  H   UNL     1     -39.926  57.680 -53.485  1.00  0.00     0.158 HD
HETATM    6  S   UNL     1     -42.064  60.302 -52.283  1.00  0.00    -0.086 SA
HETATM    7  C   UNL     1     -43.006  59.650 -50.834  1.00  0.00     0.093 C 
HETATM    8  C   UNL     1     -43.125  58.125 -51.081  1.00  0.00     0.121 C 
HETATM    9  C   UNL     1     -44.393  60.236 -50.669  1.00  0.00     0.158 C 
HETATM   10  S   UNL     1     -45.490  59.174 -51.575  1.00  0.00     0.147 S 
HETATM   11  O   UNL     1     -45.902  59.847 -52.787  1.00  0.00    -0.228 OA
HETATM   12  O   UNL     1     -46.435  58.602 -50.642  1.00  0.00    -0.228 OA
HETATM   13  C   UNL     1     -44.322  57.912 -52.007  1.00  0.00     0.167 C 
ENDROOT
BRANCH   1  14
HETATM   14  C   UNL     1     -41.323  56.453 -51.495  1.00  0.00     0.048 A 
HETATM   15  C   UNL     1     -41.363  55.416 -52.482  1.00  0.00     0.001 A 
HETATM   16  C   UNL     1     -40.949  54.105 -52.125  1.00  0.00    -0.024 A 
HETATM   17  C   UNL     1     -41.762  55.610 -53.829  1.00  0.00     0.014 A 
HETATM   18  C   UNL     1     -41.022  53.056 -53.055  1.00  0.00     0.012 A 
HETATM   19  C   UNL     1     -40.452  53.852 -50.843  1.00  0.00     0.012 A 
HETATM   20  C   UNL     1     -41.469  53.277 -54.355  1.00  0.00     0.001 A 
HETATM   21  C   UNL     1     -41.827  54.558 -54.747  1.00  0.00     0.001 A 
HETATM   22  C   UNL     1     -40.354  54.872 -49.906  1.00  0.00     0.003 A 
HETATM   23  C   UNL     1     -40.789  56.155 -50.229  1.00  0.00     0.030 A 
ENDBRANCH   1  14
TORSDOF 1
ENDMDL
MODEL 7
REMARK VINA RESULT:      -7.1      2.516      3.986
REMARK  1 active torsions:
REMARK  status: ('A' for Active; 'I' for Inactive)
REMARK    1  A    between atoms: C_5  and  N_6 
ROOT
HETATM    1  N   UNL     1     -42.605  57.500 -52.732  1.00  0.00    -0.320 N 
HETATM    2  C   UNL     1     -41.997  58.604 -53.397  1.00  0.00     0.141 C 
HETATM    3  N   UNL     1     -41.288  58.482 -54.482  1.00  0.00    -0.380 N 
HETATM    4  H   UNL     1     -40.890  59.304 -54.915  1.00  0.00     0.158 HD
HETATM    5  H   UNL     1     -41.145  57.565 -54.885  1.00  0.00     0.158 HD
HETATM    6  S   UNL     1     -42.316  60.110 -52.640  1.00  0.00    -0.086 SA
HETATM    7  C   UNL     1     -43.065  59.275 -51.173  1.00  0.00     0.093 C 
HETATM    8  C   UNL     1     -43.585  57.916 -51.702  1.00  0.00     0.121 C 
HETATM    9  C   UNL     1     -44.212  60.032 -50.536  1.00  0.00     0.158 C 
HETATM   10  S   UNL     1     -45.689  59.457 -51.335  1.00  0.00     0.147 S 
HETATM   11  O   UNL     1     -46.173  60.488 -52.226  1.00  0.00    -0.228 OA
HETATM   12  O   UNL     1     -46.529  58.835 -50.335  1.00  0.00    -0.228 OA
HETATM   13  C   UNL     1     -44.964  58.169 -52.313  1.00  0.00     0.167 C 
ENDROOT
BRANCH   1  14
HETATM   14  C   UNL     1     -42.349  56.122 -52.914  1.00  0.00     0.048 A 
HETATM   15  C   UNL     1     -41.551  55.371 -51.990  1.00  0.00     0.001 A 
HETATM   16  C   UNL     1     -41.207  54.030 -52.306  1.00  0.00    -0.024 A 
HETATM   17  C   UNL     1     -41.096  55.866 -50.742  1.00  0.00     0.014 A 
HETATM   18  C   UNL     1     -40.385  53.284 -51.445  1.00  0.00     0.012 A 
HETATM   19  C   UNL     1     -41.696  53.437 -53.474  1.00  0.00     0.012 A 
HETATM   20  C   UNL     1     -39.915  53.824 -50.252  1.00  0.00     0.001 A 
HETATM   21  C   UNL     1     -40.282  55.112 -49.892  1.00  0.00     0.001 A 
HETATM   22  C   UNL     1     -42.521  54.146 -54.337  1.00  0.00     0.003 A 
HETATM   23  C   UNL     1     -42.839  55.473 -54.060  1.00  0.00     0.030 A 
ENDBRANCH   1  14
TORSDOF 1
ENDMDL
MODEL 8
REMARK VINA RESULT:      -7.0      4.978      5.966
REMARK  1 active torsions:
REMARK  status: ('A' for Active; 'I' for Inactive)
REMARK    1  A    between atoms: C_5  and  N_6 
ROOT
HETATM    1  N   UNL     1     -43.034  57.122 -55.653  1.00  0.00    -0.320 N 
HETATM    2  C   UNL     1     -42.530  58.424 -55.939  1.00  0.00     0.141 C 
HETATM    3  N   UNL     1     -41.656  59.032 -55.189  1.00  0.00    -0.380 N 
HETATM    4  H   UNL     1     -41.326  59.951 -55.449  1.00  0.00     0.158 HD
HETATM    5  H   UNL     1     -41.310  58.576 -54.355  1.00  0.00     0.158 HD
HETATM    6  S   UNL     1     -43.168  59.097 -57.383  1.00  0.00    -0.086 SA
HETATM    7  C   UNL     1     -44.412  57.740 -57.528  1.00  0.00     0.093 C 
HETATM    8  C   UNL     1     -43.785  56.534 -56.787  1.00  0.00     0.121 C 
HETATM    9  C   UNL     1     -44.738  57.335 -58.951  1.00  0.00     0.158 C 
HETATM   10  S   UNL     1     -43.603  56.034 -59.367  1.00  0.00     0.147 S 
HETATM   11  O   UNL     1     -42.609  56.552 -60.281  1.00  0.00    -0.228 OA
HETATM   12  O   UNL     1     -44.370  54.840 -59.645  1.00  0.00    -0.228 OA
HETATM   13  C   UNL     1     -42.849  55.837 -57.775  1.00  0.00     0.167 C 
ENDROOT
BRANCH   1  14
HETATM   14  C   UNL     1     -42.936  56.393 -54.448  1.00  0.00     0.048 A 
HETATM   15  C   UNL     1     -42.016  55.305 -54.294  1.00  0.00     0.001 A 
HETATM   16  C   UNL     1     -42.070  54.516 -53.113  1.00  0.00    -0.024 A 
HETATM   17  C   UNL     1     -41.012  54.967 -55.236  1.00  0.00     0.014 A 
HETATM   18  C   UNL     1     -41.216  53.413 -52.954  1.00  0.00     0.012 A 
HETATM   19  C   UNL     1     -42.969  54.841 -52.093  1.00  0.00     0.012 A 
HETATM   20  C   UNL     1     -40.277  53.083 -53.927  1.00  0.00     0.001 A 
HETATM   21  C   UNL     1     -40.165  53.869 -55.064  1.00  0.00     0.001 A 
HETATM   22  C   UNL     1     -43.816  55.935 -52.217  1.00  0.00     0.003 A 
HETATM   23  C   UNL     1     -43.801  56.697 -53.382  1.00  0.00     0.030 A 
ENDBRANCH   1  14
TORSDOF 1
ENDMDL
MODEL 9
REMARK VINA RESULT:      -7.0      3.526      4.805
REMARK  1 active torsions:
REMARK  status: ('A' for Active; 'I' for Inactive)
REMARK    1  A    between atoms: C_5  and  N_6 
ROOT
HETATM    1  N   UNL     1     -41.868  57.036 -54.245  1.00  0.00    -0.320 N 
HETATM    2  C   UNL     1     -41.322  58.268 -53.783  1.00  0.00     0.141 C 
HETATM    3  N   UNL     1     -40.139  58.369 -53.248  1.00  0.00    -0.380 N 
HETATM    4  H   UNL     1     -39.801  59.273 -52.949  1.00  0.00     0.158 HD
HETATM    5  H   UNL     1     -39.567  57.542 -53.142  1.00  0.00     0.158 HD
HETATM    6  S   UNL     1     -42.367  59.607 -54.028  1.00  0.00    -0.086 SA
HETATM    7  C   UNL     1     -43.762  58.498 -54.512  1.00  0.00     0.093 C 
HETATM    8  C   UNL     1     -43.088  57.218 -55.066  1.00  0.00     0.121 C 
HETATM    9  C   UNL     1     -44.684  59.071 -55.568  1.00  0.00     0.158 C 
HETATM   10  S   UNL     1     -44.025  58.554 -57.134  1.00  0.00     0.147 S 
HETATM   11  O   UNL     1     -43.407  59.689 -57.783  1.00  0.00    -0.228 OA
HETATM   12  O   UNL     1     -45.016  57.727 -57.787  1.00  0.00    -0.228 OA
HETATM   13  C   UNL     1     -42.742  57.490 -56.530  1.00  0.00     0.167 C 
ENDROOT
BRANCH   1  14
HETATM   14  C   UNL     1     -41.415  55.725 -53.979  1.00  0.00     0.048 A 
HETATM   15  C   UNL     1     -41.480  55.153 -52.666  1.00  0.00     0.001 A 
HETATM   16  C   UNL     1     -40.872  53.890 -52.432  1.00  0.00    -0.024 A 
HETATM   17  C   UNL     1     -42.146  55.750 -51.566  1.00  0.00     0.014 A 
HETATM   18  C   UNL     1     -40.875  53.326 -51.146  1.00  0.00     0.012 A 
HETATM   19  C   UNL     1     -40.276  53.192 -53.486  1.00  0.00     0.012 A 
HETATM   20  C   UNL     1     -41.497  53.970 -50.079  1.00  0.00     0.001 A 
HETATM   21  C   UNL     1     -42.145  55.176 -50.292  1.00  0.00     0.001 A 
HETATM   22  C   UNL     1     -40.270  53.719 -54.772  1.00  0.00     0.003 A 
HETATM   23  C   UNL     1     -40.830  54.972 -55.011  1.00  0.00     0.030 A 
ENDBRANCH   1  14
TORSDOF 1
ENDMDL
MODEL 10
REMARK VINA RESULT:      -7.0      3.865      4.600
REMARK  1 active torsions:
REMARK  status: ('A' for Active; 'I' for Inactive)
REMARK    1  A    between atoms: C_5  and  N_6 
ROOT
HETATM    1  N   UNL     1     -42.950  57.387 -55.067  1.00  0.00    -0.320 N 
HETATM    2  C   UNL     1     -44.291  57.175 -55.497  1.00  0.00     0.141 C 
HETATM    3  N   UNL     1     -45.224  56.703 -54.721  1.00  0.00    -0.380 N 
HETATM    4  H   UNL     1     -46.161  56.584 -55.080  1.00  0.00     0.158 HD
HETATM    5  H   UNL     1     -45.003  56.463 -53.763  1.00  0.00     0.158 HD
HETATM    6  S   UNL     1     -44.561  57.631 -57.129  1.00  0.00    -0.086 SA
HETATM    7  C   UNL     1     -42.752  57.863 -57.419  1.00  0.00     0.093 C 
HETATM    8  C   UNL     1     -42.157  58.191 -56.027  1.00  0.00     0.121 C 
HETATM    9  C   UNL     1     -42.406  58.979 -58.383  1.00  0.00     0.158 C 
HETATM   10  S   UNL     1     -42.207  60.441 -57.396  1.00  0.00     0.147 S 
HETATM   11  O   UNL     1     -43.349  61.305 -57.599  1.00  0.00    -0.228 OA
HETATM   12  O   UNL     1     -40.844  60.902 -57.545  1.00  0.00    -0.228 OA
HETATM   13  C   UNL     1     -42.354  59.689 -55.797  1.00  0.00     0.167 C 
ENDROOT
BRANCH   1  14
HETATM   14  C   UNL     1     -42.318  56.897 -53.903  1.00  0.00     0.048 A 
HETATM   15  C   UNL     1     -41.648  55.630 -53.880  1.00  0.00     0.001 A 
HETATM   16  C   UNL     1     -41.164  55.127 -52.642  1.00  0.00    -0.024 A 
HETATM   17  C   UNL     1     -41.399  54.837 -55.028  1.00  0.00     0.014 A 
HETATM   18  C   UNL     1     -40.548  53.867 -52.578  1.00  0.00     0.012 A 
HETATM   19  C   UNL     1     -41.287  55.892 -51.478  1.00  0.00     0.012 A 
HETATM   20  C   UNL     1     -40.368  53.095 -53.722  1.00  0.00     0.001 A 
HETATM   21  C   UNL     1     -40.780  53.586 -54.951  1.00  0.00     0.001 A 
HETATM   22  C   UNL     1     -41.879  57.148 -51.514  1.00  0.00     0.003 A 
HETATM   23  C   UNL     1     -42.391  57.640 -52.711  1.00  0.00     0.030 A 
ENDBRANCH   1  14
TORSDOF 1
ENDMDL
