MODEL 1
REMARK VINA RESULT:      -7.7      0.000      0.000
REMARK  4 active torsions:
REMARK  status: ('A' for Active; 'I' for Inactive)
REMARK    1  A    between atoms: C_5  and  C_6 
REMARK       I    between atoms: C_6  and  N_7 
REMARK    2  A    between atoms: N_7  and  C_8 
REMARK    3  A    between atoms: C_8  and  N_9 
REMARK    4  A    between atoms: N_9  and  C_10 
ROOT
HETATM    1  C   UNL     1     -41.073  53.892 -54.622  1.00  0.00     0.257 C 
HETATM    2  N   UNL     1     -42.418  54.209 -54.456  1.00  0.00    -0.299 N 
HETATM    3  O   UNL     1     -40.288  54.437 -55.388  1.00  0.00    -0.267 OA
HETATM    4  H   UNL     1     -42.908  53.727 -53.706  1.00  0.00     0.171 HD
ENDROOT
BRANCH   2   5
HETATM    5  C   UNL     1     -43.221  55.137 -55.088  1.00  0.00     0.180 C 
HETATM    6  S   UNL     1     -44.064  56.397 -54.384  1.00  0.00    -0.040 SA
BRANCH   5   7
HETATM    7  N   UNL     1     -43.337  55.008 -56.451  1.00  0.00    -0.318 N 
HETATM    8  H   UNL     1     -43.743  54.126 -56.741  1.00  0.00     0.170 HD
BRANCH   7   9
HETATM    9  C   UNL     1     -42.991  55.917 -57.459  1.00  0.00     0.129 A 
HETATM   10  N   UNL     1     -42.397  57.087 -57.129  1.00  0.00    -0.243 NA
HETATM   11  C   UNL     1     -42.097  57.937 -58.140  1.00  0.00     0.125 A 
HETATM   12  C   UNL     1     -42.352  57.679 -59.480  1.00  0.00    -0.044 A 
HETATM   13  C   UNL     1     -42.029  58.676 -60.546  1.00  0.00     0.049 C 
HETATM   14  C   UNL     1     -42.968  56.468 -59.791  1.00  0.00     0.012 A 
HETATM   15  C   UNL     1     -43.289  55.574 -58.771  1.00  0.00     0.051 A 
ENDBRANCH   7   9
ENDBRANCH   5   7
ENDBRANCH   2   5
BRANCH   1  16
HETATM   16  C   UNL     1     -40.564  52.817 -53.723  1.00  0.00     0.032 A 
HETATM   17  C   UNL     1     -40.220  51.545 -54.199  1.00  0.00     0.017 A 
HETATM   18  C   UNL     1     -39.772  50.564 -53.308  1.00  0.00     0.007 A 
HETATM   19  C   UNL     1     -39.663  50.840 -51.940  1.00  0.00    -0.062 A 
HETATM   20  C   UNL     1     -39.164  49.796 -50.985  1.00  0.00     0.048 C 
HETATM   21  C   UNL     1     -39.969  52.125 -51.477  1.00  0.00     0.007 A 
HETATM   22  C   UNL     1     -40.415  53.108 -52.363  1.00  0.00     0.017 A 
ENDBRANCH   1  16
TORSDOF 4
ENDMDL
MODEL 2
REMARK VINA RESULT:      -7.7      2.005      2.778
REMARK  4 active torsions:
REMARK  status: ('A' for Active; 'I' for Inactive)
REMARK    1  A    between atoms: C_5  and  C_6 
REMARK       I    between atoms: C_6  and  N_7 
REMARK    2  A    between atoms: N_7  and  C_8 
REMARK    3  A    between atoms: C_8  and  N_9 
REMARK    4  A    between atoms: N_9  and  C_10 
ROOT
HETATM    1  C   UNL     1     -41.123  55.167 -52.626  1.00  0.00     0.257 C 
HETATM    2  N   UNL     1     -40.973  56.084 -53.663  1.00  0.00    -0.299 N 
HETATM    3  O   UNL     1     -41.598  55.394 -51.520  1.00  0.00    -0.267 OA
HETATM    4  H   UNL     1     -40.652  55.712 -54.553  1.00  0.00     0.171 HD
ENDROOT
BRANCH   2   5
HETATM    5  C   UNL     1     -41.255  57.433 -53.736  1.00  0.00     0.180 C 
HETATM    6  S   UNL     1     -40.555  58.666 -52.851  1.00  0.00    -0.040 SA
BRANCH   5   7
HETATM    7  N   UNL     1     -42.222  57.801 -54.640  1.00  0.00    -0.318 N 
HETATM    8  H   UNL     1     -42.778  58.593 -54.338  1.00  0.00     0.170 HD
BRANCH   7   9
HETATM    9  C   UNL     1     -42.517  57.251 -55.894  1.00  0.00     0.129 A 
HETATM   10  N   UNL     1     -42.808  55.934 -55.994  1.00  0.00    -0.243 NA
HETATM   11  C   UNL     1     -43.072  55.449 -57.231  1.00  0.00     0.125 A 
HETATM   12  C   UNL     1     -43.069  56.215 -58.388  1.00  0.00    -0.044 A 
HETATM   13  C   UNL     1     -43.333  55.611 -59.730  1.00  0.00     0.049 C 
HETATM   14  C   UNL     1     -42.762  57.569 -58.257  1.00  0.00     0.012 A 
HETATM   15  C   UNL     1     -42.486  58.095 -56.996  1.00  0.00     0.051 A 
ENDBRANCH   7   9
ENDBRANCH   5   7
ENDBRANCH   2   5
BRANCH   1  16
HETATM   16  C   UNL     1     -40.705  53.774 -52.952  1.00  0.00     0.032 A 
HETATM   17  C   UNL     1     -40.191  52.902 -51.984  1.00  0.00     0.017 A 
HETATM   18  C   UNL     1     -39.788  51.613 -52.349  1.00  0.00     0.007 A 
HETATM   19  C   UNL     1     -39.893  51.182 -53.677  1.00  0.00    -0.062 A 
HETATM   20  C   UNL     1     -39.481  49.794 -54.068  1.00  0.00     0.048 C 
HETATM   21  C   UNL     1     -40.446  52.044 -54.632  1.00  0.00     0.007 A 
HETATM   22  C   UNL     1     -40.851  53.331 -54.272  1.00  0.00     0.017 A 
ENDBRANCH   1  16
TORSDOF 4
ENDMDL
MODEL 3
REMARK VINA RESULT:      -7.5      3.044      4.420
REMARK  4 active torsions:
REMARK  status: ('A' for Active; 'I' for Inactive)
REMARK    1  A    between atoms: C_5  and  C_6 
REMARK       I    between atoms: C_6  and  N_7 
REMARK    2  A    between atoms: N_7  and  C_8 
REMARK    3  A    between atoms: C_8  and  N_9 
REMARK    4  A    between atoms: N_9  and  C_10 
ROOT
HETATM    1  C   UNL     1     -40.568  53.977 -54.477  1.00  0.00     0.257 C 
HETATM    2  N   UNL     1     -41.840  54.519 -54.312  1.00  0.00    -0.299 N 
HETATM    3  O   UNL     1     -39.702  54.378 -55.245  1.00  0.00    -0.267 OA
HETATM    4  H   UNL     1     -42.404  54.130 -53.561  1.00  0.00     0.171 HD
ENDROOT
BRANCH   2   5
HETATM    5  C   UNL     1     -42.474  55.566 -54.949  1.00  0.00     0.180 C 
HETATM    6  S   UNL     1     -42.927  55.653 -56.555  1.00  0.00    -0.040 SA
BRANCH   5   7
HETATM    7  N   UNL     1     -42.767  56.660 -54.170  1.00  0.00    -0.318 N 
HETATM    8  H   UNL     1     -43.716  56.994 -54.282  1.00  0.00     0.170 HD
BRANCH   7   9
HETATM    9  C   UNL     1     -41.950  57.341 -53.258  1.00  0.00     0.129 A 
HETATM   10  N   UNL     1     -42.015  57.034 -51.943  1.00  0.00    -0.243 NA
HETATM   11  C   UNL     1     -41.215  57.733 -51.102  1.00  0.00     0.125 A 
HETATM   12  C   UNL     1     -40.336  58.728 -51.506  1.00  0.00    -0.044 A 
HETATM   13  C   UNL     1     -39.505  59.488 -50.522  1.00  0.00     0.049 C 
HETATM   14  C   UNL     1     -40.291  59.026 -52.867  1.00  0.00     0.012 A 
HETATM   15  C   UNL     1     -41.104  58.324 -53.756  1.00  0.00     0.051 A 
ENDBRANCH   7   9
ENDBRANCH   5   7
ENDBRANCH   2   5
BRANCH   1  16
HETATM   16  C   UNL     1     -40.248  52.836 -53.573  1.00  0.00     0.032 A 
HETATM   17  C   UNL     1     -39.967  51.553 -54.060  1.00  0.00     0.017 A 
HETATM   18  C   UNL     1     -39.700  50.510 -53.168  1.00  0.00     0.007 A 
HETATM   19  C   UNL     1     -39.709  50.735 -51.786  1.00  0.00    -0.062 A 
HETATM   20  C   UNL     1     -39.403  49.623 -50.825  1.00  0.00     0.048 C 
HETATM   21  C   UNL     1     -39.951  52.028 -51.306  1.00  0.00     0.007 A 
HETATM   22  C   UNL     1     -40.217  53.072 -52.194  1.00  0.00     0.017 A 
ENDBRANCH   1  16
TORSDOF 4
ENDMDL
MODEL 4
REMARK VINA RESULT:      -7.5      4.193      5.683
REMARK  4 active torsions:
REMARK  status: ('A' for Active; 'I' for Inactive)
REMARK    1  A    between atoms: C_5  and  C_6 
REMARK       I    between atoms: C_6  and  N_7 
REMARK    2  A    between atoms: N_7  and  C_8 
REMARK    3  A    between atoms: C_8  and  N_9 
REMARK    4  A    between atoms: N_9  and  C_10 
ROOT
HETATM    1  C   UNL     1     -41.517  55.101 -52.133  1.00  0.00     0.257 C 
HETATM    2  N   UNL     1     -42.146  55.881 -53.099  1.00  0.00    -0.299 N 
HETATM    3  O   UNL     1     -41.407  55.369 -50.943  1.00  0.00    -0.267 OA
HETATM    4  H   UNL     1     -42.239  55.469 -54.024  1.00  0.00     0.171 HD
ENDROOT
BRANCH   2   5
HETATM    5  C   UNL     1     -42.753  57.118 -53.020  1.00  0.00     0.180 C 
HETATM    6  S   UNL     1     -44.373  57.439 -52.765  1.00  0.00    -0.040 SA
BRANCH   5   7
HETATM    7  N   UNL     1     -41.928  58.207 -53.166  1.00  0.00    -0.318 N 
HETATM    8  H   UNL     1     -42.099  58.733 -54.015  1.00  0.00     0.170 HD
BRANCH   7   9
HETATM    9  C   UNL     1     -40.924  58.678 -52.310  1.00  0.00     0.129 A 
HETATM   10  N   UNL     1     -39.665  58.835 -52.779  1.00  0.00    -0.243 NA
HETATM   11  C   UNL     1     -38.729  59.279 -51.906  1.00  0.00     0.125 A 
HETATM   12  C   UNL     1     -38.982  59.587 -50.577  1.00  0.00    -0.044 A 
HETATM   13  C   UNL     1     -37.896  60.039 -49.655  1.00  0.00     0.049 C 
HETATM   14  C   UNL     1     -40.288  59.413 -50.119  1.00  0.00     0.012 A 
HETATM   15  C   UNL     1     -41.272  58.956 -50.994  1.00  0.00     0.051 A 
ENDBRANCH   7   9
ENDBRANCH   5   7
ENDBRANCH   2   5
BRANCH   1  16
HETATM   16  C   UNL     1     -40.988  53.797 -52.623  1.00  0.00     0.032 A 
HETATM   17  C   UNL     1     -40.172  52.976 -51.834  1.00  0.00     0.017 A 
HETATM   18  C   UNL     1     -39.680  51.774 -52.352  1.00  0.00     0.007 A 
HETATM   19  C   UNL     1     -39.996  51.379 -53.657  1.00  0.00    -0.062 A 
HETATM   20  C   UNL     1     -39.487  50.080 -54.210  1.00  0.00     0.048 C 
HETATM   21  C   UNL     1     -40.845  52.183 -54.427  1.00  0.00     0.007 A 
HETATM   22  C   UNL     1     -41.339  53.383 -53.913  1.00  0.00     0.017 A 
ENDBRANCH   1  16
TORSDOF 4
ENDMDL
MODEL 5
REMARK VINA RESULT:      -7.4      4.198      5.674
REMARK  4 active torsions:
REMARK  status: ('A' for Active; 'I' for Inactive)
REMARK    1  A    between atoms: C_5  and  C_6 
REMARK       I    between atoms: C_6  and  N_7 
REMARK    2  A    between atoms: N_7  and  C_8 
REMARK    3  A    between atoms: C_8  and  N_9 
REMARK    4  A    between atoms: N_9  and  C_10 
ROOT
HETATM    1  C   UNL     1     -41.754  54.835 -52.503  1.00  0.00     0.257 C 
HETATM    2  N   UNL     1     -42.933  55.100 -53.194  1.00  0.00    -0.299 N 
HETATM    3  O   UNL     1     -41.257  55.527 -51.623  1.00  0.00    -0.267 OA
HETATM    4  H   UNL     1     -43.262  54.374 -53.825  1.00  0.00     0.171 HD
ENDROOT
BRANCH   2   5
HETATM    5  C   UNL     1     -43.808  56.166 -53.129  1.00  0.00     0.180 C 
HETATM    6  S   UNL     1     -44.449  57.033 -54.406  1.00  0.00    -0.040 SA
BRANCH   5   7
HETATM    7  N   UNL     1     -44.194  56.556 -51.869  1.00  0.00    -0.318 N 
HETATM    8  H   UNL     1     -44.393  55.780 -51.248  1.00  0.00     0.170 HD
BRANCH   7   9
HETATM    9  C   UNL     1     -44.329  57.848 -51.344  1.00  0.00     0.129 A 
HETATM   10  N   UNL     1     -45.517  58.241 -50.832  1.00  0.00    -0.243 NA
HETATM   11  C   UNL     1     -45.598  59.505 -50.351  1.00  0.00     0.125 A 
HETATM   12  C   UNL     1     -44.544  60.409 -50.346  1.00  0.00    -0.044 A 
HETATM   13  C   UNL     1     -44.709  61.803 -49.834  1.00  0.00     0.049 C 
HETATM   14  C   UNL     1     -43.331  59.978 -50.884  1.00  0.00     0.012 A 
HETATM   15  C   UNL     1     -43.219  58.683 -51.386  1.00  0.00     0.051 A 
ENDBRANCH   7   9
ENDBRANCH   5   7
ENDBRANCH   2   5
BRANCH   1  16
HETATM   16  C   UNL     1     -41.094  53.546 -52.858  1.00  0.00     0.032 A 
HETATM   17  C   UNL     1     -40.225  52.885 -51.980  1.00  0.00     0.017 A 
HETATM   18  C   UNL     1     -39.610  51.691 -52.373  1.00  0.00     0.007 A 
HETATM   19  C   UNL     1     -39.854  51.148 -53.640  1.00  0.00    -0.062 A 
HETATM   20  C   UNL     1     -39.212  49.858 -54.058  1.00  0.00     0.048 C 
HETATM   21  C   UNL     1     -40.754  51.793 -54.498  1.00  0.00     0.007 A 
HETATM   22  C   UNL     1     -41.371  52.983 -54.109  1.00  0.00     0.017 A 
ENDBRANCH   1  16
TORSDOF 4
ENDMDL
MODEL 6
REMARK VINA RESULT:      -7.4      1.490      1.956
REMARK  4 active torsions:
REMARK  status: ('A' for Active; 'I' for Inactive)
REMARK    1  A    between atoms: C_5  and  C_6 
REMARK       I    between atoms: C_6  and  N_7 
REMARK    2  A    between atoms: N_7  and  C_8 
REMARK    3  A    between atoms: C_8  and  N_9 
REMARK    4  A    between atoms: N_9  and  C_10 
ROOT
HETATM    1  C   UNL     1     -40.960  54.953 -53.936  1.00  0.00     0.257 C 
HETATM    2  N   UNL     1     -42.232  55.439 -53.645  1.00  0.00    -0.299 N 
HETATM    3  O   UNL     1     -40.143  55.464 -54.691  1.00  0.00    -0.267 OA
HETATM    4  H   UNL     1     -42.749  54.949 -52.920  1.00  0.00     0.171 HD
ENDROOT
BRANCH   2   5
HETATM    5  C   UNL     1     -42.918  56.538 -54.120  1.00  0.00     0.180 C 
HETATM    6  S   UNL     1     -44.198  57.329 -53.391  1.00  0.00    -0.040 SA
BRANCH   5   7
HETATM    7  N   UNL     1     -42.499  57.037 -55.330  1.00  0.00    -0.318 N 
HETATM    8  H   UNL     1     -41.666  57.610 -55.265  1.00  0.00     0.170 HD
BRANCH   7   9
HETATM    9  C   UNL     1     -43.050  56.848 -56.604  1.00  0.00     0.129 A 
HETATM   10  N   UNL     1     -43.763  57.843 -57.180  1.00  0.00    -0.243 NA
HETATM   11  C   UNL     1     -44.286  57.603 -58.406  1.00  0.00     0.125 A 
HETATM   12  C   UNL     1     -44.129  56.414 -59.104  1.00  0.00    -0.044 A 
HETATM   13  C   UNL     1     -44.764  56.199 -60.440  1.00  0.00     0.049 C 
HETATM   14  C   UNL     1     -43.393  55.403 -58.486  1.00  0.00     0.012 A 
HETATM   15  C   UNL     1     -42.843  55.622 -57.224  1.00  0.00     0.051 A 
ENDBRANCH   7   9
ENDBRANCH   5   7
ENDBRANCH   2   5
BRANCH   1  16
HETATM   16  C   UNL     1     -40.572  53.721 -53.192  1.00  0.00     0.032 A 
HETATM   17  C   UNL     1     -40.547  53.669 -51.792  1.00  0.00     0.017 A 
HETATM   18  C   UNL     1     -40.150  52.495 -51.143  1.00  0.00     0.007 A 
HETATM   19  C   UNL     1     -39.775  51.366 -51.881  1.00  0.00    -0.062 A 
HETATM   20  C   UNL     1     -39.368  50.098 -51.189  1.00  0.00     0.048 C 
HETATM   21  C   UNL     1     -39.841  51.410 -53.279  1.00  0.00     0.007 A 
HETATM   22  C   UNL     1     -40.239  52.580 -53.930  1.00  0.00     0.017 A 
ENDBRANCH   1  16
TORSDOF 4
ENDMDL
MODEL 7
REMARK VINA RESULT:      -7.2     14.275     17.142
REMARK  4 active torsions:
REMARK  status: ('A' for Active; 'I' for Inactive)
REMARK    1  A    between atoms: C_5  and  C_6 
REMARK       I    between atoms: C_6  and  N_7 
REMARK    2  A    between atoms: N_7  and  C_8 
REMARK    3  A    between atoms: C_8  and  N_9 
REMARK    4  A    between atoms: N_9  and  C_10 
ROOT
HETATM    1  C   UNL     1     -35.605  42.009 -53.863  1.00  0.00     0.257 C 
HETATM    2  N   UNL     1     -34.569  41.128 -53.567  1.00  0.00    -0.299 N 
HETATM    3  O   UNL     1     -36.117  42.813 -53.093  1.00  0.00    -0.267 OA
HETATM    4  H   UNL     1     -34.190  40.596 -54.346  1.00  0.00     0.171 HD
ENDROOT
BRANCH   2   5
HETATM    5  C   UNL     1     -33.887  40.884 -52.392  1.00  0.00     0.180 C 
HETATM    6  S   UNL     1     -34.487  40.966 -50.834  1.00  0.00    -0.040 SA
BRANCH   5   7
HETATM    7  N   UNL     1     -32.564  40.533 -52.520  1.00  0.00    -0.318 N 
HETATM    8  H   UNL     1     -31.974  40.903 -51.784  1.00  0.00     0.170 HD
BRANCH   7   9
HETATM    9  C   UNL     1     -31.950  39.742 -53.499  1.00  0.00     0.129 A 
HETATM   10  N   UNL     1     -31.699  40.265 -54.721  1.00  0.00    -0.243 NA
HETATM   11  C   UNL     1     -31.117  39.453 -55.636  1.00  0.00     0.125 A 
HETATM   12  C   UNL     1     -30.759  38.134 -55.395  1.00  0.00    -0.044 A 
HETATM   13  C   UNL     1     -30.152  37.278 -56.461  1.00  0.00     0.049 C 
HETATM   14  C   UNL     1     -31.033  37.619 -54.128  1.00  0.00     0.012 A 
HETATM   15  C   UNL     1     -31.632  38.431 -53.167  1.00  0.00     0.051 A 
ENDBRANCH   7   9
ENDBRANCH   5   7
ENDBRANCH   2   5
BRANCH   1  16
HETATM   16  C   UNL     1     -36.070  41.980 -55.279  1.00  0.00     0.032 A 
HETATM   17  C   UNL     1     -37.396  41.691 -55.624  1.00  0.00     0.017 A 
HETATM   18  C   UNL     1     -37.775  41.651 -56.970  1.00  0.00     0.007 A 
HETATM   19  C   UNL     1     -36.838  41.897 -57.981  1.00  0.00    -0.062 A 
HETATM   20  C   UNL     1     -37.244  41.874 -59.425  1.00  0.00     0.048 C 
HETATM   21  C   UNL     1     -35.523  42.225 -57.629  1.00  0.00     0.007 A 
HETATM   22  C   UNL     1     -35.142  42.268 -56.286  1.00  0.00     0.017 A 
ENDBRANCH   1  16
TORSDOF 4
ENDMDL
MODEL 8
REMARK VINA RESULT:      -7.2     13.939     16.140
REMARK  4 active torsions:
REMARK  status: ('A' for Active; 'I' for Inactive)
REMARK    1  A    between atoms: C_5  and  C_6 
REMARK       I    between atoms: C_6  and  N_7 
REMARK    2  A    between atoms: N_7  and  C_8 
REMARK    3  A    between atoms: C_8  and  N_9 
REMARK    4  A    between atoms: N_9  and  C_10 
ROOT
HETATM    1  C   UNL     1     -37.119  41.716 -56.028  1.00  0.00     0.257 C 
HETATM    2  N   UNL     1     -37.765  41.053 -54.989  1.00  0.00    -0.299 N 
HETATM    3  O   UNL     1     -36.396  42.700 -55.923  1.00  0.00    -0.267 OA
HETATM    4  H   UNL     1     -38.249  40.192 -55.233  1.00  0.00     0.171 HD
ENDROOT
BRANCH   2   5
HETATM    5  C   UNL     1     -37.815  41.311 -53.634  1.00  0.00     0.180 C 
HETATM    6  S   UNL     1     -39.031  40.894 -52.565  1.00  0.00    -0.040 SA
BRANCH   5   7
HETATM    7  N   UNL     1     -36.741  41.986 -53.107  1.00  0.00    -0.318 N 
HETATM    8  H   UNL     1     -36.896  42.983 -53.014  1.00  0.00     0.170 HD
BRANCH   7   9
HETATM    9  C   UNL     1     -35.504  41.486 -52.679  1.00  0.00     0.129 A 
HETATM   10  N   UNL     1     -34.824  40.621 -53.465  1.00  0.00    -0.243 NA
HETATM   11  C   UNL     1     -33.641  40.157 -52.998  1.00  0.00     0.125 A 
HETATM   12  C   UNL     1     -33.086  40.517 -51.779  1.00  0.00    -0.044 A 
HETATM   13  C   UNL     1     -31.791  39.939 -51.304  1.00  0.00     0.049 C 
HETATM   14  C   UNL     1     -33.809  41.408 -50.986  1.00  0.00     0.012 A 
HETATM   15  C   UNL     1     -35.031  41.902 -51.441  1.00  0.00     0.051 A 
ENDBRANCH   7   9
ENDBRANCH   5   7
ENDBRANCH   2   5
BRANCH   1  16
HETATM   16  C   UNL     1     -37.305  41.107 -57.376  1.00  0.00     0.032 A 
HETATM   17  C   UNL     1     -36.961  41.780 -58.555  1.00  0.00     0.017 A 
HETATM   18  C   UNL     1     -37.180  41.173 -59.796  1.00  0.00     0.007 A 
HETATM   19  C   UNL     1     -37.743  39.894 -59.873  1.00  0.00    -0.062 A 
HETATM   20  C   UNL     1     -37.961  39.231 -61.201  1.00  0.00     0.048 C 
HETATM   21  C   UNL     1     -38.047  39.209 -58.690  1.00  0.00     0.007 A 
HETATM   22  C   UNL     1     -37.828  39.811 -57.450  1.00  0.00     0.017 A 
ENDBRANCH   1  16
TORSDOF 4
ENDMDL
MODEL 9
REMARK VINA RESULT:      -6.9      2.401      3.332
REMARK  4 active torsions:
REMARK  status: ('A' for Active; 'I' for Inactive)
REMARK    1  A    between atoms: C_5  and  C_6 
REMARK       I    between atoms: C_6  and  N_7 
REMARK    2  A    between atoms: N_7  and  C_8 
REMARK    3  A    between atoms: C_8  and  N_9 
REMARK    4  A    between atoms: N_9  and  C_10 
ROOT
HETATM    1  C   UNL     1     -42.578  55.593 -55.132  1.00  0.00     0.257 C 
HETATM    2  N   UNL     1     -41.940  56.023 -56.292  1.00  0.00    -0.299 N 
HETATM    3  O   UNL     1     -43.690  55.931 -54.747  1.00  0.00    -0.267 OA
HETATM    4  H   UNL     1     -41.058  55.570 -56.519  1.00  0.00     0.171 HD
ENDROOT
BRANCH   2   5
HETATM    5  C   UNL     1     -42.324  56.925 -57.263  1.00  0.00     0.180 C 
HETATM    6  S   UNL     1     -42.484  58.582 -57.103  1.00  0.00    -0.040 SA
BRANCH   5   7
HETATM    7  N   UNL     1     -42.606  56.400 -58.501  1.00  0.00    -0.318 N 
HETATM    8  H   UNL     1     -41.806  55.969 -58.950  1.00  0.00     0.170 HD
BRANCH   7   9
HETATM    9  C   UNL     1     -43.823  56.370 -59.194  1.00  0.00     0.129 A 
HETATM   10  N   UNL     1     -43.918  55.674 -60.350  1.00  0.00    -0.243 NA
HETATM   11  C   UNL     1     -45.113  55.689 -60.987  1.00  0.00     0.125 A 
HETATM   12  C   UNL     1     -46.236  56.363 -60.527  1.00  0.00    -0.044 A 
HETATM   13  C   UNL     1     -47.517  56.371 -61.298  1.00  0.00     0.049 C 
HETATM   14  C   UNL     1     -46.109  57.075 -59.335  1.00  0.00     0.012 A 
HETATM   15  C   UNL     1     -44.891  57.077 -58.657  1.00  0.00     0.051 A 
ENDBRANCH   7   9
ENDBRANCH   5   7
ENDBRANCH   2   5
BRANCH   1  16
HETATM   16  C   UNL     1     -41.825  54.580 -54.338  1.00  0.00     0.032 A 
HETATM   17  C   UNL     1     -42.064  54.371 -52.974  1.00  0.00     0.017 A 
HETATM   18  C   UNL     1     -41.310  53.427 -52.269  1.00  0.00     0.007 A 
HETATM   19  C   UNL     1     -40.314  52.684 -52.915  1.00  0.00    -0.062 A 
HETATM   20  C   UNL     1     -39.518  51.656 -52.168  1.00  0.00     0.048 C 
HETATM   21  C   UNL     1     -40.107  52.869 -54.288  1.00  0.00     0.007 A 
HETATM   22  C   UNL     1     -40.859  53.810 -54.995  1.00  0.00     0.017 A 
ENDBRANCH   1  16
TORSDOF 4
ENDMDL
MODEL 10
REMARK VINA RESULT:      -6.8      2.605      3.016
REMARK  4 active torsions:
REMARK  status: ('A' for Active; 'I' for Inactive)
REMARK    1  A    between atoms: C_5  and  C_6 
REMARK       I    between atoms: C_6  and  N_7 
REMARK    2  A    between atoms: N_7  and  C_8 
REMARK    3  A    between atoms: C_8  and  N_9 
REMARK    4  A    between atoms: N_9  and  C_10 
ROOT
HETATM    1  C   UNL     1     -40.698  54.888 -53.785  1.00  0.00     0.257 C 
HETATM    2  N   UNL     1     -41.233  55.674 -52.768  1.00  0.00    -0.299 N 
HETATM    3  O   UNL     1     -40.421  55.259 -54.919  1.00  0.00    -0.267 OA
HETATM    4  H   UNL     1     -41.312  55.238 -51.853  1.00  0.00     0.171 HD
ENDROOT
BRANCH   2   5
HETATM    5  C   UNL     1     -41.621  56.998 -52.747  1.00  0.00     0.180 C 
HETATM    6  S   UNL     1     -42.593  57.754 -51.616  1.00  0.00    -0.040 SA
BRANCH   5   7
HETATM    7  N   UNL     1     -41.154  57.782 -53.774  1.00  0.00    -0.318 N 
HETATM    8  H   UNL     1     -40.143  57.817 -53.829  1.00  0.00     0.170 HD
BRANCH   7   9
HETATM    9  C   UNL     1     -41.873  58.504 -54.735  1.00  0.00     0.129 A 
HETATM   10  N   UNL     1     -41.639  59.827 -54.892  1.00  0.00    -0.243 NA
HETATM   11  C   UNL     1     -42.372  60.481 -55.825  1.00  0.00     0.125 A 
HETATM   12  C   UNL     1     -43.334  59.881 -56.625  1.00  0.00    -0.044 A 
HETATM   13  C   UNL     1     -44.136  60.667 -57.612  1.00  0.00     0.049 C 
HETATM   14  C   UNL     1     -43.558  58.517 -56.440  1.00  0.00     0.012 A 
HETATM   15  C   UNL     1     -42.819  57.818 -55.487  1.00  0.00     0.051 A 
ENDBRANCH   7   9
ENDBRANCH   5   7
ENDBRANCH   2   5
BRANCH   1  16
HETATM   16  C   UNL     1     -40.396  53.480 -53.400  1.00  0.00     0.032 A 
HETATM   17  C   UNL     1     -40.128  53.108 -52.076  1.00  0.00     0.017 A 
HETATM   18  C   UNL     1     -39.824  51.777 -51.773  1.00  0.00     0.007 A 
HETATM   19  C   UNL     1     -39.785  50.807 -52.782  1.00  0.00    -0.062 A 
HETATM   20  C   UNL     1     -39.480  49.375 -52.457  1.00  0.00     0.048 C 
HETATM   21  C   UNL     1     -40.094  51.177 -54.096  1.00  0.00     0.007 A 
HETATM   22  C   UNL     1     -40.399  52.505 -54.403  1.00  0.00     0.017 A 
ENDBRANCH   1  16
TORSDOF 4
ENDMDL
