MODEL 1
REMARK VINA RESULT:      -8.7      0.000      0.000
REMARK  8 active torsions:
REMARK  status: ('A' for Active; 'I' for Inactive)
REMARK    1  A    between atoms: C_2  and  N_3 
REMARK    2  A    between atoms: C_2  and  C_36 
REMARK       I    between atoms: N_3  and  C_4 
REMARK    3  A    between atoms: C_4  and  C_5 
REMARK    4  A    between atoms: C_5  and  N_6 
REMARK       I    between atoms: N_12  and  C_13 
REMARK    5  A    between atoms: C_13  and  C_14 
REMARK    6  A    between atoms: C_15  and  O_16 
REMARK    7  A    between atoms: C_21  and  O_22 
REMARK    8  A    between atoms: N_27  and  C_28 
ROOT
HETATM    1  N   UNL     1     -42.023  56.622 -50.832  1.00  0.00    -0.325 N 
HETATM    2  C   UNL     1     -42.727  56.144 -51.920  1.00  0.00     0.250 C 
HETATM    3  O   UNL     1     -42.998  54.970 -52.131  1.00  0.00    -0.270 OA
HETATM    4  C   UNL     1     -43.028  57.342 -52.845  1.00  0.00     0.118 C 
HETATM    5  C   UNL     1     -44.517  57.304 -53.237  1.00  0.00     0.061 C 
HETATM    6  C   UNL     1     -44.789  56.419 -54.446  1.00  0.00     0.129 C 
HETATM    7  N   UNL     1     -43.809  56.648 -55.497  1.00  0.00    -0.348 N 
HETATM    8  C   UNL     1     -44.140  57.497 -56.561  1.00  0.00     0.259 C 
HETATM    9  O   UNL     1     -45.192  58.131 -56.614  1.00  0.00    -0.267 OA
HETATM   10  C   UNL     1     -42.448  56.310 -55.109  1.00  0.00     0.129 C 
HETATM   11  C   UNL     1     -41.994  57.246 -53.990  1.00  0.00     0.061 C 
HETATM   12  N   UNL     1     -42.725  58.495 -51.949  1.00  0.00    -0.346 N 
HETATM   13  C   UNL     1     -42.033  58.052 -50.747  1.00  0.00     0.254 C 
ENDROOT
BRANCH  12  14
HETATM   14  C   UNL     1     -42.837  59.846 -52.229  1.00  0.00     0.032 A 
HETATM   15  C   UNL     1     -42.731  60.374 -53.527  1.00  0.00     0.029 A 
HETATM   16  C   UNL     1     -42.867  61.743 -53.799  1.00  0.00     0.002 A 
HETATM   17  C   UNL     1     -43.116  62.639 -52.771  1.00  0.00     0.000 A 
HETATM   18  C   UNL     1     -43.228  62.162 -51.473  1.00  0.00     0.002 A 
HETATM   19  C   UNL     1     -43.090  60.790 -51.215  1.00  0.00     0.029 A 
ENDBRANCH  12  14
BRANCH   1  20
HETATM   20  C   UNL     1     -41.628  55.785 -49.709  1.00  0.00     0.230 C 
BRANCH  20  21
HETATM   21  C   UNL     1     -40.543  54.744 -50.031  1.00  0.00     0.236 C 
HETATM   22  N   UNL     1     -41.018  53.481 -50.318  1.00  0.00    -0.351 N 
HETATM   23  H   UNL     1     -41.978  53.252 -50.095  1.00  0.00     0.163 HD
HETATM   24  O   UNL     1     -39.342  54.999 -49.992  1.00  0.00    -0.272 OA
BRANCH  22  25
HETATM   25  C   UNL     1     -40.098  52.374 -50.569  1.00  0.00     0.113 C 
HETATM   26  C   UNL     1     -40.450  51.221 -49.617  1.00  0.00     0.037 C 
BRANCH  25  27
HETATM   27  C   UNL     1     -40.072  51.951 -52.037  1.00  0.00    -0.036 A 
HETATM   28  C   UNL     1     -40.357  52.850 -53.080  1.00  0.00     0.009 A 
HETATM   29  C   UNL     1     -40.298  52.449 -54.419  1.00  0.00     0.001 A 
HETATM   30  C   UNL     1     -39.928  51.147 -54.744  1.00  0.00     0.000 A 
HETATM   31  C   UNL     1     -39.605  50.250 -53.732  1.00  0.00     0.001 A 
HETATM   32  C   UNL     1     -39.668  50.652 -52.394  1.00  0.00     0.009 A 
ENDBRANCH  25  27
ENDBRANCH  22  25
ENDBRANCH  20  21
ENDBRANCH   1  20
BRANCH   8  33
HETATM   33  C   UNL     1     -43.237  57.538 -57.736  1.00  0.00     0.098 A 
HETATM   34  C   UNL     1     -43.338  56.509 -58.687  1.00  0.00     0.086 A 
HETATM   35  C   UNL     1     -42.519  56.512 -59.816  1.00  0.00     0.038 A 
HETATM   36  C   UNL     1     -41.580  57.523 -59.988  1.00  0.00     0.005 A 
HETATM   37  C   UNL     1     -41.484  58.559 -59.053  1.00  0.00     0.038 A 
HETATM   38  C   UNL     1     -42.319  58.587 -57.928  1.00  0.00     0.086 A 
BRANCH  34  39
HETATM   39  O   UNL     1     -44.310  55.546 -58.614  1.00  0.00    -0.355 OA
HETATM   40  C   UNL     1     -44.364  54.775 -59.812  1.00  0.00     0.210 C 
ENDBRANCH  34  39
BRANCH  38  41
HETATM   41  O   UNL     1     -42.313  59.590 -56.998  1.00  0.00    -0.355 OA
HETATM   42  C   UNL     1     -42.369  60.932 -57.466  1.00  0.00     0.210 C 
ENDBRANCH  38  41
ENDBRANCH   8  33
TORSDOF 8
ENDMDL
MODEL 2
REMARK VINA RESULT:      -8.5      2.642      4.501
REMARK  8 active torsions:
REMARK  status: ('A' for Active; 'I' for Inactive)
REMARK    1  A    between atoms: C_2  and  N_3 
REMARK    2  A    between atoms: C_2  and  C_36 
REMARK       I    between atoms: N_3  and  C_4 
REMARK    3  A    between atoms: C_4  and  C_5 
REMARK    4  A    between atoms: C_5  and  N_6 
REMARK       I    between atoms: N_12  and  C_13 
REMARK    5  A    between atoms: C_13  and  C_14 
REMARK    6  A    between atoms: C_15  and  O_16 
REMARK    7  A    between atoms: C_21  and  O_22 
REMARK    8  A    between atoms: N_27  and  C_28 
ROOT
HETATM    1  N   UNL     1     -43.296  55.800 -55.765  1.00  0.00    -0.325 N 
HETATM    2  C   UNL     1     -43.242  56.309 -57.047  1.00  0.00     0.250 C 
HETATM    3  O   UNL     1     -42.875  55.695 -58.039  1.00  0.00    -0.270 OA
HETATM    4  C   UNL     1     -43.643  57.797 -56.977  1.00  0.00     0.118 C 
HETATM    5  C   UNL     1     -44.687  58.081 -58.073  1.00  0.00     0.061 C 
HETATM    6  C   UNL     1     -44.058  58.408 -59.421  1.00  0.00     0.129 C 
HETATM    7  N   UNL     1     -42.950  59.339 -59.273  1.00  0.00    -0.348 N 
HETATM    8  C   UNL     1     -43.172  60.702 -59.510  1.00  0.00     0.259 C 
HETATM    9  O   UNL     1     -44.281  61.171 -59.757  1.00  0.00    -0.267 OA
HETATM   10  C   UNL     1     -41.846  58.812 -58.485  1.00  0.00     0.129 C 
HETATM   11  C   UNL     1     -42.314  58.584 -57.048  1.00  0.00     0.061 C 
HETATM   12  N   UNL     1     -44.240  57.882 -55.614  1.00  0.00    -0.346 N 
HETATM   13  C   UNL     1     -43.953  56.680 -54.844  1.00  0.00     0.254 C 
ENDROOT
BRANCH  12  14
HETATM   14  C   UNL     1     -44.804  58.985 -54.996  1.00  0.00     0.032 A 
HETATM   15  C   UNL     1     -45.070  59.043 -53.618  1.00  0.00     0.029 A 
HETATM   16  C   UNL     1     -45.623  60.174 -53.001  1.00  0.00     0.002 A 
HETATM   17  C   UNL     1     -45.931  61.299 -53.751  1.00  0.00     0.000 A 
HETATM   18  C   UNL     1     -45.684  61.287 -55.116  1.00  0.00     0.002 A 
HETATM   19  C   UNL     1     -45.131  60.148 -55.720  1.00  0.00     0.029 A 
ENDBRANCH  12  14
BRANCH   1  20
HETATM   20  C   UNL     1     -43.051  54.400 -55.452  1.00  0.00     0.230 C 
BRANCH  20  21
HETATM   21  C   UNL     1     -41.678  54.111 -54.824  1.00  0.00     0.236 C 
HETATM   22  N   UNL     1     -41.716  53.725 -53.499  1.00  0.00    -0.351 N 
HETATM   23  H   UNL     1     -42.567  53.863 -52.969  1.00  0.00     0.163 HD
HETATM   24  O   UNL     1     -40.621  54.254 -55.434  1.00  0.00    -0.272 OA
BRANCH  22  25
HETATM   25  C   UNL     1     -40.483  53.490 -52.751  1.00  0.00     0.113 C 
HETATM   26  C   UNL     1     -40.602  54.181 -51.385  1.00  0.00     0.037 C 
BRANCH  25  27
HETATM   27  C   UNL     1     -40.133  52.007 -52.644  1.00  0.00    -0.036 A 
HETATM   28  C   UNL     1     -40.002  51.185 -53.777  1.00  0.00     0.009 A 
HETATM   29  C   UNL     1     -39.652  49.835 -53.657  1.00  0.00     0.001 A 
HETATM   30  C   UNL     1     -39.401  49.287 -52.403  1.00  0.00     0.000 A 
HETATM   31  C   UNL     1     -39.488  50.088 -51.270  1.00  0.00     0.001 A 
HETATM   32  C   UNL     1     -39.841  51.436 -51.392  1.00  0.00     0.009 A 
ENDBRANCH  25  27
ENDBRANCH  22  25
ENDBRANCH  20  21
ENDBRANCH   1  20
BRANCH   8  33
HETATM   33  C   UNL     1     -41.997  61.603 -59.588  1.00  0.00     0.098 A 
HETATM   34  C   UNL     1     -41.343  61.735 -60.824  1.00  0.00     0.086 A 
HETATM   35  C   UNL     1     -40.241  62.581 -60.950  1.00  0.00     0.038 A 
HETATM   36  C   UNL     1     -39.772  63.277 -59.841  1.00  0.00     0.005 A 
HETATM   37  C   UNL     1     -40.427  63.161 -58.611  1.00  0.00     0.038 A 
HETATM   38  C   UNL     1     -41.553  62.339 -58.474  1.00  0.00     0.086 A 
BRANCH  34  39
HETATM   39  O   UNL     1     -41.823  61.148 -61.966  1.00  0.00    -0.355 OA
HETATM   40  C   UNL     1     -42.261  62.128 -62.904  1.00  0.00     0.210 C 
ENDBRANCH  34  39
BRANCH  38  41
HETATM   41  O   UNL     1     -42.270  62.213 -57.316  1.00  0.00    -0.355 OA
HETATM   42  C   UNL     1     -43.037  63.330 -56.883  1.00  0.00     0.210 C 
ENDBRANCH  38  41
ENDBRANCH   8  33
TORSDOF 8
ENDMDL
MODEL 3
REMARK VINA RESULT:      -8.5      2.740      4.744
REMARK  8 active torsions:
REMARK  status: ('A' for Active; 'I' for Inactive)
REMARK    1  A    between atoms: C_2  and  N_3 
REMARK    2  A    between atoms: C_2  and  C_36 
REMARK       I    between atoms: N_3  and  C_4 
REMARK    3  A    between atoms: C_4  and  C_5 
REMARK    4  A    between atoms: C_5  and  N_6 
REMARK       I    between atoms: N_12  and  C_13 
REMARK    5  A    between atoms: C_13  and  C_14 
REMARK    6  A    between atoms: C_15  and  O_16 
REMARK    7  A    between atoms: C_21  and  O_22 
REMARK    8  A    between atoms: N_27  and  C_28 
ROOT
HETATM    1  N   UNL     1     -42.973  56.002 -56.058  1.00  0.00    -0.325 N 
HETATM    2  C   UNL     1     -43.173  56.473 -57.340  1.00  0.00     0.250 C 
HETATM    3  O   UNL     1     -43.099  55.806 -58.362  1.00  0.00    -0.270 OA
HETATM    4  C   UNL     1     -43.420  57.994 -57.246  1.00  0.00     0.118 C 
HETATM    5  C   UNL     1     -44.661  58.347 -58.087  1.00  0.00     0.061 C 
HETATM    6  C   UNL     1     -44.335  58.583 -59.556  1.00  0.00     0.129 C 
HETATM    7  N   UNL     1     -43.149  59.411 -59.705  1.00  0.00    -0.348 N 
HETATM    8  C   UNL     1     -43.303  60.783 -59.945  1.00  0.00     0.259 C 
HETATM    9  O   UNL     1     -44.395  61.346 -59.953  1.00  0.00    -0.267 OA
HETATM   10  C   UNL     1     -41.941  58.803 -59.167  1.00  0.00     0.129 C 
HETATM   11  C   UNL     1     -42.082  58.653 -57.653  1.00  0.00     0.061 C 
HETATM   12  N   UNL     1     -43.677  58.165 -55.788  1.00  0.00    -0.346 N 
HETATM   13  C   UNL     1     -43.323  56.960 -55.052  1.00  0.00     0.254 C 
ENDROOT
BRANCH  12  14
HETATM   14  C   UNL     1     -43.988  59.329 -55.107  1.00  0.00     0.032 A 
HETATM   15  C   UNL     1     -45.220  59.540 -54.464  1.00  0.00     0.029 A 
HETATM   16  C   UNL     1     -45.514  60.716 -53.760  1.00  0.00     0.002 A 
HETATM   17  C   UNL     1     -44.575  61.733 -53.674  1.00  0.00     0.000 A 
HETATM   18  C   UNL     1     -43.345  61.569 -54.293  1.00  0.00     0.002 A 
HETATM   19  C   UNL     1     -43.064  60.387 -54.995  1.00  0.00     0.029 A 
ENDBRANCH  12  14
BRANCH   1  20
HETATM   20  C   UNL     1     -42.781  54.593 -55.749  1.00  0.00     0.230 C 
BRANCH  20  21
HETATM   21  C   UNL     1     -41.474  54.268 -55.008  1.00  0.00     0.236 C 
HETATM   22  N   UNL     1     -41.637  53.839 -53.707  1.00  0.00    -0.351 N 
HETATM   23  H   UNL     1     -42.532  53.968 -53.252  1.00  0.00     0.163 HD
HETATM   24  O   UNL     1     -40.364  54.419 -55.514  1.00  0.00    -0.272 OA
BRANCH  22  25
HETATM   25  C   UNL     1     -40.479  53.565 -52.857  1.00  0.00     0.113 C 
HETATM   26  C   UNL     1     -40.721  54.204 -51.482  1.00  0.00     0.037 C 
BRANCH  25  27
HETATM   27  C   UNL     1     -40.148  52.076 -52.776  1.00  0.00    -0.036 A 
HETATM   28  C   UNL     1     -40.079  51.260 -53.919  1.00  0.00     0.009 A 
HETATM   29  C   UNL     1     -39.745  49.905 -53.823  1.00  0.00     0.001 A 
HETATM   30  C   UNL     1     -39.448  49.343 -52.586  1.00  0.00     0.000 A 
HETATM   31  C   UNL     1     -39.473  50.137 -51.445  1.00  0.00     0.001 A 
HETATM   32  C   UNL     1     -39.811  51.491 -51.541  1.00  0.00     0.009 A 
ENDBRANCH  25  27
ENDBRANCH  22  25
ENDBRANCH  20  21
ENDBRANCH   1  20
BRANCH   8  33
HETATM   33  C   UNL     1     -42.106  61.570 -60.327  1.00  0.00     0.098 A 
HETATM   34  C   UNL     1     -41.432  62.283 -59.322  1.00  0.00     0.086 A 
HETATM   35  C   UNL     1     -40.292  63.026 -59.630  1.00  0.00     0.038 A 
HETATM   36  C   UNL     1     -39.837  63.083 -60.943  1.00  0.00     0.005 A 
HETATM   37  C   UNL     1     -40.495  62.365 -61.946  1.00  0.00     0.038 A 
HETATM   38  C   UNL     1     -41.623  61.589 -61.648  1.00  0.00     0.086 A 
BRANCH  34  39
HETATM   39  O   UNL     1     -41.781  62.181 -58.000  1.00  0.00    -0.355 OA
HETATM   40  C   UNL     1     -42.383  63.385 -57.532  1.00  0.00     0.210 C 
ENDBRANCH  34  39
BRANCH  38  41
HETATM   41  O   UNL     1     -42.289  60.825 -62.567  1.00  0.00    -0.355 OA
HETATM   42  C   UNL     1     -42.924  61.492 -63.652  1.00  0.00     0.210 C 
ENDBRANCH  38  41
ENDBRANCH   8  33
TORSDOF 8
ENDMDL
MODEL 4
REMARK VINA RESULT:      -8.3      3.190      6.539
REMARK  8 active torsions:
REMARK  status: ('A' for Active; 'I' for Inactive)
REMARK    1  A    between atoms: C_2  and  N_3 
REMARK    2  A    between atoms: C_2  and  C_36 
REMARK       I    between atoms: N_3  and  C_4 
REMARK    3  A    between atoms: C_4  and  C_5 
REMARK    4  A    between atoms: C_5  and  N_6 
REMARK       I    between atoms: N_12  and  C_13 
REMARK    5  A    between atoms: C_13  and  C_14 
REMARK    6  A    between atoms: C_15  and  O_16 
REMARK    7  A    between atoms: C_21  and  O_22 
REMARK    8  A    between atoms: N_27  and  C_28 
ROOT
HETATM    1  N   UNL     1     -43.452  56.647 -53.325  1.00  0.00    -0.325 N 
HETATM    2  C   UNL     1     -43.216  57.416 -52.203  1.00  0.00     0.250 C 
HETATM    3  O   UNL     1     -42.922  56.986 -51.096  1.00  0.00    -0.270 OA
HETATM    4  C   UNL     1     -43.474  58.889 -52.582  1.00  0.00     0.118 C 
HETATM    5  C   UNL     1     -42.293  59.743 -52.085  1.00  0.00     0.061 C 
HETATM    6  C   UNL     1     -42.449  60.184 -50.635  1.00  0.00     0.129 C 
HETATM    7  N   UNL     1     -43.797  60.662 -50.374  1.00  0.00    -0.348 N 
HETATM    8  C   UNL     1     -44.045  62.041 -50.388  1.00  0.00     0.259 C 
HETATM    9  O   UNL     1     -43.195  62.874 -50.696  1.00  0.00    -0.267 OA
HETATM   10  C   UNL     1     -44.821  59.642 -50.546  1.00  0.00     0.129 C 
HETATM   11  C   UNL     1     -44.873  59.221 -52.013  1.00  0.00     0.061 C 
HETATM   12  N   UNL     1     -43.509  58.812 -54.071  1.00  0.00    -0.346 N 
HETATM   13  C   UNL     1     -43.577  57.429 -54.519  1.00  0.00     0.254 C 
ENDROOT
BRANCH  12  14
HETATM   14  C   UNL     1     -43.685  59.845 -54.975  1.00  0.00     0.032 A 
HETATM   15  C   UNL     1     -42.620  60.475 -55.641  1.00  0.00     0.029 A 
HETATM   16  C   UNL     1     -42.814  61.507 -56.570  1.00  0.00     0.002 A 
HETATM   17  C   UNL     1     -44.094  61.949 -56.868  1.00  0.00     0.000 A 
HETATM   18  C   UNL     1     -45.175  61.356 -56.234  1.00  0.00     0.002 A 
HETATM   19  C   UNL     1     -44.968  60.325 -55.306  1.00  0.00     0.029 A 
ENDBRANCH  12  14
BRANCH   1  20
HETATM   20  C   UNL     1     -43.239  55.208 -53.364  1.00  0.00     0.230 C 
BRANCH  20  21
HETATM   21  C   UNL     1     -41.780  54.766 -53.167  1.00  0.00     0.236 C 
HETATM   22  N   UNL     1     -41.549  54.017 -52.031  1.00  0.00    -0.351 N 
HETATM   23  H   UNL     1     -42.255  53.988 -51.307  1.00  0.00     0.163 HD
HETATM   24  O   UNL     1     -40.875  55.090 -53.933  1.00  0.00    -0.272 OA
BRANCH  22  25
HETATM   25  C   UNL     1     -40.197  53.591 -51.676  1.00  0.00     0.113 C 
HETATM   26  C   UNL     1     -39.950  53.931 -50.199  1.00  0.00     0.037 C 
BRANCH  25  27
HETATM   27  C   UNL     1     -39.937  52.122 -52.005  1.00  0.00    -0.036 A 
HETATM   28  C   UNL     1     -39.822  51.140 -51.005  1.00  0.00     0.009 A 
HETATM   29  C   UNL     1     -39.613  49.795 -51.331  1.00  0.00     0.001 A 
HETATM   30  C   UNL     1     -39.540  49.401 -52.664  1.00  0.00     0.000 A 
HETATM   31  C   UNL     1     -39.688  50.348 -53.671  1.00  0.00     0.001 A 
HETATM   32  C   UNL     1     -39.893  51.692 -53.344  1.00  0.00     0.009 A 
ENDBRANCH  25  27
ENDBRANCH  22  25
ENDBRANCH  20  21
ENDBRANCH   1  20
BRANCH   8  33
HETATM   33  C   UNL     1     -45.355  62.526 -49.892  1.00  0.00     0.098 A 
HETATM   34  C   UNL     1     -46.325  62.901 -50.836  1.00  0.00     0.086 A 
HETATM   35  C   UNL     1     -47.577  63.351 -50.419  1.00  0.00     0.038 A 
HETATM   36  C   UNL     1     -47.858  63.454 -49.060  1.00  0.00     0.005 A 
HETATM   37  C   UNL     1     -46.902  63.070 -48.115  1.00  0.00     0.038 A 
HETATM   38  C   UNL     1     -45.650  62.588 -48.518  1.00  0.00     0.086 A 
BRANCH  34  39
HETATM   39  O   UNL     1     -46.133  62.726 -52.183  1.00  0.00    -0.355 OA
HETATM   40  C   UNL     1     -47.213  62.002 -52.768  1.00  0.00     0.210 C 
ENDBRANCH  34  39
BRANCH  38  41
HETATM   41  O   UNL     1     -44.685  62.151 -47.652  1.00  0.00    -0.355 OA
HETATM   42  C   UNL     1     -45.027  61.110 -46.744  1.00  0.00     0.210 C 
ENDBRANCH  38  41
ENDBRANCH   8  33
TORSDOF 8
ENDMDL
MODEL 5
REMARK VINA RESULT:      -8.2      3.203      6.633
REMARK  8 active torsions:
REMARK  status: ('A' for Active; 'I' for Inactive)
REMARK    1  A    between atoms: C_2  and  N_3 
REMARK    2  A    between atoms: C_2  and  C_36 
REMARK       I    between atoms: N_3  and  C_4 
REMARK    3  A    between atoms: C_4  and  C_5 
REMARK    4  A    between atoms: C_5  and  N_6 
REMARK       I    between atoms: N_12  and  C_13 
REMARK    5  A    between atoms: C_13  and  C_14 
REMARK    6  A    between atoms: C_15  and  O_16 
REMARK    7  A    between atoms: C_21  and  O_22 
REMARK    8  A    between atoms: N_27  and  C_28 
ROOT
HETATM    1  N   UNL     1     -43.571  56.640 -53.422  1.00  0.00    -0.325 N 
HETATM    2  C   UNL     1     -43.343  57.398 -52.290  1.00  0.00     0.250 C 
HETATM    3  O   UNL     1     -43.072  56.956 -51.183  1.00  0.00    -0.270 OA
HETATM    4  C   UNL     1     -43.575  58.877 -52.663  1.00  0.00     0.118 C 
HETATM    5  C   UNL     1     -42.390  59.711 -52.141  1.00  0.00     0.061 C 
HETATM    6  C   UNL     1     -42.562  60.144 -50.691  1.00  0.00     0.129 C 
HETATM    7  N   UNL     1     -43.908  60.639 -50.447  1.00  0.00    -0.348 N 
HETATM    8  C   UNL     1     -44.137  62.021 -50.455  1.00  0.00     0.259 C 
HETATM    9  O   UNL     1     -43.271  62.844 -50.743  1.00  0.00    -0.267 OA
HETATM   10  C   UNL     1     -44.943  59.634 -50.643  1.00  0.00     0.129 C 
HETATM   11  C   UNL     1     -44.977  59.224 -52.114  1.00  0.00     0.061 C 
HETATM   12  N   UNL     1     -43.587  58.812 -54.152  1.00  0.00    -0.346 N 
HETATM   13  C   UNL     1     -43.666  57.433 -54.612  1.00  0.00     0.254 C 
ENDROOT
BRANCH  12  14
HETATM   14  C   UNL     1     -43.735  59.854 -55.051  1.00  0.00     0.032 A 
HETATM   15  C   UNL     1     -44.960  60.499 -55.287  1.00  0.00     0.029 A 
HETATM   16  C   UNL     1     -45.092  61.568 -56.185  1.00  0.00     0.002 A 
HETATM   17  C   UNL     1     -43.989  62.032 -56.886  1.00  0.00     0.000 A 
HETATM   18  C   UNL     1     -42.759  61.424 -56.686  1.00  0.00     0.002 A 
HETATM   19  C   UNL     1     -42.641  60.356 -55.784  1.00  0.00     0.029 A 
ENDBRANCH  12  14
BRANCH   1  20
HETATM   20  C   UNL     1     -43.377  55.199 -53.468  1.00  0.00     0.230 C 
BRANCH  20  21
HETATM   21  C   UNL     1     -41.919  54.739 -53.307  1.00  0.00     0.236 C 
HETATM   22  N   UNL     1     -41.660  54.028 -52.153  1.00  0.00    -0.351 N 
HETATM   23  H   UNL     1     -42.339  54.038 -51.404  1.00  0.00     0.163 HD
HETATM   24  O   UNL     1     -41.038  55.017 -54.117  1.00  0.00    -0.272 OA
BRANCH  22  25
HETATM   25  C   UNL     1     -40.303  53.591 -51.831  1.00  0.00     0.113 C 
HETATM   26  C   UNL     1     -40.017  53.932 -50.361  1.00  0.00     0.037 C 
BRANCH  25  27
HETATM   27  C   UNL     1     -40.063  52.120 -52.163  1.00  0.00    -0.036 A 
HETATM   28  C   UNL     1     -40.004  51.651 -53.488  1.00  0.00     0.009 A 
HETATM   29  C   UNL     1     -39.754  50.303 -53.769  1.00  0.00     0.001 A 
HETATM   30  C   UNL     1     -39.534  49.401 -52.732  1.00  0.00     0.000 A 
HETATM   31  C   UNL     1     -39.551  49.847 -51.416  1.00  0.00     0.001 A 
HETATM   32  C   UNL     1     -39.804  51.194 -51.136  1.00  0.00     0.009 A 
ENDBRANCH  25  27
ENDBRANCH  22  25
ENDBRANCH  20  21
ENDBRANCH   1  20
BRANCH   8  33
HETATM   33  C   UNL     1     -45.448  62.521 -49.975  1.00  0.00     0.098 A 
HETATM   34  C   UNL     1     -45.666  62.584 -48.589  1.00  0.00     0.086 A 
HETATM   35  C   UNL     1     -46.878  63.061 -48.089  1.00  0.00     0.038 A 
HETATM   36  C   UNL     1     -47.885  63.450 -48.967  1.00  0.00     0.005 A 
HETATM   37  C   UNL     1     -47.669  63.402 -50.348  1.00  0.00     0.038 A 
HETATM   38  C   UNL     1     -46.446  62.954 -50.866  1.00  0.00     0.086 A 
BRANCH  34  39
HETATM   39  O   UNL     1     -44.675  62.306 -47.684  1.00  0.00    -0.355 OA
HETATM   40  C   UNL     1     -45.046  61.230 -46.827  1.00  0.00     0.210 C 
ENDBRANCH  34  39
BRANCH  38  41
HETATM   41  O   UNL     1     -46.148  62.924 -52.201  1.00  0.00    -0.355 OA
HETATM   42  C   UNL     1     -47.102  62.344 -53.083  1.00  0.00     0.210 C 
ENDBRANCH  38  41
ENDBRANCH   8  33
TORSDOF 8
ENDMDL
MODEL 6
REMARK VINA RESULT:      -8.1      2.071      3.494
REMARK  8 active torsions:
REMARK  status: ('A' for Active; 'I' for Inactive)
REMARK    1  A    between atoms: C_2  and  N_3 
REMARK    2  A    between atoms: C_2  and  C_36 
REMARK       I    between atoms: N_3  and  C_4 
REMARK    3  A    between atoms: C_4  and  C_5 
REMARK    4  A    between atoms: C_5  and  N_6 
REMARK       I    between atoms: N_12  and  C_13 
REMARK    5  A    between atoms: C_13  and  C_14 
REMARK    6  A    between atoms: C_15  and  O_16 
REMARK    7  A    between atoms: C_21  and  O_22 
REMARK    8  A    between atoms: N_27  and  C_28 
ROOT
HETATM    1  N   UNL     1     -43.705  56.916 -52.635  1.00  0.00    -0.325 N 
HETATM    2  C   UNL     1     -43.827  56.919 -54.011  1.00  0.00     0.250 C 
HETATM    3  O   UNL     1     -43.584  55.974 -54.747  1.00  0.00    -0.270 OA
HETATM    4  C   UNL     1     -44.239  58.343 -54.441  1.00  0.00     0.118 C 
HETATM    5  C   UNL     1     -45.421  58.241 -55.422  1.00  0.00     0.061 C 
HETATM    6  C   UNL     1     -44.979  58.032 -56.865  1.00  0.00     0.129 C 
HETATM    7  N   UNL     1     -43.877  58.915 -57.210  1.00  0.00    -0.348 N 
HETATM    8  C   UNL     1     -44.149  60.104 -57.900  1.00  0.00     0.259 C 
HETATM    9  O   UNL     1     -45.288  60.487 -58.158  1.00  0.00    -0.267 OA
HETATM   10  C   UNL     1     -42.671  58.676 -56.431  1.00  0.00     0.129 C 
HETATM   11  C   UNL     1     -42.943  59.005 -54.964  1.00  0.00     0.061 C 
HETATM   12  N   UNL     1     -44.654  58.940 -53.140  1.00  0.00    -0.346 N 
HETATM   13  C   UNL     1     -44.250  58.094 -52.026  1.00  0.00     0.254 C 
ENDROOT
BRANCH  12  14
HETATM   14  C   UNL     1     -45.150  60.210 -52.903  1.00  0.00     0.032 A 
HETATM   15  C   UNL     1     -46.385  60.450 -52.278  1.00  0.00     0.029 A 
HETATM   16  C   UNL     1     -46.866  61.743 -52.026  1.00  0.00     0.002 A 
HETATM   17  C   UNL     1     -46.119  62.852 -52.393  1.00  0.00     0.000 A 
HETATM   18  C   UNL     1     -44.893  62.662 -53.013  1.00  0.00     0.002 A 
HETATM   19  C   UNL     1     -44.423  61.364 -53.260  1.00  0.00     0.029 A 
ENDBRANCH  12  14
BRANCH   1  20
HETATM   20  C   UNL     1     -43.399  55.720 -51.865  1.00  0.00     0.230 C 
BRANCH  20  21
HETATM   21  C   UNL     1     -41.909  55.346 -51.822  1.00  0.00     0.236 C 
HETATM   22  N   UNL     1     -41.653  54.008 -51.598  1.00  0.00    -0.351 N 
HETATM   23  H   UNL     1     -42.400  53.412 -51.265  1.00  0.00     0.163 HD
HETATM   24  O   UNL     1     -41.009  56.175 -51.931  1.00  0.00    -0.272 OA
BRANCH  22  25
HETATM   25  C   UNL     1     -40.283  53.520 -51.457  1.00  0.00     0.113 C 
HETATM   26  C   UNL     1     -39.954  53.416 -49.961  1.00  0.00     0.037 C 
BRANCH  25  27
HETATM   27  C   UNL     1     -40.041  52.217 -52.216  1.00  0.00    -0.036 A 
HETATM   28  C   UNL     1     -39.680  51.025 -51.563  1.00  0.00     0.009 A 
HETATM   29  C   UNL     1     -39.493  49.836 -52.275  1.00  0.00     0.001 A 
HETATM   30  C   UNL     1     -39.687  49.807 -53.653  1.00  0.00     0.000 A 
HETATM   31  C   UNL     1     -40.080  50.964 -54.317  1.00  0.00     0.001 A 
HETATM   32  C   UNL     1     -40.263  52.153 -53.604  1.00  0.00     0.009 A 
ENDBRANCH  25  27
ENDBRANCH  22  25
ENDBRANCH  20  21
ENDBRANCH   1  20
BRANCH   8  33
HETATM   33  C   UNL     1     -43.008  60.875 -58.451  1.00  0.00     0.098 A 
HETATM   34  C   UNL     1     -42.519  61.960 -57.706  1.00  0.00     0.086 A 
HETATM   35  C   UNL     1     -41.439  62.707 -58.176  1.00  0.00     0.038 A 
HETATM   36  C   UNL     1     -40.860  62.392 -59.401  1.00  0.00     0.005 A 
HETATM   37  C   UNL     1     -41.333  61.304 -60.142  1.00  0.00     0.038 A 
HETATM   38  C   UNL     1     -42.398  60.525 -59.669  1.00  0.00     0.086 A 
BRANCH  34  39
HETATM   39  O   UNL     1     -42.990  62.250 -56.451  1.00  0.00    -0.355 OA
HETATM   40  C   UNL     1     -43.551  63.560 -56.400  1.00  0.00     0.210 C 
ENDBRANCH  34  39
BRANCH  38  41
HETATM   41  O   UNL     1     -42.882  59.422 -60.316  1.00  0.00    -0.355 OA
HETATM   42  C   UNL     1     -42.059  58.261 -60.359  1.00  0.00     0.210 C 
ENDBRANCH  38  41
ENDBRANCH   8  33
TORSDOF 8
ENDMDL
MODEL 7
REMARK VINA RESULT:      -8.0      2.286      3.173
REMARK  8 active torsions:
REMARK  status: ('A' for Active; 'I' for Inactive)
REMARK    1  A    between atoms: C_2  and  N_3 
REMARK    2  A    between atoms: C_2  and  C_36 
REMARK       I    between atoms: N_3  and  C_4 
REMARK    3  A    between atoms: C_4  and  C_5 
REMARK    4  A    between atoms: C_5  and  N_6 
REMARK       I    between atoms: N_12  and  C_13 
REMARK    5  A    between atoms: C_13  and  C_14 
REMARK    6  A    between atoms: C_15  and  O_16 
REMARK    7  A    between atoms: C_21  and  O_22 
REMARK    8  A    between atoms: N_27  and  C_28 
ROOT
HETATM    1  N   UNL     1     -43.742  56.794 -52.996  1.00  0.00    -0.325 N 
HETATM    2  C   UNL     1     -43.811  56.852 -54.374  1.00  0.00     0.250 C 
HETATM    3  O   UNL     1     -43.512  55.946 -55.138  1.00  0.00    -0.270 OA
HETATM    4  C   UNL     1     -44.249  58.280 -54.761  1.00  0.00     0.118 C 
HETATM    5  C   UNL     1     -45.391  58.186 -55.791  1.00  0.00     0.061 C 
HETATM    6  C   UNL     1     -44.888  58.050 -57.222  1.00  0.00     0.129 C 
HETATM    7  N   UNL     1     -43.801  58.979 -57.488  1.00  0.00    -0.348 N 
HETATM    8  C   UNL     1     -44.082  60.188 -58.138  1.00  0.00     0.259 C 
HETATM    9  O   UNL     1     -45.222  60.548 -58.425  1.00  0.00    -0.267 OA
HETATM   10  C   UNL     1     -42.619  58.742 -56.673  1.00  0.00     0.129 C 
HETATM   11  C   UNL     1     -42.956  59.000 -55.206  1.00  0.00     0.061 C 
HETATM   12  N   UNL     1     -44.731  58.810 -53.453  1.00  0.00    -0.346 N 
HETATM   13  C   UNL     1     -44.344  57.929 -52.361  1.00  0.00     0.254 C 
ENDROOT
BRANCH  12  14
HETATM   14  C   UNL     1     -45.274  60.054 -53.184  1.00  0.00     0.032 A 
HETATM   15  C   UNL     1     -44.982  61.201 -53.942  1.00  0.00     0.029 A 
HETATM   16  C   UNL     1     -45.555  62.452 -53.671  1.00  0.00     0.002 A 
HETATM   17  C   UNL     1     -46.449  62.600 -52.621  1.00  0.00     0.000 A 
HETATM   18  C   UNL     1     -46.766  61.494 -51.846  1.00  0.00     0.002 A 
HETATM   19  C   UNL     1     -46.186  60.248 -52.127  1.00  0.00     0.029 A 
ENDBRANCH  12  14
BRANCH   1  20
HETATM   20  C   UNL     1     -43.428  55.576 -52.265  1.00  0.00     0.230 C 
BRANCH  20  21
HETATM   21  C   UNL     1     -41.932  55.230 -52.199  1.00  0.00     0.236 C 
HETATM   22  N   UNL     1     -41.653  53.938 -51.804  1.00  0.00    -0.351 N 
HETATM   23  H   UNL     1     -42.385  53.382 -51.380  1.00  0.00     0.163 HD
HETATM   24  O   UNL     1     -41.047  56.048 -52.436  1.00  0.00    -0.272 OA
BRANCH  22  25
HETATM   25  C   UNL     1     -40.273  53.491 -51.625  1.00  0.00     0.113 C 
HETATM   26  C   UNL     1     -39.899  53.641 -50.143  1.00  0.00     0.037 C 
BRANCH  25  27
HETATM   27  C   UNL     1     -40.037  52.080 -52.162  1.00  0.00    -0.036 A 
HETATM   28  C   UNL     1     -39.987  51.801 -53.539  1.00  0.00     0.009 A 
HETATM   29  C   UNL     1     -39.741  50.506 -54.008  1.00  0.00     0.001 A 
HETATM   30  C   UNL     1     -39.514  49.468 -53.110  1.00  0.00     0.000 A 
HETATM   31  C   UNL     1     -39.522  49.725 -51.744  1.00  0.00     0.001 A 
HETATM   32  C   UNL     1     -39.772  51.019 -51.276  1.00  0.00     0.009 A 
ENDBRANCH  25  27
ENDBRANCH  22  25
ENDBRANCH  20  21
ENDBRANCH   1  20
BRANCH   8  33
HETATM   33  C   UNL     1     -42.946  61.013 -58.613  1.00  0.00     0.098 A 
HETATM   34  C   UNL     1     -42.417  60.745 -59.887  1.00  0.00     0.086 A 
HETATM   35  C   UNL     1     -41.357  61.504 -60.383  1.00  0.00     0.038 A 
HETATM   36  C   UNL     1     -40.803  62.513 -59.602  1.00  0.00     0.005 A 
HETATM   37  C   UNL     1     -41.333  62.794 -58.338  1.00  0.00     0.038 A 
HETATM   38  C   UNL     1     -42.417  62.061 -57.838  1.00  0.00     0.086 A 
BRANCH  34  39
HETATM   39  O   UNL     1     -42.989  59.830 -60.732  1.00  0.00    -0.355 OA
HETATM   40  C   UNL     1     -43.635  60.473 -61.828  1.00  0.00     0.210 C 
ENDBRANCH  34  39
BRANCH  38  41
HETATM   41  O   UNL     1     -43.016  62.310 -56.633  1.00  0.00    -0.355 OA
HETATM   42  C   UNL     1     -43.352  63.657 -56.323  1.00  0.00     0.210 C 
ENDBRANCH  38  41
ENDBRANCH   8  33
TORSDOF 8
ENDMDL
MODEL 8
REMARK VINA RESULT:      -8.0      2.734      5.789
REMARK  8 active torsions:
REMARK  status: ('A' for Active; 'I' for Inactive)
REMARK    1  A    between atoms: C_2  and  N_3 
REMARK    2  A    between atoms: C_2  and  C_36 
REMARK       I    between atoms: N_3  and  C_4 
REMARK    3  A    between atoms: C_4  and  C_5 
REMARK    4  A    between atoms: C_5  and  N_6 
REMARK       I    between atoms: N_12  and  C_13 
REMARK    5  A    between atoms: C_13  and  C_14 
REMARK    6  A    between atoms: C_15  and  O_16 
REMARK    7  A    between atoms: C_21  and  O_22 
REMARK    8  A    between atoms: N_27  and  C_28 
ROOT
HETATM    1  N   UNL     1     -42.957  55.858 -55.436  1.00  0.00    -0.325 N 
HETATM    2  C   UNL     1     -42.957  56.751 -54.383  1.00  0.00     0.250 C 
HETATM    3  O   UNL     1     -42.860  56.454 -53.200  1.00  0.00    -0.270 OA
HETATM    4  C   UNL     1     -43.183  58.161 -54.965  1.00  0.00     0.118 C 
HETATM    5  C   UNL     1     -42.140  59.121 -54.361  1.00  0.00     0.061 C 
HETATM    6  C   UNL     1     -42.575  59.703 -53.023  1.00  0.00     0.129 C 
HETATM    7  N   UNL     1     -43.962  60.138 -53.065  1.00  0.00    -0.348 N 
HETATM    8  C   UNL     1     -44.243  61.494 -53.278  1.00  0.00     0.259 C 
HETATM    9  O   UNL     1     -43.376  62.331 -53.519  1.00  0.00    -0.267 OA
HETATM   10  C   UNL     1     -44.906  59.057 -53.304  1.00  0.00     0.129 C 
HETATM   11  C   UNL     1     -44.672  58.482 -54.700  1.00  0.00     0.061 C 
HETATM   12  N   UNL     1     -42.939  57.928 -56.417  1.00  0.00    -0.346 N 
HETATM   13  C   UNL     1     -42.882  56.504 -56.713  1.00  0.00     0.254 C 
ENDROOT
BRANCH  12  14
HETATM   14  C   UNL     1     -42.975  58.851 -57.448  1.00  0.00     0.032 A 
HETATM   15  C   UNL     1     -41.824  59.302 -58.117  1.00  0.00     0.029 A 
HETATM   16  C   UNL     1     -41.877  60.222 -59.174  1.00  0.00     0.002 A 
HETATM   17  C   UNL     1     -43.095  60.727 -59.603  1.00  0.00     0.000 A 
HETATM   18  C   UNL     1     -44.257  60.310 -58.971  1.00  0.00     0.002 A 
HETATM   19  C   UNL     1     -44.191  59.389 -57.915  1.00  0.00     0.029 A 
ENDBRANCH  12  14
BRANCH   1  20
HETATM   20  C   UNL     1     -42.699  54.435 -55.274  1.00  0.00     0.230 C 
BRANCH  20  21
HETATM   21  C   UNL     1     -41.351  54.095 -54.617  1.00  0.00     0.236 C 
HETATM   22  N   UNL     1     -41.432  53.706 -53.296  1.00  0.00    -0.351 N 
HETATM   23  H   UNL     1     -42.288  53.872 -52.784  1.00  0.00     0.163 HD
HETATM   24  O   UNL     1     -40.277  54.203 -55.204  1.00  0.00    -0.272 OA
BRANCH  22  25
HETATM   25  C   UNL     1     -40.224  53.425 -52.522  1.00  0.00     0.113 C 
HETATM   26  C   UNL     1     -40.348  54.115 -51.156  1.00  0.00     0.037 C 
BRANCH  25  27
HETATM   27  C   UNL     1     -39.929  51.929 -52.414  1.00  0.00    -0.036 A 
HETATM   28  C   UNL     1     -39.824  51.274 -51.174  1.00  0.00     0.009 A 
HETATM   29  C   UNL     1     -39.583  49.898 -51.100  1.00  0.00     0.001 A 
HETATM   30  C   UNL     1     -39.467  49.144 -52.264  1.00  0.00     0.000 A 
HETATM   31  C   UNL     1     -39.604  49.762 -53.502  1.00  0.00     0.001 A 
HETATM   32  C   UNL     1     -39.841  51.138 -53.574  1.00  0.00     0.009 A 
ENDBRANCH  25  27
ENDBRANCH  22  25
ENDBRANCH  20  21
ENDBRANCH   1  20
BRANCH   8  33
HETATM   33  C   UNL     1     -45.636  61.963 -53.085  1.00  0.00     0.098 A 
HETATM   34  C   UNL     1     -46.462  62.073 -54.216  1.00  0.00     0.086 A 
HETATM   35  C   UNL     1     -47.785  62.496 -54.083  1.00  0.00     0.038 A 
HETATM   36  C   UNL     1     -48.280  62.837 -52.829  1.00  0.00     0.005 A 
HETATM   37  C   UNL     1     -47.467  62.718 -51.697  1.00  0.00     0.038 A 
HETATM   38  C   UNL     1     -46.146  62.265 -51.809  1.00  0.00     0.086 A 
BRANCH  34  39
HETATM   39  O   UNL     1     -46.054  61.657 -55.457  1.00  0.00    -0.355 OA
HETATM   40  C   UNL     1     -45.992  62.748 -56.372  1.00  0.00     0.210 C 
ENDBRANCH  34  39
BRANCH  38  41
HETATM   41  O   UNL     1     -45.310  62.080 -50.743  1.00  0.00    -0.355 OA
HETATM   42  C   UNL     1     -45.850  61.486 -49.568  1.00  0.00     0.210 C 
ENDBRANCH  38  41
ENDBRANCH   8  33
TORSDOF 8
ENDMDL
MODEL 9
REMARK VINA RESULT:      -7.9      2.172      2.849
REMARK  8 active torsions:
REMARK  status: ('A' for Active; 'I' for Inactive)
REMARK    1  A    between atoms: C_2  and  N_3 
REMARK    2  A    between atoms: C_2  and  C_36 
REMARK       I    between atoms: N_3  and  C_4 
REMARK    3  A    between atoms: C_4  and  C_5 
REMARK    4  A    between atoms: C_5  and  N_6 
REMARK       I    between atoms: N_12  and  C_13 
REMARK    5  A    between atoms: C_13  and  C_14 
REMARK    6  A    between atoms: C_15  and  O_16 
REMARK    7  A    between atoms: C_21  and  O_22 
REMARK    8  A    between atoms: N_27  and  C_28 
ROOT
HETATM    1  N   UNL     1     -41.780  58.476 -52.191  1.00  0.00    -0.325 N 
HETATM    2  C   UNL     1     -41.938  57.943 -53.455  1.00  0.00     0.250 C 
HETATM    3  O   UNL     1     -41.226  57.087 -53.960  1.00  0.00    -0.270 OA
HETATM    4  C   UNL     1     -43.113  58.682 -54.130  1.00  0.00     0.118 C 
HETATM    5  C   UNL     1     -44.061  57.640 -54.754  1.00  0.00     0.061 C 
HETATM    6  C   UNL     1     -43.640  57.219 -56.155  1.00  0.00     0.129 C 
HETATM    7  N   UNL     1     -43.264  58.371 -56.960  1.00  0.00    -0.348 N 
HETATM    8  C   UNL     1     -44.201  58.912 -57.850  1.00  0.00     0.259 C 
HETATM    9  O   UNL     1     -45.362  58.517 -57.929  1.00  0.00    -0.267 OA
HETATM   10  C   UNL     1     -42.110  59.091 -56.444  1.00  0.00     0.129 C 
HETATM   11  C   UNL     1     -42.460  59.703 -55.089  1.00  0.00     0.061 C 
HETATM   12  N   UNL     1     -43.741  59.370 -52.967  1.00  0.00    -0.346 N 
HETATM   13  C   UNL     1     -42.877  59.309 -51.797  1.00  0.00     0.254 C 
ENDROOT
BRANCH  12  14
HETATM   14  C   UNL     1     -44.868  60.174 -52.957  1.00  0.00     0.032 A 
HETATM   15  C   UNL     1     -45.260  60.963 -54.051  1.00  0.00     0.029 A 
HETATM   16  C   UNL     1     -46.416  61.757 -54.035  1.00  0.00     0.002 A 
HETATM   17  C   UNL     1     -47.228  61.788 -52.912  1.00  0.00     0.000 A 
HETATM   18  C   UNL     1     -46.879  61.025 -51.807  1.00  0.00     0.002 A 
HETATM   19  C   UNL     1     -45.720  60.235 -51.836  1.00  0.00     0.029 A 
ENDBRANCH  12  14
BRANCH   1  20
HETATM   20  C   UNL     1     -40.808  57.974 -51.232  1.00  0.00     0.230 C 
BRANCH  20  21
HETATM   21  C   UNL     1     -41.121  56.580 -50.666  1.00  0.00     0.236 C 
HETATM   22  N   UNL     1     -41.164  55.569 -51.604  1.00  0.00    -0.351 N 
HETATM   23  H   UNL     1     -41.214  55.809 -52.586  1.00  0.00     0.163 HD
HETATM   24  O   UNL     1     -41.360  56.380 -49.477  1.00  0.00    -0.272 OA
BRANCH  22  25
HETATM   25  C   UNL     1     -41.524  54.205 -51.221  1.00  0.00     0.113 C 
HETATM   26  C   UNL     1     -43.051  54.064 -51.300  1.00  0.00     0.037 C 
BRANCH  25  27
HETATM   27  C   UNL     1     -40.781  53.149 -52.038  1.00  0.00    -0.036 A 
HETATM   28  C   UNL     1     -40.056  52.108 -51.433  1.00  0.00     0.009 A 
HETATM   29  C   UNL     1     -39.408  51.134 -52.200  1.00  0.00     0.001 A 
HETATM   30  C   UNL     1     -39.492  51.168 -53.589  1.00  0.00     0.000 A 
HETATM   31  C   UNL     1     -40.234  52.166 -54.210  1.00  0.00     0.001 A 
HETATM   32  C   UNL     1     -40.878  53.140 -53.442  1.00  0.00     0.009 A 
ENDBRANCH  25  27
ENDBRANCH  22  25
ENDBRANCH  20  21
ENDBRANCH   1  20
BRANCH   8  33
HETATM   33  C   UNL     1     -43.737  59.926 -58.828  1.00  0.00     0.098 A 
HETATM   34  C   UNL     1     -43.150  59.476 -60.022  1.00  0.00     0.086 A 
HETATM   35  C   UNL     1     -42.712  60.391 -60.979  1.00  0.00     0.038 A 
HETATM   36  C   UNL     1     -42.832  61.756 -60.738  1.00  0.00     0.005 A 
HETATM   37  C   UNL     1     -43.428  62.211 -59.558  1.00  0.00     0.038 A 
HETATM   38  C   UNL     1     -43.901  61.304 -58.600  1.00  0.00     0.086 A 
BRANCH  34  39
HETATM   39  O   UNL     1     -43.097  58.146 -60.349  1.00  0.00    -0.355 OA
HETATM   40  C   UNL     1     -41.760  57.656 -60.303  1.00  0.00     0.210 C 
ENDBRANCH  34  39
BRANCH  38  41
HETATM   41  O   UNL     1     -44.535  61.675 -57.446  1.00  0.00    -0.355 OA
HETATM   42  C   UNL     1     -44.167  62.915 -56.853  1.00  0.00     0.210 C 
ENDBRANCH  38  41
ENDBRANCH   8  33
TORSDOF 8
ENDMDL
MODEL 10
REMARK VINA RESULT:      -7.8      3.290      7.688
REMARK  8 active torsions:
REMARK  status: ('A' for Active; 'I' for Inactive)
REMARK    1  A    between atoms: C_2  and  N_3 
REMARK    2  A    between atoms: C_2  and  C_36 
REMARK       I    between atoms: N_3  and  C_4 
REMARK    3  A    between atoms: C_4  and  C_5 
REMARK    4  A    between atoms: C_5  and  N_6 
REMARK       I    between atoms: N_12  and  C_13 
REMARK    5  A    between atoms: C_13  and  C_14 
REMARK    6  A    between atoms: C_15  and  O_16 
REMARK    7  A    between atoms: C_21  and  O_22 
REMARK    8  A    between atoms: N_27  and  C_28 
ROOT
HETATM    1  N   UNL     1     -44.880  58.294 -52.271  1.00  0.00    -0.325 N 
HETATM    2  C   UNL     1     -44.942  59.028 -53.439  1.00  0.00     0.250 C 
HETATM    3  O   UNL     1     -45.502  60.108 -53.569  1.00  0.00    -0.270 OA
HETATM    4  C   UNL     1     -44.257  58.203 -54.548  1.00  0.00     0.118 C 
HETATM    5  C   UNL     1     -43.273  59.114 -55.307  1.00  0.00     0.061 C 
HETATM    6  C   UNL     1     -43.938  59.900 -56.429  1.00  0.00     0.129 C 
HETATM    7  N   UNL     1     -44.829  59.054 -57.208  1.00  0.00    -0.348 N 
HETATM    8  C   UNL     1     -44.369  58.515 -58.417  1.00  0.00     0.259 C 
HETATM    9  O   UNL     1     -43.215  58.649 -58.818  1.00  0.00    -0.267 OA
HETATM   10  C   UNL     1     -45.944  58.518 -56.442  1.00  0.00     0.129 C 
HETATM   11  C   UNL     1     -45.410  57.576 -55.365  1.00  0.00     0.061 C 
HETATM   12  N   UNL     1     -43.542  57.166 -53.751  1.00  0.00    -0.346 N 
HETATM   13  C   UNL     1     -43.990  57.174 -52.366  1.00  0.00     0.254 C 
ENDROOT
BRANCH  12  14
HETATM   14  C   UNL     1     -42.726  56.148 -54.211  1.00  0.00     0.032 A 
HETATM   15  C   UNL     1     -43.220  54.915 -54.673  1.00  0.00     0.029 A 
HETATM   16  C   UNL     1     -42.383  53.899 -55.156  1.00  0.00     0.002 A 
HETATM   17  C   UNL     1     -41.009  54.084 -55.195  1.00  0.00     0.000 A 
HETATM   18  C   UNL     1     -40.478  55.285 -54.750  1.00  0.00     0.002 A 
HETATM   19  C   UNL     1     -41.326  56.293 -54.268  1.00  0.00     0.029 A 
ENDBRANCH  12  14
BRANCH   1  20
HETATM   20  C   UNL     1     -45.364  58.789 -50.992  1.00  0.00     0.230 C 
BRANCH  20  21
HETATM   21  C   UNL     1     -44.630  60.031 -50.461  1.00  0.00     0.236 C 
HETATM   22  N   UNL     1     -45.440  60.968 -49.853  1.00  0.00    -0.351 N 
HETATM   23  H   UNL     1     -46.442  60.910 -49.979  1.00  0.00     0.163 HD
HETATM   24  O   UNL     1     -43.421  60.204 -50.604  1.00  0.00    -0.272 OA
BRANCH  22  25
HETATM   25  C   UNL     1     -44.890  62.232 -49.367  1.00  0.00     0.113 C 
HETATM   26  C   UNL     1     -45.583  63.383 -50.112  1.00  0.00     0.037 C 
BRANCH  25  27
HETATM   27  C   UNL     1     -44.973  62.365 -47.848  1.00  0.00    -0.036 A 
HETATM   28  C   UNL     1     -44.910  61.250 -46.994  1.00  0.00     0.009 A 
HETATM   29  C   UNL     1     -44.958  61.398 -45.603  1.00  0.00     0.001 A 
HETATM   30  C   UNL     1     -45.045  62.667 -45.037  1.00  0.00     0.000 A 
HETATM   31  C   UNL     1     -45.071  63.787 -45.860  1.00  0.00     0.001 A 
HETATM   32  C   UNL     1     -45.027  63.637 -47.249  1.00  0.00     0.009 A 
ENDBRANCH  25  27
ENDBRANCH  22  25
ENDBRANCH  20  21
ENDBRANCH   1  20
BRANCH   8  33
HETATM   33  C   UNL     1     -45.350  57.855 -59.312  1.00  0.00     0.098 A 
HETATM   34  C   UNL     1     -46.318  58.657 -59.939  1.00  0.00     0.086 A 
HETATM   35  C   UNL     1     -47.254  58.085 -60.801  1.00  0.00     0.038 A 
HETATM   36  C   UNL     1     -47.245  56.711 -61.020  1.00  0.00     0.005 A 
HETATM   37  C   UNL     1     -46.275  55.909 -60.409  1.00  0.00     0.038 A 
HETATM   38  C   UNL     1     -45.310  56.472 -59.564  1.00  0.00     0.086 A 
BRANCH  34  39
HETATM   39  O   UNL     1     -46.309  60.024 -59.834  1.00  0.00    -0.355 OA
HETATM   40  C   UNL     1     -47.523  60.506 -59.264  1.00  0.00     0.210 C 
ENDBRANCH  34  39
BRANCH  38  41
HETATM   41  O   UNL     1     -44.305  55.758 -58.970  1.00  0.00    -0.355 OA
HETATM   42  C   UNL     1     -44.137  54.399 -59.357  1.00  0.00     0.210 C 
ENDBRANCH  38  41
ENDBRANCH   8  33
TORSDOF 8
ENDMDL
