MODEL 1
REMARK VINA RESULT:      -7.7      0.000      0.000
REMARK  7 active torsions:
REMARK  status: ('A' for Active; 'I' for Inactive)
REMARK    1  A    between atoms: C_2  and  N_3 
REMARK    2  A    between atoms: C_2  and  C_10 
REMARK    3  A    between atoms: N_11  and  C_12 
REMARK    4  A    between atoms: C_19  and  S_20 
REMARK    5  A    between atoms: S_20  and  C_21 
REMARK    6  A    between atoms: C_21  and  C_22 
REMARK    7  A    between atoms: C_21  and  C_28 
REMARK       I    between atoms: C_22  and  N_23 
REMARK       I    between atoms: N_23  and  C_24 
REMARK       I    between atoms: C_24  and  N_25 
ROOT
HETATM    1  C   UNL     1     -44.256  58.640 -55.943  1.00  0.00     0.166 A 
HETATM    2  N   UNL     1     -43.300  58.068 -55.106  1.00  0.00    -0.274 N 
HETATM    3  C   UNL     1     -42.743  59.156 -54.447  1.00  0.00     0.197 A 
HETATM    4  N   UNL     1     -43.405  60.243 -54.763  1.00  0.00    -0.122 NA
HETATM    5  N   UNL     1     -44.363  59.923 -55.673  1.00  0.00    -0.131 NA
ENDROOT
BRANCH   3   6
HETATM    6  S   UNL     1     -41.437  59.061 -53.317  1.00  0.00    -0.070 SA
BRANCH   6   7
HETATM    7  C   UNL     1     -42.215  58.588 -51.720  1.00  0.00     0.180 C 
BRANCH   7   8
HETATM    8  C   UNL     1     -41.680  59.447 -50.558  1.00  0.00     0.244 C 
HETATM    9  N   UNL     1     -42.558  60.256 -49.860  1.00  0.00    -0.278 N 
HETATM   10  C   UNL     1     -43.815  60.675 -50.213  1.00  0.00     0.320 C 
HETATM   11  H   UNL     1     -42.117  60.749 -49.102  1.00  0.00     0.173 HD
HETATM   12  N   UNL     1     -44.358  61.543 -49.317  1.00  0.00    -0.352 N 
HETATM   13  O   UNL     1     -44.456  60.314 -51.187  1.00  0.00    -0.247 OA
HETATM   14  H   UNL     1     -43.775  62.204 -48.824  1.00  0.00     0.160 HD
HETATM   15  H   UNL     1     -45.264  61.904 -49.594  1.00  0.00     0.160 HD
HETATM   16  O   UNL     1     -40.491  59.489 -50.219  1.00  0.00    -0.271 OA
ENDBRANCH   7   8
BRANCH   7  17
HETATM   17  C   UNL     1     -42.227  57.085 -51.477  1.00  0.00    -0.035 A 
HETATM   18  C   UNL     1     -43.387  56.478 -50.963  1.00  0.00     0.009 A 
HETATM   19  C   UNL     1     -43.432  55.103 -50.722  1.00  0.00     0.001 A 
HETATM   20  C   UNL     1     -42.321  54.310 -50.992  1.00  0.00     0.000 A 
HETATM   21  C   UNL     1     -41.163  54.891 -51.501  1.00  0.00     0.001 A 
HETATM   22  C   UNL     1     -41.115  56.266 -51.741  1.00  0.00     0.009 A 
ENDBRANCH   7  17
ENDBRANCH   6   7
ENDBRANCH   3   6
BRANCH   2  23
HETATM   23  C   UNL     1     -42.976  56.689 -55.014  1.00  0.00     0.043 A 
HETATM   24  C   UNL     1     -41.734  56.210 -55.452  1.00  0.00     0.033 A 
HETATM   25  C   UNL     1     -41.439  54.848 -55.349  1.00  0.00     0.044 A 
HETATM   26  C   UNL     1     -42.378  53.975 -54.810  1.00  0.00     0.116 A 
HETATM   27  F   UNL     1     -42.091  52.673 -54.711  1.00  0.00    -0.206 F 
HETATM   28  C   UNL     1     -43.611  54.440 -54.367  1.00  0.00     0.044 A 
HETATM   29  C   UNL     1     -43.914  55.800 -54.466  1.00  0.00     0.033 A 
ENDBRANCH   2  23
BRANCH   1  30
HETATM   30  C   UNL     1     -44.926  57.974 -57.105  1.00  0.00     0.255 C 
HETATM   31  C   UNL     1     -46.180  58.735 -57.544  1.00  0.00     0.049 C 
BRANCH  30  32
HETATM   32  N   UNL     1     -44.008  57.775 -58.340  1.00  0.00    -0.060 N 
HETATM   33  H   UNL     1     -44.579  58.045 -59.149  1.00  0.00     0.280 HD
HETATM   34  C   UNL     1     -42.767  58.655 -58.375  1.00  0.00     0.236 C 
HETATM   35  C   UNL     1     -42.111  58.520 -59.746  1.00  0.00     0.028 C 
HETATM   36  C   UNL     1     -41.751  57.069 -60.048  1.00  0.00     0.003 C 
HETATM   37  C   UNL     1     -42.959  56.153 -59.892  1.00  0.00     0.028 C 
HETATM   38  C   UNL     1     -43.631  56.322 -58.534  1.00  0.00     0.236 C 
ENDBRANCH  30  32
ENDBRANCH   1  30
TORSDOF 7
ENDMDL
MODEL 2
REMARK VINA RESULT:      -7.6      3.601      5.820
REMARK  7 active torsions:
REMARK  status: ('A' for Active; 'I' for Inactive)
REMARK    1  A    between atoms: C_2  and  N_3 
REMARK    2  A    between atoms: C_2  and  C_10 
REMARK    3  A    between atoms: N_11  and  C_12 
REMARK    4  A    between atoms: C_19  and  S_20 
REMARK    5  A    between atoms: S_20  and  C_21 
REMARK    6  A    between atoms: C_21  and  C_22 
REMARK    7  A    between atoms: C_21  and  C_28 
REMARK       I    between atoms: C_22  and  N_23 
REMARK       I    between atoms: N_23  and  C_24 
REMARK       I    between atoms: C_24  and  N_25 
ROOT
HETATM    1  C   UNL     1     -43.465  57.288 -54.200  1.00  0.00     0.166 A 
HETATM    2  N   UNL     1     -42.217  56.920 -53.702  1.00  0.00    -0.274 N 
HETATM    3  C   UNL     1     -41.964  55.698 -54.310  1.00  0.00     0.197 A 
HETATM    4  N   UNL     1     -42.907  55.442 -55.185  1.00  0.00    -0.122 NA
HETATM    5  N   UNL     1     -43.828  56.441 -55.139  1.00  0.00    -0.131 NA
ENDROOT
BRANCH   3   6
HETATM    6  S   UNL     1     -40.570  54.718 -54.012  1.00  0.00    -0.070 SA
BRANCH   6   7
HETATM    7  C   UNL     1     -41.124  53.446 -52.806  1.00  0.00     0.180 C 
BRANCH   7   8
HETATM    8  C   UNL     1     -41.072  53.979 -51.361  1.00  0.00     0.244 C 
HETATM    9  N   UNL     1     -42.254  54.164 -50.670  1.00  0.00    -0.278 N 
HETATM   10  C   UNL     1     -43.535  54.241 -51.152  1.00  0.00     0.320 C 
HETATM   11  H   UNL     1     -42.110  54.483 -49.726  1.00  0.00     0.173 HD
HETATM   12  N   UNL     1     -44.452  54.519 -50.185  1.00  0.00    -0.352 N 
HETATM   13  O   UNL     1     -43.894  54.046 -52.302  1.00  0.00    -0.247 OA
HETATM   14  H   UNL     1     -44.215  55.124 -49.412  1.00  0.00     0.160 HD
HETATM   15  H   UNL     1     -45.396  54.635 -50.537  1.00  0.00     0.160 HD
HETATM   16  O   UNL     1     -40.027  54.290 -50.777  1.00  0.00    -0.271 OA
ENDBRANCH   7   8
BRANCH   7  17
HETATM   17  C   UNL     1     -40.481  52.084 -53.030  1.00  0.00    -0.035 A 
HETATM   18  C   UNL     1     -40.472  51.528 -54.322  1.00  0.00     0.009 A 
HETATM   19  C   UNL     1     -39.897  50.279 -54.563  1.00  0.00     0.001 A 
HETATM   20  C   UNL     1     -39.318  49.563 -53.520  1.00  0.00     0.000 A 
HETATM   21  C   UNL     1     -39.316  50.095 -52.233  1.00  0.00     0.001 A 
HETATM   22  C   UNL     1     -39.893  51.344 -51.989  1.00  0.00     0.009 A 
ENDBRANCH   7  17
ENDBRANCH   6   7
ENDBRANCH   3   6
BRANCH   2  23
HETATM   23  C   UNL     1     -41.439  57.642 -52.759  1.00  0.00     0.043 A 
HETATM   24  C   UNL     1     -40.434  58.524 -53.179  1.00  0.00     0.033 A 
HETATM   25  C   UNL     1     -39.684  59.225 -52.230  1.00  0.00     0.044 A 
HETATM   26  C   UNL     1     -39.941  59.045 -50.875  1.00  0.00     0.116 A 
HETATM   27  F   UNL     1     -39.221  59.718 -49.971  1.00  0.00    -0.206 F 
HETATM   28  C   UNL     1     -40.938  58.176 -50.447  1.00  0.00     0.044 A 
HETATM   29  C   UNL     1     -41.692  57.472 -51.388  1.00  0.00     0.033 A 
ENDBRANCH   2  23
BRANCH   1  30
HETATM   30  C   UNL     1     -44.362  58.350 -53.643  1.00  0.00     0.255 C 
HETATM   31  C   UNL     1     -44.964  57.931 -52.299  1.00  0.00     0.049 C 
BRANCH  30  32
HETATM   32  N   UNL     1     -43.681  59.733 -53.474  1.00  0.00    -0.060 N 
HETATM   33  H   UNL     1     -42.674  59.552 -53.557  1.00  0.00     0.280 HD
HETATM   34  C   UNL     1     -44.024  60.761 -54.541  1.00  0.00     0.236 C 
HETATM   35  C   UNL     1     -43.101  61.964 -54.375  1.00  0.00     0.028 C 
HETATM   36  C   UNL     1     -43.227  62.573 -52.983  1.00  0.00     0.003 C 
HETATM   37  C   UNL     1     -43.011  61.524 -51.897  1.00  0.00     0.028 C 
HETATM   38  C   UNL     1     -43.911  60.309 -52.092  1.00  0.00     0.236 C 
ENDBRANCH  30  32
ENDBRANCH   1  30
TORSDOF 7
ENDMDL
MODEL 3
REMARK VINA RESULT:      -7.4      3.153      6.724
REMARK  7 active torsions:
REMARK  status: ('A' for Active; 'I' for Inactive)
REMARK    1  A    between atoms: C_2  and  N_3 
REMARK    2  A    between atoms: C_2  and  C_10 
REMARK    3  A    between atoms: N_11  and  C_12 
REMARK    4  A    between atoms: C_19  and  S_20 
REMARK    5  A    between atoms: S_20  and  C_21 
REMARK    6  A    between atoms: C_21  and  C_22 
REMARK    7  A    between atoms: C_21  and  C_28 
REMARK       I    between atoms: C_22  and  N_23 
REMARK       I    between atoms: N_23  and  C_24 
REMARK       I    between atoms: C_24  and  N_25 
ROOT
HETATM    1  C   UNL     1     -43.846  59.475 -53.012  1.00  0.00     0.166 A 
HETATM    2  N   UNL     1     -42.941  58.551 -52.495  1.00  0.00    -0.274 N 
HETATM    3  C   UNL     1     -43.577  57.330 -52.669  1.00  0.00     0.197 A 
HETATM    4  N   UNL     1     -44.684  57.508 -53.350  1.00  0.00    -0.122 NA
HETATM    5  N   UNL     1     -44.842  58.836 -53.587  1.00  0.00    -0.131 NA
ENDROOT
BRANCH   3   6
HETATM    6  S   UNL     1     -42.948  55.807 -52.143  1.00  0.00    -0.070 SA
BRANCH   6   7
HETATM    7  C   UNL     1     -42.244  55.029 -53.652  1.00  0.00     0.180 C 
BRANCH   7   8
HETATM    8  C   UNL     1     -43.333  54.764 -54.709  1.00  0.00     0.244 C 
HETATM    9  N   UNL     1     -43.299  55.466 -55.900  1.00  0.00    -0.278 N 
HETATM   10  C   UNL     1     -42.616  56.613 -56.208  1.00  0.00     0.320 C 
HETATM   11  H   UNL     1     -44.034  55.196 -56.534  1.00  0.00     0.173 HD
HETATM   12  N   UNL     1     -42.888  57.075 -57.459  1.00  0.00    -0.352 N 
HETATM   13  O   UNL     1     -41.800  57.186 -55.504  1.00  0.00    -0.247 OA
HETATM   14  H   UNL     1     -43.811  56.969 -57.855  1.00  0.00     0.160 HD
HETATM   15  H   UNL     1     -42.433  57.954 -57.679  1.00  0.00     0.160 HD
HETATM   16  O   UNL     1     -44.273  53.975 -54.551  1.00  0.00    -0.271 OA
ENDBRANCH   7   8
BRANCH   7  17
HETATM   17  C   UNL     1     -41.320  53.857 -53.350  1.00  0.00    -0.035 A 
HETATM   18  C   UNL     1     -40.871  53.653 -52.032  1.00  0.00     0.009 A 
HETATM   19  C   UNL     1     -40.018  52.592 -51.719  1.00  0.00     0.001 A 
HETATM   20  C   UNL     1     -39.599  51.716 -52.715  1.00  0.00     0.000 A 
HETATM   21  C   UNL     1     -40.031  51.900 -54.026  1.00  0.00     0.001 A 
HETATM   22  C   UNL     1     -40.883  52.961 -54.341  1.00  0.00     0.009 A 
ENDBRANCH   7  17
ENDBRANCH   6   7
ENDBRANCH   3   6
BRANCH   2  23
HETATM   23  C   UNL     1     -41.686  58.843 -51.898  1.00  0.00     0.043 A 
HETATM   24  C   UNL     1     -41.594  59.172 -50.539  1.00  0.00     0.033 A 
HETATM   25  C   UNL     1     -40.346  59.453 -49.975  1.00  0.00     0.044 A 
HETATM   26  C   UNL     1     -39.203  59.403 -50.765  1.00  0.00     0.116 A 
HETATM   27  F   UNL     1     -38.011  59.672 -50.222  1.00  0.00    -0.206 F 
HETATM   28  C   UNL     1     -39.282  59.073 -52.113  1.00  0.00     0.044 A 
HETATM   29  C   UNL     1     -40.524  58.790 -52.685  1.00  0.00     0.033 A 
ENDBRANCH   2  23
BRANCH   1  30
HETATM   30  C   UNL     1     -43.822  60.956 -52.793  1.00  0.00     0.255 C 
HETATM   31  C   UNL     1     -44.892  61.667 -53.626  1.00  0.00     0.049 C 
BRANCH  30  32
HETATM   32  N   UNL     1     -43.982  61.382 -51.310  1.00  0.00    -0.060 N 
HETATM   33  H   UNL     1     -43.177  60.973 -50.822  1.00  0.00     0.280 HD
HETATM   34  C   UNL     1     -43.924  62.881 -51.054  1.00  0.00     0.236 C 
HETATM   35  C   UNL     1     -43.850  63.118 -49.549  1.00  0.00     0.028 C 
HETATM   36  C   UNL     1     -45.042  62.494 -48.830  1.00  0.00     0.003 C 
HETATM   37  C   UNL     1     -45.189  61.017 -49.177  1.00  0.00     0.028 C 
HETATM   38  C   UNL     1     -45.225  60.786 -50.683  1.00  0.00     0.236 C 
ENDBRANCH  30  32
ENDBRANCH   1  30
TORSDOF 7
ENDMDL
MODEL 4
REMARK VINA RESULT:      -7.3      3.013      4.482
REMARK  7 active torsions:
REMARK  status: ('A' for Active; 'I' for Inactive)
REMARK    1  A    between atoms: C_2  and  N_3 
REMARK    2  A    between atoms: C_2  and  C_10 
REMARK    3  A    between atoms: N_11  and  C_12 
REMARK    4  A    between atoms: C_19  and  S_20 
REMARK    5  A    between atoms: S_20  and  C_21 
REMARK    6  A    between atoms: C_21  and  C_22 
REMARK    7  A    between atoms: C_21  and  C_28 
REMARK       I    between atoms: C_22  and  N_23 
REMARK       I    between atoms: N_23  and  C_24 
REMARK       I    between atoms: C_24  and  N_25 
ROOT
HETATM    1  C   UNL     1     -43.235  56.469 -56.730  1.00  0.00     0.166 A 
HETATM    2  N   UNL     1     -43.388  56.516 -55.346  1.00  0.00    -0.274 N 
HETATM    3  C   UNL     1     -43.274  55.189 -54.955  1.00  0.00     0.197 A 
HETATM    4  N   UNL     1     -42.945  54.455 -55.991  1.00  0.00    -0.122 NA
HETATM    5  N   UNL     1     -42.894  55.251 -57.091  1.00  0.00    -0.131 NA
ENDROOT
BRANCH   3   6
HETATM    6  S   UNL     1     -43.452  54.622 -53.330  1.00  0.00    -0.070 SA
BRANCH   6   7
HETATM    7  C   UNL     1     -41.756  54.643 -52.624  1.00  0.00     0.180 C 
BRANCH   7   8
HETATM    8  C   UNL     1     -41.002  55.931 -53.008  1.00  0.00     0.244 C 
HETATM    9  N   UNL     1     -41.056  57.020 -52.157  1.00  0.00    -0.278 N 
HETATM   10  C   UNL     1     -41.931  57.276 -51.134  1.00  0.00     0.320 C 
HETATM   11  H   UNL     1     -40.505  57.798 -52.483  1.00  0.00     0.173 HD
HETATM   12  N   UNL     1     -41.740  58.497 -50.563  1.00  0.00    -0.352 N 
HETATM   13  O   UNL     1     -42.784  56.519 -50.698  1.00  0.00    -0.247 OA
HETATM   14  H   UNL     1     -41.443  59.284 -51.122  1.00  0.00     0.160 HD
HETATM   15  H   UNL     1     -42.417  58.722 -49.843  1.00  0.00     0.160 HD
HETATM   16  O   UNL     1     -40.366  56.073 -54.059  1.00  0.00    -0.271 OA
ENDBRANCH   7   8
BRANCH   7  17
HETATM   17  C   UNL     1     -40.994  53.343 -52.847  1.00  0.00    -0.035 A 
HETATM   18  C   UNL     1     -40.237  52.797 -51.794  1.00  0.00     0.009 A 
HETATM   19  C   UNL     1     -39.521  51.610 -51.964  1.00  0.00     0.001 A 
HETATM   20  C   UNL     1     -39.550  50.946 -53.187  1.00  0.00     0.000 A 
HETATM   21  C   UNL     1     -40.294  51.469 -54.241  1.00  0.00     0.001 A 
HETATM   22  C   UNL     1     -41.009  52.657 -54.074  1.00  0.00     0.009 A 
ENDBRANCH   7  17
ENDBRANCH   6   7
ENDBRANCH   3   6
BRANCH   2  23
HETATM   23  C   UNL     1     -43.644  57.673 -54.565  1.00  0.00     0.043 A 
HETATM   24  C   UNL     1     -44.785  57.759 -53.755  1.00  0.00     0.033 A 
HETATM   25  C   UNL     1     -45.012  58.909 -52.994  1.00  0.00     0.044 A 
HETATM   26  C   UNL     1     -44.104  59.961 -53.042  1.00  0.00     0.116 A 
HETATM   27  F   UNL     1     -44.324  61.059 -52.312  1.00  0.00    -0.206 F 
HETATM   28  C   UNL     1     -42.966  59.885 -53.837  1.00  0.00     0.044 A 
HETATM   29  C   UNL     1     -42.731  58.740 -54.601  1.00  0.00     0.033 A 
ENDBRANCH   2  23
BRANCH   1  30
HETATM   30  C   UNL     1     -43.586  57.557 -57.697  1.00  0.00     0.255 C 
HETATM   31  C   UNL     1     -42.488  57.756 -58.746  1.00  0.00     0.049 C 
BRANCH  30  32
HETATM   32  N   UNL     1     -44.938  57.347 -58.427  1.00  0.00    -0.060 N 
HETATM   33  H   UNL     1     -45.516  56.802 -57.776  1.00  0.00     0.280 HD
HETATM   34  C   UNL     1     -45.717  58.618 -58.734  1.00  0.00     0.236 C 
HETATM   35  C   UNL     1     -47.110  58.233 -59.221  1.00  0.00     0.028 C 
HETATM   36  C   UNL     1     -47.039  57.335 -60.452  1.00  0.00     0.003 C 
HETATM   37  C   UNL     1     -46.157  56.118 -60.201  1.00  0.00     0.028 C 
HETATM   38  C   UNL     1     -44.779  56.509 -59.679  1.00  0.00     0.236 C 
ENDBRANCH  30  32
ENDBRANCH   1  30
TORSDOF 7
ENDMDL
MODEL 5
REMARK VINA RESULT:      -7.3      3.276      5.012
REMARK  7 active torsions:
REMARK  status: ('A' for Active; 'I' for Inactive)
REMARK    1  A    between atoms: C_2  and  N_3 
REMARK    2  A    between atoms: C_2  and  C_10 
REMARK    3  A    between atoms: N_11  and  C_12 
REMARK    4  A    between atoms: C_19  and  S_20 
REMARK    5  A    between atoms: S_20  and  C_21 
REMARK    6  A    between atoms: C_21  and  C_22 
REMARK    7  A    between atoms: C_21  and  C_28 
REMARK       I    between atoms: C_22  and  N_23 
REMARK       I    between atoms: N_23  and  C_24 
REMARK       I    between atoms: C_24  and  N_25 
ROOT
HETATM    1  C   UNL     1     -43.287  56.300 -56.099  1.00  0.00     0.166 A 
HETATM    2  N   UNL     1     -43.349  56.821 -54.808  1.00  0.00    -0.274 N 
HETATM    3  C   UNL     1     -43.475  55.698 -54.002  1.00  0.00     0.197 A 
HETATM    4  N   UNL     1     -43.355  54.618 -54.737  1.00  0.00    -0.122 NA
HETATM    5  N   UNL     1     -43.212  54.988 -56.037  1.00  0.00    -0.131 NA
ENDROOT
BRANCH   3   6
HETATM    6  S   UNL     1     -43.668  55.735 -52.283  1.00  0.00    -0.070 SA
BRANCH   6   7
HETATM    7  C   UNL     1     -41.967  55.918 -51.611  1.00  0.00     0.180 C 
BRANCH   7   8
HETATM    8  C   UNL     1     -41.668  54.853 -50.539  1.00  0.00     0.244 C 
HETATM    9  N   UNL     1     -40.790  53.828 -50.836  1.00  0.00    -0.278 N 
HETATM   10  C   UNL     1     -40.340  53.401 -52.059  1.00  0.00     0.320 C 
HETATM   11  H   UNL     1     -40.638  53.205 -50.059  1.00  0.00     0.173 HD
HETATM   12  N   UNL     1     -39.545  52.300 -51.979  1.00  0.00    -0.352 N 
HETATM   13  O   UNL     1     -40.552  53.931 -53.138  1.00  0.00    -0.247 OA
HETATM   14  H   UNL     1     -39.718  51.591 -51.280  1.00  0.00     0.160 HD
HETATM   15  H   UNL     1     -39.252  51.940 -52.881  1.00  0.00     0.160 HD
HETATM   16  O   UNL     1     -42.194  54.832 -49.420  1.00  0.00    -0.271 OA
ENDBRANCH   7   8
BRANCH   7  17
HETATM   17  C   UNL     1     -41.621  57.352 -51.231  1.00  0.00    -0.035 A 
HETATM   18  C   UNL     1     -40.272  57.748 -51.191  1.00  0.00     0.009 A 
HETATM   19  C   UNL     1     -39.917  59.053 -50.840  1.00  0.00     0.001 A 
HETATM   20  C   UNL     1     -40.901  59.984 -50.525  1.00  0.00     0.000 A 
HETATM   21  C   UNL     1     -42.242  59.612 -50.558  1.00  0.00     0.001 A 
HETATM   22  C   UNL     1     -42.600  58.307 -50.907  1.00  0.00     0.009 A 
ENDBRANCH   7  17
ENDBRANCH   6   7
ENDBRANCH   3   6
BRANCH   2  23
HETATM   23  C   UNL     1     -43.329  58.195 -54.452  1.00  0.00     0.043 A 
HETATM   24  C   UNL     1     -42.138  58.933 -54.497  1.00  0.00     0.033 A 
HETATM   25  C   UNL     1     -42.145  60.286 -54.144  1.00  0.00     0.044 A 
HETATM   26  C   UNL     1     -43.333  60.893 -53.753  1.00  0.00     0.116 A 
HETATM   27  F   UNL     1     -43.336  62.187 -53.417  1.00  0.00    -0.206 F 
HETATM   28  C   UNL     1     -44.521  60.172 -53.710  1.00  0.00     0.044 A 
HETATM   29  C   UNL     1     -44.524  58.821 -54.062  1.00  0.00     0.033 A 
ENDBRANCH   2  23
BRANCH   1  30
HETATM   30  C   UNL     1     -43.473  57.065 -57.373  1.00  0.00     0.255 C 
HETATM   31  C   UNL     1     -42.132  57.377 -58.044  1.00  0.00     0.049 C 
BRANCH  30  32
HETATM   32  N   UNL     1     -44.394  56.365 -58.405  1.00  0.00    -0.060 N 
HETATM   33  H   UNL     1     -44.938  55.682 -57.865  1.00  0.00     0.280 HD
HETATM   34  C   UNL     1     -45.404  57.271 -59.095  1.00  0.00     0.236 C 
HETATM   35  C   UNL     1     -46.381  56.404 -59.882  1.00  0.00     0.028 C 
HETATM   36  C   UNL     1     -45.654  55.535 -60.902  1.00  0.00     0.003 C 
HETATM   37  C   UNL     1     -44.551  54.712 -60.245  1.00  0.00     0.028 C 
HETATM   38  C   UNL     1     -43.601  55.581 -59.430  1.00  0.00     0.236 C 
ENDBRANCH  30  32
ENDBRANCH   1  30
TORSDOF 7
ENDMDL
MODEL 6
REMARK VINA RESULT:      -7.2      2.437      6.352
REMARK  7 active torsions:
REMARK  status: ('A' for Active; 'I' for Inactive)
REMARK    1  A    between atoms: C_2  and  N_3 
REMARK    2  A    between atoms: C_2  and  C_10 
REMARK    3  A    between atoms: N_11  and  C_12 
REMARK    4  A    between atoms: C_19  and  S_20 
REMARK    5  A    between atoms: S_20  and  C_21 
REMARK    6  A    between atoms: C_21  and  C_22 
REMARK    7  A    between atoms: C_21  and  C_28 
REMARK       I    between atoms: C_22  and  N_23 
REMARK       I    between atoms: N_23  and  C_24 
REMARK       I    between atoms: C_24  and  N_25 
ROOT
HETATM    1  C   UNL     1     -42.903  58.484 -52.835  1.00  0.00     0.166 A 
HETATM    2  N   UNL     1     -42.621  57.817 -54.025  1.00  0.00    -0.274 N 
HETATM    3  C   UNL     1     -42.733  58.805 -54.994  1.00  0.00     0.197 A 
HETATM    4  N   UNL     1     -42.922  59.966 -54.413  1.00  0.00    -0.122 NA
HETATM    5  N   UNL     1     -43.003  59.775 -53.070  1.00  0.00    -0.131 NA
ENDROOT
BRANCH   3   6
HETATM    6  S   UNL     1     -42.556  58.543 -56.694  1.00  0.00    -0.070 SA
BRANCH   6   7
HETATM    7  C   UNL     1     -44.271  58.478 -57.352  1.00  0.00     0.180 C 
BRANCH   7   8
HETATM    8  C   UNL     1     -45.312  58.638 -56.227  1.00  0.00     0.244 C 
HETATM    9  N   UNL     1     -45.920  59.866 -56.044  1.00  0.00    -0.278 N 
HETATM   10  C   UNL     1     -45.540  61.098 -56.510  1.00  0.00     0.320 C 
HETATM   11  H   UNL     1     -46.607  59.856 -55.307  1.00  0.00     0.173 HD
HETATM   12  N   UNL     1     -46.334  62.106 -56.057  1.00  0.00    -0.352 N 
HETATM   13  O   UNL     1     -44.628  61.333 -57.286  1.00  0.00    -0.247 OA
HETATM   14  H   UNL     1     -46.734  62.068 -55.130  1.00  0.00     0.160 HD
HETATM   15  H   UNL     1     -46.030  63.029 -56.349  1.00  0.00     0.160 HD
HETATM   16  O   UNL     1     -45.623  57.736 -55.440  1.00  0.00    -0.271 OA
ENDBRANCH   7   8
BRANCH   7  17
HETATM   17  C   UNL     1     -44.506  57.315 -58.307  1.00  0.00    -0.035 A 
HETATM   18  C   UNL     1     -45.677  57.288 -59.086  1.00  0.00     0.009 A 
HETATM   19  C   UNL     1     -45.929  56.234 -59.968  1.00  0.00     0.001 A 
HETATM   20  C   UNL     1     -45.016  55.191 -60.089  1.00  0.00     0.000 A 
HETATM   21  C   UNL     1     -43.851  55.199 -59.327  1.00  0.00     0.001 A 
HETATM   22  C   UNL     1     -43.598  56.251 -58.443  1.00  0.00     0.009 A 
ENDBRANCH   7  17
ENDBRANCH   6   7
ENDBRANCH   3   6
BRANCH   2  23
HETATM   23  C   UNL     1     -42.334  56.435 -54.169  1.00  0.00     0.043 A 
HETATM   24  C   UNL     1     -43.342  55.519 -54.501  1.00  0.00     0.033 A 
HETATM   25  C   UNL     1     -43.032  54.163 -54.638  1.00  0.00     0.044 A 
HETATM   26  C   UNL     1     -41.724  53.730 -54.448  1.00  0.00     0.116 A 
HETATM   27  F   UNL     1     -41.432  52.432 -54.581  1.00  0.00    -0.206 F 
HETATM   28  C   UNL     1     -40.715  54.629 -54.123  1.00  0.00     0.044 A 
HETATM   29  C   UNL     1     -41.016  55.986 -53.984  1.00  0.00     0.033 A 
ENDBRANCH   2  23
BRANCH   1  30
HETATM   30  C   UNL     1     -43.242  57.848 -51.522  1.00  0.00     0.255 C 
HETATM   31  C   UNL     1     -44.742  57.565 -51.403  1.00  0.00     0.049 C 
BRANCH  30  32
HETATM   32  N   UNL     1     -42.464  56.538 -51.232  1.00  0.00    -0.060 N 
HETATM   33  H   UNL     1     -42.039  56.270 -52.127  1.00  0.00     0.280 HD
HETATM   34  C   UNL     1     -41.322  56.667 -50.234  1.00  0.00     0.236 C 
HETATM   35  C   UNL     1     -40.515  55.373 -50.243  1.00  0.00     0.028 C 
HETATM   36  C   UNL     1     -41.391  54.171 -49.906  1.00  0.00     0.003 C 
HETATM   37  C   UNL     1     -42.611  54.099 -50.817  1.00  0.00     0.028 C 
HETATM   38  C   UNL     1     -43.390  55.409 -50.831  1.00  0.00     0.236 C 
ENDBRANCH  30  32
ENDBRANCH   1  30
TORSDOF 7
ENDMDL
MODEL 7
REMARK VINA RESULT:      -7.1      2.423      6.499
REMARK  7 active torsions:
REMARK  status: ('A' for Active; 'I' for Inactive)
REMARK    1  A    between atoms: C_2  and  N_3 
REMARK    2  A    between atoms: C_2  and  C_10 
REMARK    3  A    between atoms: N_11  and  C_12 
REMARK    4  A    between atoms: C_19  and  S_20 
REMARK    5  A    between atoms: S_20  and  C_21 
REMARK    6  A    between atoms: C_21  and  C_22 
REMARK    7  A    between atoms: C_21  and  C_28 
REMARK       I    between atoms: C_22  and  N_23 
REMARK       I    between atoms: N_23  and  C_24 
REMARK       I    between atoms: C_24  and  N_25 
ROOT
HETATM    1  C   UNL     1     -41.574  58.934 -53.030  1.00  0.00     0.166 A 
HETATM    2  N   UNL     1     -41.752  57.953 -54.004  1.00  0.00    -0.274 N 
HETATM    3  C   UNL     1     -42.064  58.675 -55.148  1.00  0.00     0.197 A 
HETATM    4  N   UNL     1     -41.943  59.957 -54.902  1.00  0.00    -0.122 NA
HETATM    5  N   UNL     1     -41.613  60.122 -53.594  1.00  0.00    -0.131 NA
ENDROOT
BRANCH   3   6
HETATM    6  S   UNL     1     -42.462  57.972 -56.678  1.00  0.00    -0.070 SA
BRANCH   6   7
HETATM    7  C   UNL     1     -44.257  58.298 -56.905  1.00  0.00     0.180 C 
BRANCH   7   8
HETATM    8  C   UNL     1     -45.023  58.182 -55.573  1.00  0.00     0.244 C 
HETATM    9  N   UNL     1     -45.697  59.287 -55.087  1.00  0.00    -0.278 N 
HETATM   10  C   UNL     1     -45.564  60.605 -55.437  1.00  0.00     0.320 C 
HETATM   11  H   UNL     1     -46.192  59.098 -54.230  1.00  0.00     0.173 HD
HETATM   12  N   UNL     1     -46.333  61.437 -54.683  1.00  0.00    -0.352 N 
HETATM   13  O   UNL     1     -44.883  61.052 -56.347  1.00  0.00    -0.247 OA
HETATM   14  H   UNL     1     -46.503  61.236 -53.708  1.00  0.00     0.160 HD
HETATM   15  H   UNL     1     -46.201  62.420 -54.894  1.00  0.00     0.160 HD
HETATM   16  O   UNL     1     -45.051  57.159 -54.878  1.00  0.00    -0.271 OA
ENDBRANCH   7   8
BRANCH   7  17
HETATM   17  C   UNL     1     -44.862  57.544 -58.081  1.00  0.00    -0.035 A 
HETATM   18  C   UNL     1     -46.203  57.779 -58.435  1.00  0.00     0.009 A 
HETATM   19  C   UNL     1     -46.793  57.101 -59.505  1.00  0.00     0.001 A 
HETATM   20  C   UNL     1     -46.055  56.178 -60.239  1.00  0.00     0.000 A 
HETATM   21  C   UNL     1     -44.727  55.930 -59.904  1.00  0.00     0.001 A 
HETATM   22  C   UNL     1     -44.135  56.606 -58.835  1.00  0.00     0.009 A 
ENDBRANCH   7  17
ENDBRANCH   6   7
ENDBRANCH   3   6
BRANCH   2  23
HETATM   23  C   UNL     1     -41.664  56.550 -53.812  1.00  0.00     0.043 A 
HETATM   24  C   UNL     1     -42.664  55.854 -53.118  1.00  0.00     0.033 A 
HETATM   25  C   UNL     1     -42.555  54.471 -52.945  1.00  0.00     0.044 A 
HETATM   26  C   UNL     1     -41.457  53.793 -53.464  1.00  0.00     0.116 A 
HETATM   27  F   UNL     1     -41.358  52.469 -53.297  1.00  0.00    -0.206 F 
HETATM   28  C   UNL     1     -40.463  54.471 -54.158  1.00  0.00     0.044 A 
HETATM   29  C   UNL     1     -40.563  55.853 -54.337  1.00  0.00     0.033 A 
ENDBRANCH   2  23
BRANCH   1  30
HETATM   30  C   UNL     1     -41.541  58.715 -51.549  1.00  0.00     0.255 C 
HETATM   31  C   UNL     1     -40.283  59.319 -50.918  1.00  0.00     0.049 C 
BRANCH  30  32
HETATM   32  N   UNL     1     -42.784  59.259 -50.798  1.00  0.00    -0.060 N 
HETATM   33  H   UNL     1     -42.794  58.768 -49.897  1.00  0.00     0.280 HD
HETATM   34  C   UNL     1     -42.751  60.746 -50.477  1.00  0.00     0.236 C 
HETATM   35  C   UNL     1     -43.908  61.071 -49.539  1.00  0.00     0.028 C 
HETATM   36  C   UNL     1     -45.248  60.684 -50.156  1.00  0.00     0.003 C 
HETATM   37  C   UNL     1     -45.254  59.225 -50.600  1.00  0.00     0.028 C 
HETATM   38  C   UNL     1     -44.073  58.901 -51.507  1.00  0.00     0.236 C 
ENDBRANCH  30  32
ENDBRANCH   1  30
TORSDOF 7
ENDMDL
MODEL 8
REMARK VINA RESULT:      -7.1      2.350      6.073
REMARK  7 active torsions:
REMARK  status: ('A' for Active; 'I' for Inactive)
REMARK    1  A    between atoms: C_2  and  N_3 
REMARK    2  A    between atoms: C_2  and  C_10 
REMARK    3  A    between atoms: N_11  and  C_12 
REMARK    4  A    between atoms: C_19  and  S_20 
REMARK    5  A    between atoms: S_20  and  C_21 
REMARK    6  A    between atoms: C_21  and  C_22 
REMARK    7  A    between atoms: C_21  and  C_28 
REMARK       I    between atoms: C_22  and  N_23 
REMARK       I    between atoms: N_23  and  C_24 
REMARK       I    between atoms: C_24  and  N_25 
ROOT
HETATM    1  C   UNL     1     -44.016  56.223 -51.150  1.00  0.00     0.166 A 
HETATM    2  N   UNL     1     -43.791  56.527 -52.491  1.00  0.00    -0.274 N 
HETATM    3  C   UNL     1     -44.673  57.567 -52.748  1.00  0.00     0.197 A 
HETATM    4  N   UNL     1     -45.256  57.931 -51.631  1.00  0.00    -0.122 NA
HETATM    5  N   UNL     1     -44.832  57.115 -50.631  1.00  0.00    -0.131 NA
ENDROOT
BRANCH   3   6
HETATM    6  S   UNL     1     -44.891  58.316 -54.292  1.00  0.00    -0.070 SA
BRANCH   6   7
HETATM    7  C   UNL     1     -43.577  59.597 -54.395  1.00  0.00     0.180 C 
BRANCH   7   8
HETATM    8  C   UNL     1     -44.063  60.948 -53.834  1.00  0.00     0.244 C 
HETATM    9  N   UNL     1     -43.489  61.441 -52.677  1.00  0.00    -0.278 N 
HETATM   10  C   UNL     1     -42.740  60.785 -51.736  1.00  0.00     0.320 C 
HETATM   11  H   UNL     1     -43.853  62.343 -52.414  1.00  0.00     0.173 HD
HETATM   12  N   UNL     1     -42.411  61.571 -50.674  1.00  0.00    -0.352 N 
HETATM   13  O   UNL     1     -42.336  59.635 -51.799  1.00  0.00    -0.247 OA
HETATM   14  H   UNL     1     -43.052  62.277 -50.341  1.00  0.00     0.160 HD
HETATM   15  H   UNL     1     -41.906  61.082 -49.944  1.00  0.00     0.160 HD
HETATM   16  O   UNL     1     -44.971  61.619 -54.339  1.00  0.00    -0.271 OA
ENDBRANCH   7   8
BRANCH   7  17
HETATM   17  C   UNL     1     -42.898  59.656 -55.757  1.00  0.00    -0.035 A 
HETATM   18  C   UNL     1     -42.739  58.472 -56.500  1.00  0.00     0.009 A 
HETATM   19  C   UNL     1     -42.116  58.486 -57.750  1.00  0.00     0.001 A 
HETATM   20  C   UNL     1     -41.641  59.682 -58.280  1.00  0.00     0.000 A 
HETATM   21  C   UNL     1     -41.788  60.865 -57.561  1.00  0.00     0.001 A 
HETATM   22  C   UNL     1     -42.410  60.853 -56.310  1.00  0.00     0.009 A 
ENDBRANCH   7  17
ENDBRANCH   6   7
ENDBRANCH   3   6
BRANCH   2  23
HETATM   23  C   UNL     1     -42.887  55.867 -53.364  1.00  0.00     0.043 A 
HETATM   24  C   UNL     1     -43.302  54.778 -54.143  1.00  0.00     0.033 A 
HETATM   25  C   UNL     1     -42.393  54.147 -54.997  1.00  0.00     0.044 A 
HETATM   26  C   UNL     1     -41.082  54.605 -55.071  1.00  0.00     0.116 A 
HETATM   27  F   UNL     1     -40.215  53.999 -55.890  1.00  0.00    -0.206 F 
HETATM   28  C   UNL     1     -40.660  55.687 -54.308  1.00  0.00     0.044 A 
HETATM   29  C   UNL     1     -41.562  56.324 -53.452  1.00  0.00     0.033 A 
ENDBRANCH   2  23
BRANCH   1  30
HETATM   30  C   UNL     1     -43.578  54.981 -50.438  1.00  0.00     0.255 C 
HETATM   31  C   UNL     1     -44.367  53.755 -50.905  1.00  0.00     0.049 C 
BRANCH  30  32
HETATM   32  N   UNL     1     -42.063  54.675 -50.567  1.00  0.00    -0.060 N 
HETATM   33  H   UNL     1     -41.690  55.407 -51.183  1.00  0.00     0.280 HD
HETATM   34  C   UNL     1     -41.270  54.758 -49.271  1.00  0.00     0.236 C 
HETATM   35  C   UNL     1     -39.783  54.676 -49.601  1.00  0.00     0.028 C 
HETATM   36  C   UNL     1     -39.451  53.391 -50.353  1.00  0.00     0.003 C 
HETATM   37  C   UNL     1     -40.328  53.230 -51.590  1.00  0.00     0.028 C 
HETATM   38  C   UNL     1     -41.811  53.351 -51.257  1.00  0.00     0.236 C 
ENDBRANCH  30  32
ENDBRANCH   1  30
TORSDOF 7
ENDMDL
MODEL 9
REMARK VINA RESULT:      -7.1      3.031      5.948
REMARK  7 active torsions:
REMARK  status: ('A' for Active; 'I' for Inactive)
REMARK    1  A    between atoms: C_2  and  N_3 
REMARK    2  A    between atoms: C_2  and  C_10 
REMARK    3  A    between atoms: N_11  and  C_12 
REMARK    4  A    between atoms: C_19  and  S_20 
REMARK    5  A    between atoms: S_20  and  C_21 
REMARK    6  A    between atoms: C_21  and  C_22 
REMARK    7  A    between atoms: C_21  and  C_28 
REMARK       I    between atoms: C_22  and  N_23 
REMARK       I    between atoms: N_23  and  C_24 
REMARK       I    between atoms: C_24  and  N_25 
ROOT
HETATM    1  C   UNL     1     -43.975  56.270 -51.188  1.00  0.00     0.166 A 
HETATM    2  N   UNL     1     -43.720  56.577 -52.523  1.00  0.00    -0.274 N 
HETATM    3  C   UNL     1     -44.583  57.630 -52.792  1.00  0.00     0.197 A 
HETATM    4  N   UNL     1     -45.183  57.997 -51.685  1.00  0.00    -0.122 NA
HETATM    5  N   UNL     1     -44.788  57.171 -50.680  1.00  0.00    -0.131 NA
ENDROOT
BRANCH   3   6
HETATM    6  S   UNL     1     -44.761  58.389 -54.336  1.00  0.00    -0.070 SA
BRANCH   6   7
HETATM    7  C   UNL     1     -43.652  59.853 -54.284  1.00  0.00     0.180 C 
BRANCH   7   8
HETATM    8  C   UNL     1     -42.590  59.795 -55.399  1.00  0.00     0.244 C 
HETATM    9  N   UNL     1     -42.264  60.955 -56.078  1.00  0.00    -0.278 N 
HETATM   10  C   UNL     1     -42.949  62.141 -56.143  1.00  0.00     0.320 C 
HETATM   11  H   UNL     1     -41.538  60.817 -56.762  1.00  0.00     0.173 HD
HETATM   12  N   UNL     1     -42.372  63.043 -56.983  1.00  0.00    -0.352 N 
HETATM   13  O   UNL     1     -43.948  62.441 -55.510  1.00  0.00    -0.247 OA
HETATM   14  H   UNL     1     -41.903  62.735 -57.824  1.00  0.00     0.160 HD
HETATM   15  H   UNL     1     -42.899  63.903 -57.085  1.00  0.00     0.160 HD
HETATM   16  O   UNL     1     -42.022  58.757 -55.759  1.00  0.00    -0.271 OA
ENDBRANCH   7   8
BRANCH   7  17
HETATM   17  C   UNL     1     -43.125  60.160 -52.888  1.00  0.00    -0.035 A 
HETATM   18  C   UNL     1     -43.833  61.056 -52.065  1.00  0.00     0.009 A 
HETATM   19  C   UNL     1     -43.376  61.365 -50.782  1.00  0.00     0.001 A 
HETATM   20  C   UNL     1     -42.208  60.786 -50.297  1.00  0.00     0.000 A 
HETATM   21  C   UNL     1     -41.493  59.898 -51.096  1.00  0.00     0.001 A 
HETATM   22  C   UNL     1     -41.946  59.588 -52.380  1.00  0.00     0.009 A 
ENDBRANCH   7  17
ENDBRANCH   6   7
ENDBRANCH   3   6
BRANCH   2  23
HETATM   23  C   UNL     1     -42.809  55.909 -53.383  1.00  0.00     0.043 A 
HETATM   24  C   UNL     1     -41.461  56.290 -53.439  1.00  0.00     0.033 A 
HETATM   25  C   UNL     1     -40.583  55.615 -54.292  1.00  0.00     0.044 A 
HETATM   26  C   UNL     1     -41.051  54.568 -55.078  1.00  0.00     0.116 A 
HETATM   27  F   UNL     1     -40.207  53.924 -55.892  1.00  0.00    -0.206 F 
HETATM   28  C   UNL     1     -42.384  54.178 -55.027  1.00  0.00     0.044 A 
HETATM   29  C   UNL     1     -43.268  54.846 -54.177  1.00  0.00     0.033 A 
ENDBRANCH   2  23
BRANCH   1  30
HETATM   30  C   UNL     1     -43.566  55.018 -50.474  1.00  0.00     0.255 C 
HETATM   31  C   UNL     1     -44.376  53.809 -50.949  1.00  0.00     0.049 C 
BRANCH  30  32
HETATM   32  N   UNL     1     -42.057  54.683 -50.592  1.00  0.00    -0.060 N 
HETATM   33  H   UNL     1     -41.668  55.399 -51.216  1.00  0.00     0.280 HD
HETATM   34  C   UNL     1     -41.269  54.770 -49.293  1.00  0.00     0.236 C 
HETATM   35  C   UNL     1     -39.782  54.655 -49.615  1.00  0.00     0.028 C 
HETATM   36  C   UNL     1     -39.471  53.354 -50.347  1.00  0.00     0.003 C 
HETATM   37  C   UNL     1     -40.345  53.192 -51.586  1.00  0.00     0.028 C 
HETATM   38  C   UNL     1     -41.827  53.345 -51.262  1.00  0.00     0.236 C 
ENDBRANCH  30  32
ENDBRANCH   1  30
TORSDOF 7
ENDMDL
MODEL 10
REMARK VINA RESULT:      -7.0      3.795      7.237
REMARK  7 active torsions:
REMARK  status: ('A' for Active; 'I' for Inactive)
REMARK    1  A    between atoms: C_2  and  N_3 
REMARK    2  A    between atoms: C_2  and  C_10 
REMARK    3  A    between atoms: N_11  and  C_12 
REMARK    4  A    between atoms: C_19  and  S_20 
REMARK    5  A    between atoms: S_20  and  C_21 
REMARK    6  A    between atoms: C_21  and  C_22 
REMARK    7  A    between atoms: C_21  and  C_28 
REMARK       I    between atoms: C_22  and  N_23 
REMARK       I    between atoms: N_23  and  C_24 
REMARK       I    between atoms: C_24  and  N_25 
ROOT
HETATM    1  C   UNL     1     -45.522  59.865 -50.841  1.00  0.00     0.166 A 
HETATM    2  N   UNL     1     -44.890  59.504 -52.029  1.00  0.00    -0.274 N 
HETATM    3  C   UNL     1     -44.757  58.126 -51.929  1.00  0.00     0.197 A 
HETATM    4  N   UNL     1     -45.376  57.705 -50.852  1.00  0.00    -0.122 NA
HETATM    5  N   UNL     1     -45.875  58.779 -50.187  1.00  0.00    -0.131 NA
ENDROOT
BRANCH   3   6
HETATM    6  S   UNL     1     -43.970  57.124 -53.099  1.00  0.00    -0.070 SA
BRANCH   6   7
HETATM    7  C   UNL     1     -42.213  57.047 -52.564  1.00  0.00     0.180 C 
BRANCH   7   8
HETATM    8  C   UNL     1     -41.389  58.201 -53.167  1.00  0.00     0.244 C 
HETATM    9  N   UNL     1     -40.451  58.840 -52.378  1.00  0.00    -0.278 N 
HETATM   10  C   UNL     1     -40.315  58.830 -51.014  1.00  0.00     0.320 C 
HETATM   11  H   UNL     1     -39.945  59.555 -52.875  1.00  0.00     0.173 HD
HETATM   12  N   UNL     1     -39.324  59.650 -50.572  1.00  0.00    -0.352 N 
HETATM   13  O   UNL     1     -40.949  58.149 -50.224  1.00  0.00    -0.247 OA
HETATM   14  H   UNL     1     -39.126  60.519 -51.047  1.00  0.00     0.160 HD
HETATM   15  H   UNL     1     -39.250  59.695 -49.561  1.00  0.00     0.160 HD
HETATM   16  O   UNL     1     -41.535  58.625 -54.319  1.00  0.00    -0.271 OA
ENDBRANCH   7   8
BRANCH   7  17
HETATM   17  C   UNL     1     -41.602  55.658 -52.702  1.00  0.00    -0.035 A 
HETATM   18  C   UNL     1     -41.461  54.850 -51.559  1.00  0.00     0.009 A 
HETATM   19  C   UNL     1     -40.899  53.574 -51.648  1.00  0.00     0.001 A 
HETATM   20  C   UNL     1     -40.471  53.082 -52.877  1.00  0.00     0.000 A 
HETATM   21  C   UNL     1     -40.602  53.867 -54.019  1.00  0.00     0.001 A 
HETATM   22  C   UNL     1     -41.161  55.144 -53.934  1.00  0.00     0.009 A 
ENDBRANCH   7  17
ENDBRANCH   6   7
ENDBRANCH   3   6
BRANCH   2  23
HETATM   23  C   UNL     1     -44.463  60.384 -53.058  1.00  0.00     0.043 A 
HETATM   24  C   UNL     1     -43.341  61.206 -52.882  1.00  0.00     0.033 A 
HETATM   25  C   UNL     1     -42.939  62.063 -53.911  1.00  0.00     0.044 A 
HETATM   26  C   UNL     1     -43.653  62.093 -55.104  1.00  0.00     0.116 A 
HETATM   27  F   UNL     1     -43.264  62.913 -56.087  1.00  0.00    -0.206 F 
HETATM   28  C   UNL     1     -44.764  61.279 -55.292  1.00  0.00     0.044 A 
HETATM   29  C   UNL     1     -45.172  60.420 -54.269  1.00  0.00     0.033 A 
ENDBRANCH   2  23
BRANCH   1  30
HETATM   30  C   UNL     1     -45.621  61.248 -50.276  1.00  0.00     0.255 C 
HETATM   31  C   UNL     1     -46.749  62.047 -50.935  1.00  0.00     0.049 C 
BRANCH  30  32
HETATM   32  N   UNL     1     -45.813  61.294 -48.738  1.00  0.00    -0.060 N 
HETATM   33  H   UNL     1     -46.317  60.431 -48.501  1.00  0.00     0.280 HD
HETATM   34  C   UNL     1     -44.529  61.280 -47.921  1.00  0.00     0.236 C 
HETATM   35  C   UNL     1     -44.885  61.083 -46.452  1.00  0.00     0.028 C 
HETATM   36  C   UNL     1     -45.826  62.177 -45.957  1.00  0.00     0.003 C 
HETATM   37  C   UNL     1     -47.062  62.288 -46.842  1.00  0.00     0.028 C 
HETATM   38  C   UNL     1     -46.697  62.448 -48.313  1.00  0.00     0.236 C 
ENDBRANCH  30  32
ENDBRANCH   1  30
TORSDOF 7
ENDMDL
