MODEL 1
REMARK VINA RESULT:      -8.0      0.000      0.000
REMARK  6 active torsions:
REMARK  status: ('A' for Active; 'I' for Inactive)
REMARK    1  A    between atoms: C_4  and  C_5 
REMARK    2  A    between atoms: C_5  and  N_6 
REMARK    3  A    between atoms: C_7  and  N_8 
REMARK    4  A    between atoms: N_8  and  N_9 
REMARK       I    between atoms: N_9  and  C_10 
REMARK    5  A    between atoms: C_10  and  C_11 
REMARK    6  A    between atoms: C_19  and  C_20 
ROOT
HETATM    1  N   UNL     1     -41.984  58.404 -55.491  1.00  0.00    -0.168 NA
HETATM    2  C   UNL     1     -41.792  58.938 -54.226  1.00  0.00     0.250 C 
HETATM    3  O   UNL     1     -41.074  59.927 -54.092  1.00  0.00    -0.272 OA
HETATM    4  H   UNL     1     -41.403  58.881 -56.179  1.00  0.00     0.156 HD
ENDROOT
BRANCH   2   5
HETATM    5  C   UNL     1     -42.350  58.239 -53.033  1.00  0.00     0.042 A 
HETATM    6  C   UNL     1     -43.594  58.654 -52.488  1.00  0.00     0.008 A 
HETATM    7  C   UNL     1     -44.067  57.923 -51.381  1.00  0.00     0.068 A 
HETATM    8  C   UNL     1     -44.382  59.738 -52.960  1.00  0.00     0.015 A 
HETATM    9  C   UNL     1     -45.283  58.268 -50.808  1.00  0.00     0.032 A 
HETATM   10  N   UNL     1     -43.392  56.899 -50.837  1.00  0.00    -0.248 NA
HETATM   11  C   UNL     1     -46.056  59.327 -51.288  1.00  0.00     0.002 A 
HETATM   12  C   UNL     1     -45.601  60.067 -52.367  1.00  0.00     0.001 A 
HETATM   13  C   UNL     1     -42.198  56.534 -51.356  1.00  0.00     0.069 A 
HETATM   14  C   UNL     1     -41.669  57.157 -52.474  1.00  0.00     0.050 A 
BRANCH  13  15
HETATM   15  C   UNL     1     -41.507  55.444 -50.645  1.00  0.00    -0.005 A 
HETATM   16  C   UNL     1     -41.412  55.447 -49.246  1.00  0.00     0.033 A 
HETATM   17  C   UNL     1     -40.741  54.416 -48.609  1.00  0.00     0.117 A 
HETATM   18  N   UNL     1     -40.157  53.387 -49.257  1.00  0.00    -0.273 NA
HETATM   19  C   UNL     1     -40.234  53.404 -50.603  1.00  0.00     0.117 A 
HETATM   20  C   UNL     1     -40.888  54.389 -51.328  1.00  0.00     0.033 A 
ENDBRANCH  13  15
ENDBRANCH   2   5
BRANCH   1  21
HETATM   21  N   UNL     1     -43.294  58.175 -55.960  1.00  0.00    -0.291 N 
HETATM   22  H   UNL     1     -43.930  58.950 -55.817  1.00  0.00     0.183 HD
BRANCH  21  23
HETATM   23  C   UNL     1     -43.571  57.213 -56.897  1.00  0.00     0.182 C 
HETATM   24  N   UNL     1     -43.610  55.925 -56.461  1.00  0.00    -0.362 N 
HETATM   25  H   UNL     1     -43.807  55.260 -57.202  1.00  0.00     0.162 HD
HETATM   26  S   UNL     1     -43.787  57.478 -58.533  1.00  0.00    -0.040 SA
BRANCH  24  27
HETATM   27  C   UNL     1     -43.546  55.373 -55.117  1.00  0.00     0.160 C 
BRANCH  27  28
HETATM   28  C   UNL     1     -42.315  54.527 -54.930  1.00  0.00    -0.041 A 
HETATM   29  C   UNL     1     -42.421  53.209 -54.461  1.00  0.00     0.009 A 
HETATM   30  C   UNL     1     -41.280  52.421 -54.298  1.00  0.00     0.001 A 
HETATM   31  C   UNL     1     -40.022  52.944 -54.591  1.00  0.00     0.000 A 
HETATM   32  C   UNL     1     -39.903  54.254 -55.049  1.00  0.00     0.001 A 
HETATM   33  C   UNL     1     -41.042  55.042 -55.220  1.00  0.00     0.009 A 
ENDBRANCH  27  28
ENDBRANCH  24  27
ENDBRANCH  21  23
ENDBRANCH   1  21
TORSDOF 6
ENDMDL
MODEL 2
REMARK VINA RESULT:      -7.9      2.596      6.750
REMARK  6 active torsions:
REMARK  status: ('A' for Active; 'I' for Inactive)
REMARK    1  A    between atoms: C_4  and  C_5 
REMARK    2  A    between atoms: C_5  and  N_6 
REMARK    3  A    between atoms: C_7  and  N_8 
REMARK    4  A    between atoms: N_8  and  N_9 
REMARK       I    between atoms: N_9  and  C_10 
REMARK    5  A    between atoms: C_10  and  C_11 
REMARK    6  A    between atoms: C_19  and  C_20 
ROOT
HETATM    1  N   UNL     1     -43.619  59.541 -54.247  1.00  0.00    -0.168 NA
HETATM    2  C   UNL     1     -42.617  59.139 -55.116  1.00  0.00     0.250 C 
HETATM    3  O   UNL     1     -41.714  59.923 -55.398  1.00  0.00    -0.272 OA
HETATM    4  H   UNL     1     -43.516  60.524 -54.003  1.00  0.00     0.156 HD
ENDROOT
BRANCH   2   5
HETATM    5  C   UNL     1     -42.711  57.814 -55.795  1.00  0.00     0.042 A 
HETATM    6  C   UNL     1     -42.002  56.700 -55.272  1.00  0.00     0.008 A 
HETATM    7  C   UNL     1     -42.168  55.479 -55.953  1.00  0.00     0.068 A 
HETATM    8  C   UNL     1     -41.146  56.724 -54.138  1.00  0.00     0.015 A 
HETATM    9  C   UNL     1     -41.513  54.346 -55.487  1.00  0.00     0.032 A 
HETATM   10  N   UNL     1     -42.929  55.348 -57.049  1.00  0.00    -0.248 NA
HETATM   11  C   UNL     1     -40.685  54.378 -54.364  1.00  0.00     0.002 A 
HETATM   12  C   UNL     1     -40.498  55.573 -53.689  1.00  0.00     0.001 A 
HETATM   13  C   UNL     1     -43.578  56.426 -57.545  1.00  0.00     0.069 A 
HETATM   14  C   UNL     1     -43.520  57.661 -56.921  1.00  0.00     0.050 A 
BRANCH  13  15
HETATM   15  C   UNL     1     -44.332  56.192 -58.789  1.00  0.00    -0.005 A 
HETATM   16  C   UNL     1     -45.361  57.061 -59.178  1.00  0.00     0.033 A 
HETATM   17  C   UNL     1     -46.062  56.804 -60.345  1.00  0.00     0.117 A 
HETATM   18  N   UNL     1     -45.820  55.749 -61.150  1.00  0.00    -0.273 NA
HETATM   19  C   UNL     1     -44.844  54.906 -60.756  1.00  0.00     0.117 A 
HETATM   20  C   UNL     1     -44.085  55.083 -59.609  1.00  0.00     0.033 A 
ENDBRANCH  13  15
ENDBRANCH   2   5
BRANCH   1  21
HETATM   21  N   UNL     1     -43.937  58.740 -53.131  1.00  0.00    -0.291 N 
HETATM   22  H   UNL     1     -44.256  57.808 -53.362  1.00  0.00     0.183 HD
BRANCH  21  23
HETATM   23  C   UNL     1     -43.449  59.015 -51.879  1.00  0.00     0.182 C 
HETATM   24  N   UNL     1     -43.536  58.020 -50.954  1.00  0.00    -0.362 N 
HETATM   25  H   UNL     1     -43.171  58.288 -50.046  1.00  0.00     0.162 HD
HETATM   26  S   UNL     1     -42.832  60.483 -51.372  1.00  0.00    -0.040 SA
BRANCH  24  27
HETATM   27  C   UNL     1     -43.937  56.629 -51.089  1.00  0.00     0.160 C 
BRANCH  27  28
HETATM   28  C   UNL     1     -42.787  55.698 -50.817  1.00  0.00    -0.041 A 
HETATM   29  C   UNL     1     -42.862  54.346 -51.185  1.00  0.00     0.009 A 
HETATM   30  C   UNL     1     -41.791  53.484 -50.942  1.00  0.00     0.001 A 
HETATM   31  C   UNL     1     -40.638  53.961 -50.321  1.00  0.00     0.000 A 
HETATM   32  C   UNL     1     -40.554  55.299 -49.942  1.00  0.00     0.001 A 
HETATM   33  C   UNL     1     -41.621  56.164 -50.190  1.00  0.00     0.009 A 
ENDBRANCH  27  28
ENDBRANCH  24  27
ENDBRANCH  21  23
ENDBRANCH   1  21
TORSDOF 6
ENDMDL
MODEL 3
REMARK VINA RESULT:      -7.8      2.244      4.798
REMARK  6 active torsions:
REMARK  status: ('A' for Active; 'I' for Inactive)
REMARK    1  A    between atoms: C_4  and  C_5 
REMARK    2  A    between atoms: C_5  and  N_6 
REMARK    3  A    between atoms: C_7  and  N_8 
REMARK    4  A    between atoms: N_8  and  N_9 
REMARK       I    between atoms: N_9  and  C_10 
REMARK    5  A    between atoms: C_10  and  C_11 
REMARK    6  A    between atoms: C_19  and  C_20 
ROOT
HETATM    1  N   UNL     1     -42.670  59.471 -53.748  1.00  0.00    -0.168 NA
HETATM    2  C   UNL     1     -41.549  58.673 -53.911  1.00  0.00     0.250 C 
HETATM    3  O   UNL     1     -40.444  59.115 -53.607  1.00  0.00    -0.272 OA
HETATM    4  H   UNL     1     -42.407  60.411 -53.455  1.00  0.00     0.156 HD
ENDROOT
BRANCH   2   5
HETATM    5  C   UNL     1     -41.677  57.340 -54.569  1.00  0.00     0.042 A 
HETATM    6  C   UNL     1     -42.359  57.227 -55.810  1.00  0.00     0.008 A 
HETATM    7  C   UNL     1     -42.410  55.940 -56.379  1.00  0.00     0.068 A 
HETATM    8  C   UNL     1     -42.990  58.293 -56.506  1.00  0.00     0.015 A 
HETATM    9  C   UNL     1     -43.050  55.761 -57.598  1.00  0.00     0.032 A 
HETATM   10  N   UNL     1     -41.873  54.858 -55.796  1.00  0.00    -0.248 NA
HETATM   11  C   UNL     1     -43.655  56.818 -58.281  1.00  0.00     0.002 A 
HETATM   12  C   UNL     1     -43.627  58.089 -57.730  1.00  0.00     0.001 A 
HETATM   13  C   UNL     1     -41.249  54.983 -54.603  1.00  0.00     0.069 A 
HETATM   14  C   UNL     1     -41.101  56.212 -53.983  1.00  0.00     0.050 A 
BRANCH  13  15
HETATM   15  C   UNL     1     -40.753  53.726 -54.015  1.00  0.00    -0.005 A 
HETATM   16  C   UNL     1     -40.396  53.659 -52.661  1.00  0.00     0.033 A 
HETATM   17  C   UNL     1     -39.918  52.466 -52.143  1.00  0.00     0.117 A 
HETATM   18  N   UNL     1     -39.765  51.340 -52.869  1.00  0.00    -0.273 NA
HETATM   19  C   UNL     1     -40.090  51.419 -54.175  1.00  0.00     0.117 A 
HETATM   20  C   UNL     1     -40.582  52.566 -54.782  1.00  0.00     0.033 A 
ENDBRANCH  13  15
ENDBRANCH   2   5
BRANCH   1  21
HETATM   21  N   UNL     1     -43.781  58.977 -53.035  1.00  0.00    -0.291 N 
HETATM   22  H   UNL     1     -44.286  58.237 -53.508  1.00  0.00     0.183 HD
BRANCH  21  23
HETATM   23  C   UNL     1     -43.906  59.145 -51.680  1.00  0.00     0.182 C 
HETATM   24  N   UNL     1     -44.010  58.015 -50.928  1.00  0.00    -0.362 N 
HETATM   25  H   UNL     1     -44.112  58.205 -49.936  1.00  0.00     0.162 HD
HETATM   26  S   UNL     1     -44.020  60.610 -50.884  1.00  0.00    -0.040 SA
BRANCH  24  27
HETATM   27  C   UNL     1     -43.870  56.614 -51.292  1.00  0.00     0.160 C 
BRANCH  27  28
HETATM   28  C   UNL     1     -42.694  55.982 -50.598  1.00  0.00    -0.041 A 
HETATM   29  C   UNL     1     -42.807  54.706 -50.025  1.00  0.00     0.009 A 
HETATM   30  C   UNL     1     -41.714  54.115 -49.390  1.00  0.00     0.001 A 
HETATM   31  C   UNL     1     -40.500  54.795 -49.310  1.00  0.00     0.000 A 
HETATM   32  C   UNL     1     -40.378  56.067 -49.867  1.00  0.00     0.001 A 
HETATM   33  C   UNL     1     -41.468  56.657 -50.509  1.00  0.00     0.009 A 
ENDBRANCH  27  28
ENDBRANCH  24  27
ENDBRANCH  21  23
ENDBRANCH   1  21
TORSDOF 6
ENDMDL
MODEL 4
REMARK VINA RESULT:      -7.7      2.520      5.740
REMARK  6 active torsions:
REMARK  status: ('A' for Active; 'I' for Inactive)
REMARK    1  A    between atoms: C_4  and  C_5 
REMARK    2  A    between atoms: C_5  and  N_6 
REMARK    3  A    between atoms: C_7  and  N_8 
REMARK    4  A    between atoms: N_8  and  N_9 
REMARK       I    between atoms: N_9  and  C_10 
REMARK    5  A    between atoms: C_10  and  C_11 
REMARK    6  A    between atoms: C_19  and  C_20 
ROOT
HETATM    1  N   UNL     1     -41.017  57.265 -52.081  1.00  0.00    -0.168 NA
HETATM    2  C   UNL     1     -40.864  58.158 -53.130  1.00  0.00     0.250 C 
HETATM    3  O   UNL     1     -39.888  58.905 -53.149  1.00  0.00    -0.272 OA
HETATM    4  H   UNL     1     -40.298  57.409 -51.374  1.00  0.00     0.156 HD
ENDROOT
BRANCH   2   5
HETATM    5  C   UNL     1     -41.941  58.293 -54.153  1.00  0.00     0.042 A 
HETATM    6  C   UNL     1     -43.157  58.945 -53.817  1.00  0.00     0.008 A 
HETATM    7  C   UNL     1     -44.111  59.057 -54.846  1.00  0.00     0.068 A 
HETATM    8  C   UNL     1     -43.484  59.477 -52.540  1.00  0.00     0.015 A 
HETATM    9  C   UNL     1     -45.317  59.695 -54.590  1.00  0.00     0.032 A 
HETATM   10  N   UNL     1     -43.920  58.567 -56.080  1.00  0.00    -0.248 NA
HETATM   11  C   UNL     1     -45.622  60.227 -53.335  1.00  0.00     0.002 A 
HETATM   12  C   UNL     1     -44.703  60.114 -52.306  1.00  0.00     0.001 A 
HETATM   13  C   UNL     1     -42.765  57.928 -56.374  1.00  0.00     0.069 A 
HETATM   14  C   UNL     1     -41.743  57.808 -55.446  1.00  0.00     0.050 A 
BRANCH  13  15
HETATM   15  C   UNL     1     -42.680  57.368 -57.734  1.00  0.00    -0.005 A 
HETATM   16  C   UNL     1     -42.056  58.082 -58.766  1.00  0.00     0.033 A 
HETATM   17  C   UNL     1     -42.007  57.534 -60.037  1.00  0.00     0.117 A 
HETATM   18  N   UNL     1     -42.535  56.336 -60.360  1.00  0.00    -0.273 NA
HETATM   19  C   UNL     1     -43.154  55.666 -59.366  1.00  0.00     0.117 A 
HETATM   20  C   UNL     1     -43.247  56.130 -58.062  1.00  0.00     0.033 A 
ENDBRANCH  13  15
ENDBRANCH   2   5
BRANCH   1  21
HETATM   21  N   UNL     1     -41.237  55.899 -52.355  1.00  0.00    -0.291 N 
HETATM   22  H   UNL     1     -40.588  55.497 -53.020  1.00  0.00     0.183 HD
BRANCH  21  23
HETATM   23  C   UNL     1     -41.944  55.093 -51.500  1.00  0.00     0.182 C 
HETATM   24  N   UNL     1     -41.332  53.950 -51.087  1.00  0.00    -0.362 N 
HETATM   25  H   UNL     1     -41.910  53.391 -50.467  1.00  0.00     0.162 HD
HETATM   26  S   UNL     1     -43.513  55.353 -50.986  1.00  0.00    -0.040 SA
BRANCH  24  27
HETATM   27  C   UNL     1     -39.971  53.477 -51.281  1.00  0.00     0.160 C 
BRANCH  27  28
HETATM   28  C   UNL     1     -39.936  52.254 -52.157  1.00  0.00    -0.041 A 
HETATM   29  C   UNL     1     -40.248  52.346 -53.522  1.00  0.00     0.009 A 
HETATM   30  C   UNL     1     -40.206  51.213 -54.337  1.00  0.00     0.001 A 
HETATM   31  C   UNL     1     -39.863  49.976 -53.796  1.00  0.00     0.000 A 
HETATM   32  C   UNL     1     -39.560  49.869 -52.441  1.00  0.00     0.001 A 
HETATM   33  C   UNL     1     -39.595  51.001 -51.625  1.00  0.00     0.009 A 
ENDBRANCH  27  28
ENDBRANCH  24  27
ENDBRANCH  21  23
ENDBRANCH   1  21
TORSDOF 6
ENDMDL
MODEL 5
REMARK VINA RESULT:      -7.5      2.861      6.944
REMARK  6 active torsions:
REMARK  status: ('A' for Active; 'I' for Inactive)
REMARK    1  A    between atoms: C_4  and  C_5 
REMARK    2  A    between atoms: C_5  and  N_6 
REMARK    3  A    between atoms: C_7  and  N_8 
REMARK    4  A    between atoms: N_8  and  N_9 
REMARK       I    between atoms: N_9  and  C_10 
REMARK    5  A    between atoms: C_10  and  C_11 
REMARK    6  A    between atoms: C_19  and  C_20 
ROOT
HETATM    1  N   UNL     1     -41.377  56.744 -49.902  1.00  0.00    -0.168 NA
HETATM    2  C   UNL     1     -41.962  55.556 -50.311  1.00  0.00     0.250 C 
HETATM    3  O   UNL     1     -42.309  54.733 -49.467  1.00  0.00    -0.272 OA
HETATM    4  H   UNL     1     -41.225  56.746 -48.895  1.00  0.00     0.156 HD
ENDROOT
BRANCH   2   5
HETATM    5  C   UNL     1     -42.050  55.235 -51.765  1.00  0.00     0.042 A 
HETATM    6  C   UNL     1     -41.344  54.119 -52.287  1.00  0.00     0.008 A 
HETATM    7  C   UNL     1     -41.503  53.866 -53.663  1.00  0.00     0.068 A 
HETATM    8  C   UNL     1     -40.496  53.256 -51.541  1.00  0.00     0.015 A 
HETATM    9  C   UNL     1     -40.851  52.783 -54.235  1.00  0.00     0.032 A 
HETATM   10  N   UNL     1     -42.257  54.632 -54.466  1.00  0.00    -0.248 NA
HETATM   11  C   UNL     1     -40.031  51.933 -53.490  1.00  0.00     0.002 A 
HETATM   12  C   UNL     1     -39.850  52.173 -52.138  1.00  0.00     0.001 A 
HETATM   13  C   UNL     1     -42.902  55.704 -53.955  1.00  0.00     0.069 A 
HETATM   14  C   UNL     1     -42.851  56.010 -52.605  1.00  0.00     0.050 A 
BRANCH  13  15
HETATM   15  C   UNL     1     -43.648  56.517 -54.932  1.00  0.00    -0.005 A 
HETATM   16  C   UNL     1     -44.833  57.169 -54.566  1.00  0.00     0.033 A 
HETATM   17  C   UNL     1     -45.519  57.913 -55.513  1.00  0.00     0.117 A 
HETATM   18  N   UNL     1     -45.117  58.053 -56.793  1.00  0.00    -0.273 NA
HETATM   19  C   UNL     1     -43.988  57.404 -57.142  1.00  0.00     0.117 A 
HETATM   20  C   UNL     1     -43.232  56.642 -56.264  1.00  0.00     0.033 A 
ENDBRANCH  13  15
ENDBRANCH   2   5
BRANCH   1  21
HETATM   21  N   UNL     1     -41.888  57.971 -50.371  1.00  0.00    -0.291 N 
HETATM   22  H   UNL     1     -42.791  58.222 -49.988  1.00  0.00     0.183 HD
BRANCH  21  23
HETATM   23  C   UNL     1     -41.078  58.931 -50.924  1.00  0.00     0.182 C 
HETATM   24  N   UNL     1     -41.625  59.709 -51.897  1.00  0.00    -0.362 N 
HETATM   25  H   UNL     1     -40.974  60.390 -52.274  1.00  0.00     0.162 HD
HETATM   26  S   UNL     1     -39.465  59.174 -50.561  1.00  0.00    -0.040 SA
BRANCH  24  27
HETATM   27  C   UNL     1     -42.994  59.807 -52.380  1.00  0.00     0.160 C 
BRANCH  27  28
HETATM   28  C   UNL     1     -43.036  60.239 -53.821  1.00  0.00    -0.041 A 
HETATM   29  C   UNL     1     -42.022  59.853 -54.710  1.00  0.00     0.009 A 
HETATM   30  C   UNL     1     -42.066  60.246 -56.050  1.00  0.00     0.001 A 
HETATM   31  C   UNL     1     -43.117  61.035 -56.512  1.00  0.00     0.000 A 
HETATM   32  C   UNL     1     -44.126  61.432 -55.637  1.00  0.00     0.001 A 
HETATM   33  C   UNL     1     -44.088  61.036 -54.298  1.00  0.00     0.009 A 
ENDBRANCH  27  28
ENDBRANCH  24  27
ENDBRANCH  21  23
ENDBRANCH   1  21
TORSDOF 6
ENDMDL
MODEL 6
REMARK VINA RESULT:      -7.5      2.700      5.849
REMARK  6 active torsions:
REMARK  status: ('A' for Active; 'I' for Inactive)
REMARK    1  A    between atoms: C_4  and  C_5 
REMARK    2  A    between atoms: C_5  and  N_6 
REMARK    3  A    between atoms: C_7  and  N_8 
REMARK    4  A    between atoms: N_8  and  N_9 
REMARK       I    between atoms: N_9  and  C_10 
REMARK    5  A    between atoms: C_10  and  C_11 
REMARK    6  A    between atoms: C_19  and  C_20 
ROOT
HETATM    1  N   UNL     1     -43.295  55.559 -56.648  1.00  0.00    -0.168 NA
HETATM    2  C   UNL     1     -43.208  54.625 -55.627  1.00  0.00     0.250 C 
HETATM    3  O   UNL     1     -43.536  53.461 -55.845  1.00  0.00    -0.272 OA
HETATM    4  H   UNL     1     -43.725  55.152 -57.477  1.00  0.00     0.156 HD
ENDROOT
BRANCH   2   5
HETATM    5  C   UNL     1     -42.841  55.065 -54.250  1.00  0.00     0.042 A 
HETATM    6  C   UNL     1     -41.896  54.317 -53.498  1.00  0.00     0.008 A 
HETATM    7  C   UNL     1     -41.582  54.815 -52.218  1.00  0.00     0.068 A 
HETATM    8  C   UNL     1     -41.260  53.121 -53.925  1.00  0.00     0.015 A 
HETATM    9  C   UNL     1     -40.656  54.140 -51.435  1.00  0.00     0.032 A 
HETATM   10  N   UNL     1     -42.142  55.920 -51.703  1.00  0.00    -0.248 NA
HETATM   11  C   UNL     1     -40.026  52.973 -51.871  1.00  0.00     0.002 A 
HETATM   12  C   UNL     1     -40.333  52.459 -53.120  1.00  0.00     0.001 A 
HETATM   13  C   UNL     1     -43.057  56.604 -52.426  1.00  0.00     0.069 A 
HETATM   14  C   UNL     1     -43.399  56.226 -53.714  1.00  0.00     0.050 A 
BRANCH  13  15
HETATM   15  C   UNL     1     -43.662  57.762 -51.745  1.00  0.00    -0.005 A 
HETATM   16  C   UNL     1     -44.997  57.727 -51.319  1.00  0.00     0.033 A 
HETATM   17  C   UNL     1     -45.540  58.839 -50.696  1.00  0.00     0.117 A 
HETATM   18  N   UNL     1     -44.860  59.981 -50.470  1.00  0.00    -0.273 NA
HETATM   19  C   UNL     1     -43.583  60.014 -50.903  1.00  0.00     0.117 A 
HETATM   20  C   UNL     1     -42.951  58.951 -51.530  1.00  0.00     0.033 A 
ENDBRANCH  13  15
ENDBRANCH   2   5
BRANCH   1  21
HETATM   21  N   UNL     1     -42.176  56.359 -56.959  1.00  0.00    -0.291 N 
HETATM   22  H   UNL     1     -41.372  55.841 -57.291  1.00  0.00     0.183 HD
BRANCH  21  23
HETATM   23  C   UNL     1     -42.293  57.700 -57.219  1.00  0.00     0.182 C 
HETATM   24  N   UNL     1     -42.316  58.072 -58.528  1.00  0.00    -0.362 N 
HETATM   25  H   UNL     1     -42.391  59.076 -58.655  1.00  0.00     0.162 HD
HETATM   26  S   UNL     1     -42.333  58.917 -56.074  1.00  0.00    -0.040 SA
BRANCH  24  27
HETATM   27  C   UNL     1     -42.379  57.274 -59.742  1.00  0.00     0.160 C 
BRANCH  27  28
HETATM   28  C   UNL     1     -43.782  56.804 -60.016  1.00  0.00    -0.041 A 
HETATM   29  C   UNL     1     -44.050  55.441 -60.216  1.00  0.00     0.009 A 
HETATM   30  C   UNL     1     -45.353  55.003 -60.460  1.00  0.00     0.001 A 
HETATM   31  C   UNL     1     -46.399  55.921 -60.518  1.00  0.00     0.000 A 
HETATM   32  C   UNL     1     -46.145  57.278 -60.330  1.00  0.00     0.001 A 
HETATM   33  C   UNL     1     -44.844  57.718 -60.079  1.00  0.00     0.009 A 
ENDBRANCH  27  28
ENDBRANCH  24  27
ENDBRANCH  21  23
ENDBRANCH   1  21
TORSDOF 6
ENDMDL
MODEL 7
REMARK VINA RESULT:      -7.5      2.880      5.305
REMARK  6 active torsions:
REMARK  status: ('A' for Active; 'I' for Inactive)
REMARK    1  A    between atoms: C_4  and  C_5 
REMARK    2  A    between atoms: C_5  and  N_6 
REMARK    3  A    between atoms: C_7  and  N_8 
REMARK    4  A    between atoms: N_8  and  N_9 
REMARK       I    between atoms: N_9  and  C_10 
REMARK    5  A    between atoms: C_10  and  C_11 
REMARK    6  A    between atoms: C_19  and  C_20 
ROOT
HETATM    1  N   UNL     1     -43.525  58.589 -50.739  1.00  0.00    -0.168 NA
HETATM    2  C   UNL     1     -44.240  57.544 -51.302  1.00  0.00     0.250 C 
HETATM    3  O   UNL     1     -45.292  57.183 -50.779  1.00  0.00    -0.272 OA
HETATM    4  H   UNL     1     -43.949  58.889 -49.862  1.00  0.00     0.156 HD
ENDROOT
BRANCH   2   5
HETATM    5  C   UNL     1     -43.667  56.789 -52.453  1.00  0.00     0.042 A 
HETATM    6  C   UNL     1     -44.042  57.131 -53.779  1.00  0.00     0.008 A 
HETATM    7  C   UNL     1     -43.433  56.390 -54.811  1.00  0.00     0.068 A 
HETATM    8  C   UNL     1     -44.974  58.140 -54.141  1.00  0.00     0.015 A 
HETATM    9  C   UNL     1     -43.745  56.682 -56.132  1.00  0.00     0.032 A 
HETATM   10  N   UNL     1     -42.560  55.398 -54.585  1.00  0.00    -0.248 NA
HETATM   11  C   UNL     1     -44.652  57.685 -56.476  1.00  0.00     0.002 A 
HETATM   12  C   UNL     1     -45.272  58.415 -55.475  1.00  0.00     0.001 A 
HETATM   13  C   UNL     1     -42.234  55.071 -53.314  1.00  0.00     0.069 A 
HETATM   14  C   UNL     1     -42.739  55.770 -52.230  1.00  0.00     0.050 A 
BRANCH  13  15
HETATM   15  C   UNL     1     -41.320  53.924 -53.171  1.00  0.00    -0.005 A 
HETATM   16  C   UNL     1     -41.005  53.117 -54.272  1.00  0.00     0.033 A 
HETATM   17  C   UNL     1     -40.155  52.036 -54.100  1.00  0.00     0.117 A 
HETATM   18  N   UNL     1     -39.601  51.697 -52.918  1.00  0.00    -0.273 NA
HETATM   19  C   UNL     1     -39.927  52.466 -51.860  1.00  0.00     0.117 A 
HETATM   20  C   UNL     1     -40.763  53.570 -51.935  1.00  0.00     0.033 A 
ENDBRANCH  13  15
ENDBRANCH   2   5
BRANCH   1  21
HETATM   21  N   UNL     1     -43.129  59.677 -51.544  1.00  0.00    -0.291 N 
HETATM   22  H   UNL     1     -43.635  60.535 -51.364  1.00  0.00     0.183 HD
BRANCH  21  23
HETATM   23  C   UNL     1     -41.912  59.707 -52.175  1.00  0.00     0.182 C 
HETATM   24  N   UNL     1     -41.853  60.367 -53.363  1.00  0.00    -0.362 N 
HETATM   25  H   UNL     1     -40.931  60.344 -53.786  1.00  0.00     0.162 HD
HETATM   26  S   UNL     1     -40.521  58.943 -51.651  1.00  0.00    -0.040 SA
BRANCH  24  27
HETATM   27  C   UNL     1     -42.841  61.190 -54.045  1.00  0.00     0.160 C 
BRANCH  27  28
HETATM   28  C   UNL     1     -42.826  60.944 -55.530  1.00  0.00    -0.041 A 
HETATM   29  C   UNL     1     -41.913  60.041 -56.094  1.00  0.00     0.009 A 
HETATM   30  C   UNL     1     -41.907  59.805 -57.470  1.00  0.00     0.001 A 
HETATM   31  C   UNL     1     -42.804  60.477 -58.297  1.00  0.00     0.000 A 
HETATM   32  C   UNL     1     -43.710  61.384 -57.751  1.00  0.00     0.001 A 
HETATM   33  C   UNL     1     -43.723  61.616 -56.374  1.00  0.00     0.009 A 
ENDBRANCH  27  28
ENDBRANCH  24  27
ENDBRANCH  21  23
ENDBRANCH   1  21
TORSDOF 6
ENDMDL
MODEL 8
REMARK VINA RESULT:      -7.5      3.016      6.571
REMARK  6 active torsions:
REMARK  status: ('A' for Active; 'I' for Inactive)
REMARK    1  A    between atoms: C_4  and  C_5 
REMARK    2  A    between atoms: C_5  and  N_6 
REMARK    3  A    between atoms: C_7  and  N_8 
REMARK    4  A    between atoms: N_8  and  N_9 
REMARK       I    between atoms: N_9  and  C_10 
REMARK    5  A    between atoms: C_10  and  C_11 
REMARK    6  A    between atoms: C_19  and  C_20 
ROOT
HETATM    1  N   UNL     1     -41.760  60.210 -53.100  1.00  0.00    -0.168 NA
HETATM    2  C   UNL     1     -41.024  59.075 -53.406  1.00  0.00     0.250 C 
HETATM    3  O   UNL     1     -39.820  59.054 -53.163  1.00  0.00    -0.272 OA
HETATM    4  H   UNL     1     -41.153  60.957 -52.767  1.00  0.00     0.156 HD
ENDROOT
BRANCH   2   5
HETATM    5  C   UNL     1     -41.671  57.948 -54.138  1.00  0.00     0.042 A 
HETATM    6  C   UNL     1     -42.144  56.818 -53.421  1.00  0.00     0.008 A 
HETATM    7  C   UNL     1     -42.768  55.811 -54.182  1.00  0.00     0.068 A 
HETATM    8  C   UNL     1     -42.031  56.623 -52.018  1.00  0.00     0.015 A 
HETATM    9  C   UNL     1     -43.266  54.684 -53.541  1.00  0.00     0.032 A 
HETATM   10  N   UNL     1     -42.905  55.878 -55.514  1.00  0.00    -0.248 NA
HETATM   11  C   UNL     1     -43.161  54.510 -52.160  1.00  0.00     0.002 A 
HETATM   12  C   UNL     1     -42.538  55.482 -51.396  1.00  0.00     0.001 A 
HETATM   13  C   UNL     1     -42.427  56.951 -56.182  1.00  0.00     0.069 A 
HETATM   14  C   UNL     1     -41.840  58.018 -55.522  1.00  0.00     0.050 A 
BRANCH  13  15
HETATM   15  C   UNL     1     -42.566  56.897 -57.648  1.00  0.00    -0.005 A 
HETATM   16  C   UNL     1     -42.077  57.934 -58.454  1.00  0.00     0.033 A 
HETATM   17  C   UNL     1     -42.238  57.860 -59.828  1.00  0.00     0.117 A 
HETATM   18  N   UNL     1     -42.851  56.837 -60.458  1.00  0.00    -0.273 NA
HETATM   19  C   UNL     1     -43.338  55.855 -59.674  1.00  0.00     0.117 A 
HETATM   20  C   UNL     1     -43.219  55.838 -58.292  1.00  0.00     0.033 A 
ENDBRANCH  13  15
ENDBRANCH   2   5
BRANCH   1  21
HETATM   21  N   UNL     1     -42.938  60.091 -52.333  1.00  0.00    -0.291 N 
HETATM   22  H   UNL     1     -42.808  59.642 -51.435  1.00  0.00     0.183 HD
BRANCH  21  23
HETATM   23  C   UNL     1     -44.035  60.882 -52.562  1.00  0.00     0.182 C 
HETATM   24  N   UNL     1     -44.991  60.380 -53.390  1.00  0.00    -0.362 N 
HETATM   25  H   UNL     1     -45.769  61.016 -53.530  1.00  0.00     0.162 HD
HETATM   26  S   UNL     1     -44.261  62.431 -51.976  1.00  0.00    -0.040 SA
BRANCH  24  27
HETATM   27  C   UNL     1     -45.134  59.062 -53.989  1.00  0.00     0.160 C 
BRANCH  27  28
HETATM   28  C   UNL     1     -45.247  59.151 -55.487  1.00  0.00    -0.041 A 
HETATM   29  C   UNL     1     -44.683  60.232 -56.181  1.00  0.00     0.009 A 
HETATM   30  C   UNL     1     -44.778  60.310 -57.572  1.00  0.00     0.001 A 
HETATM   31  C   UNL     1     -45.446  59.315 -58.283  1.00  0.00     0.000 A 
HETATM   32  C   UNL     1     -46.018  58.240 -57.605  1.00  0.00     0.001 A 
HETATM   33  C   UNL     1     -45.918  58.157 -56.215  1.00  0.00     0.009 A 
ENDBRANCH  27  28
ENDBRANCH  24  27
ENDBRANCH  21  23
ENDBRANCH   1  21
TORSDOF 6
ENDMDL
MODEL 9
REMARK VINA RESULT:      -7.5      3.032      5.971
REMARK  6 active torsions:
REMARK  status: ('A' for Active; 'I' for Inactive)
REMARK    1  A    between atoms: C_4  and  C_5 
REMARK    2  A    between atoms: C_5  and  N_6 
REMARK    3  A    between atoms: C_7  and  N_8 
REMARK    4  A    between atoms: N_8  and  N_9 
REMARK       I    between atoms: N_9  and  C_10 
REMARK    5  A    between atoms: C_10  and  C_11 
REMARK    6  A    between atoms: C_19  and  C_20 
ROOT
HETATM    1  N   UNL     1     -41.517  56.779 -50.651  1.00  0.00    -0.168 NA
HETATM    2  C   UNL     1     -42.483  55.974 -51.235  1.00  0.00     0.250 C 
HETATM    3  O   UNL     1     -43.589  55.880 -50.706  1.00  0.00    -0.272 OA
HETATM    4  H   UNL     1     -41.842  57.148 -49.759  1.00  0.00     0.156 HD
ENDROOT
BRANCH   2   5
HETATM    5  C   UNL     1     -42.134  55.136 -52.418  1.00  0.00     0.042 A 
HETATM    6  C   UNL     1     -42.475  55.581 -53.723  1.00  0.00     0.008 A 
HETATM    7  C   UNL     1     -42.084  54.747 -54.789  1.00  0.00     0.068 A 
HETATM    8  C   UNL     1     -43.175  56.778 -54.033  1.00  0.00     0.015 A 
HETATM    9  C   UNL     1     -42.374  55.128 -56.092  1.00  0.00     0.032 A 
HETATM   10  N   UNL     1     -41.443  53.582 -54.611  1.00  0.00    -0.248 NA
HETATM   11  C   UNL     1     -43.050  56.313 -56.385  1.00  0.00     0.002 A 
HETATM   12  C   UNL     1     -43.456  57.140 -55.350  1.00  0.00     0.001 A 
HETATM   13  C   UNL     1     -41.149  53.165 -53.360  1.00  0.00     0.069 A 
HETATM   14  C   UNL     1     -41.446  53.935 -52.247  1.00  0.00     0.050 A 
BRANCH  13  15
HETATM   15  C   UNL     1     -40.506  51.843 -53.269  1.00  0.00    -0.005 A 
HETATM   16  C   UNL     1     -40.018  51.365 -52.045  1.00  0.00     0.033 A 
HETATM   17  C   UNL     1     -39.404  50.124 -51.997  1.00  0.00     0.117 A 
HETATM   18  N   UNL     1     -39.235  49.327 -53.071  1.00  0.00    -0.273 NA
HETATM   19  C   UNL     1     -39.687  49.804 -54.248  1.00  0.00     0.117 A 
HETATM   20  C   UNL     1     -40.320  51.030 -54.395  1.00  0.00     0.033 A 
ENDBRANCH  13  15
ENDBRANCH   2   5
BRANCH   1  21
HETATM   21  N   UNL     1     -40.859  57.754 -51.429  1.00  0.00    -0.291 N 
HETATM   22  H   UNL     1     -40.908  57.595 -52.428  1.00  0.00     0.183 HD
BRANCH  21  23
HETATM   23  C   UNL     1     -40.576  59.003 -50.938  1.00  0.00     0.182 C 
HETATM   24  N   UNL     1     -41.612  59.884 -50.868  1.00  0.00    -0.362 N 
HETATM   25  H   UNL     1     -41.337  60.792 -50.510  1.00  0.00     0.162 HD
HETATM   26  S   UNL     1     -39.064  59.559 -50.494  1.00  0.00    -0.040 SA
BRANCH  24  27
HETATM   27  C   UNL     1     -43.036  59.697 -51.097  1.00  0.00     0.160 C 
BRANCH  27  28
HETATM   28  C   UNL     1     -43.420  60.077 -52.501  1.00  0.00    -0.041 A 
HETATM   29  C   UNL     1     -42.448  60.525 -53.409  1.00  0.00     0.009 A 
HETATM   30  C   UNL     1     -42.802  60.868 -54.715  1.00  0.00     0.001 A 
HETATM   31  C   UNL     1     -44.131  60.778 -55.125  1.00  0.00     0.000 A 
HETATM   32  C   UNL     1     -45.107  60.344 -54.231  1.00  0.00     0.001 A 
HETATM   33  C   UNL     1     -44.755  59.994 -52.926  1.00  0.00     0.009 A 
ENDBRANCH  27  28
ENDBRANCH  24  27
ENDBRANCH  21  23
ENDBRANCH   1  21
TORSDOF 6
ENDMDL
MODEL 10
REMARK VINA RESULT:      -7.4      2.270      4.491
REMARK  6 active torsions:
REMARK  status: ('A' for Active; 'I' for Inactive)
REMARK    1  A    between atoms: C_4  and  C_5 
REMARK    2  A    between atoms: C_5  and  N_6 
REMARK    3  A    between atoms: C_7  and  N_8 
REMARK    4  A    between atoms: N_8  and  N_9 
REMARK       I    between atoms: N_9  and  C_10 
REMARK    5  A    between atoms: C_10  and  C_11 
REMARK    6  A    between atoms: C_19  and  C_20 
ROOT
HETATM    1  N   UNL     1     -43.266  57.797 -56.930  1.00  0.00    -0.168 NA
HETATM    2  C   UNL     1     -43.269  56.454 -56.587  1.00  0.00     0.250 C 
HETATM    3  O   UNL     1     -43.569  55.616 -57.434  1.00  0.00    -0.272 OA
HETATM    4  H   UNL     1     -43.615  57.930 -57.878  1.00  0.00     0.156 HD
ENDROOT
BRANCH   2   5
HETATM    5  C   UNL     1     -43.032  56.051 -55.170  1.00  0.00     0.042 A 
HETATM    6  C   UNL     1     -43.673  56.757 -54.118  1.00  0.00     0.008 A 
HETATM    7  C   UNL     1     -43.421  56.295 -52.812  1.00  0.00     0.068 A 
HETATM    8  C   UNL     1     -44.528  57.881 -54.277  1.00  0.00     0.015 A 
HETATM    9  C   UNL     1     -44.027  56.932 -51.737  1.00  0.00     0.032 A 
HETATM   10  N   UNL     1     -42.610  55.261 -52.543  1.00  0.00    -0.248 NA
HETATM   11  C   UNL     1     -44.876  58.027 -51.906  1.00  0.00     0.002 A 
HETATM   12  C   UNL     1     -45.125  58.505 -53.182  1.00  0.00     0.001 A 
HETATM   13  C   UNL     1     -41.990  54.617 -53.558  1.00  0.00     0.069 A 
HETATM   14  C   UNL     1     -42.209  54.962 -54.881  1.00  0.00     0.050 A 
BRANCH  13  15
HETATM   15  C   UNL     1     -41.069  53.541 -53.153  1.00  0.00    -0.005 A 
HETATM   16  C   UNL     1     -40.594  53.460 -51.837  1.00  0.00     0.033 A 
HETATM   17  C   UNL     1     -39.716  52.445 -51.494  1.00  0.00     0.117 A 
HETATM   18  N   UNL     1     -39.273  51.510 -52.359  1.00  0.00    -0.273 NA
HETATM   19  C   UNL     1     -39.717  51.609 -53.628  1.00  0.00     0.117 A 
HETATM   20  C   UNL     1     -40.601  52.584 -54.064  1.00  0.00     0.033 A 
ENDBRANCH  13  15
ENDBRANCH   2   5
BRANCH   1  21
HETATM   21  N   UNL     1     -42.127  58.584 -56.661  1.00  0.00    -0.291 N 
HETATM   22  H   UNL     1     -41.280  58.259 -57.110  1.00  0.00     0.183 HD
BRANCH  21  23
HETATM   23  C   UNL     1     -42.228  59.880 -56.223  1.00  0.00     0.182 C 
HETATM   24  N   UNL     1     -41.817  60.130 -54.949  1.00  0.00    -0.362 N 
HETATM   25  H   UNL     1     -41.928  61.102 -54.680  1.00  0.00     0.162 HD
HETATM   26  S   UNL     1     -42.878  61.155 -57.085  1.00  0.00    -0.040 SA
BRANCH  24  27
HETATM   27  C   UNL     1     -41.143  59.278 -53.982  1.00  0.00     0.160 C 
BRANCH  27  28
HETATM   28  C   UNL     1     -41.509  59.655 -52.572  1.00  0.00    -0.041 A 
HETATM   29  C   UNL     1     -42.409  60.702 -52.325  1.00  0.00     0.009 A 
HETATM   30  C   UNL     1     -42.756  61.046 -51.017  1.00  0.00     0.001 A 
HETATM   31  C   UNL     1     -42.200  60.354 -49.943  1.00  0.00     0.000 A 
HETATM   32  C   UNL     1     -41.298  59.317 -50.174  1.00  0.00     0.001 A 
HETATM   33  C   UNL     1     -40.955  58.968 -51.481  1.00  0.00     0.009 A 
ENDBRANCH  27  28
ENDBRANCH  24  27
ENDBRANCH  21  23
ENDBRANCH   1  21
TORSDOF 6
ENDMDL
