MODEL 1
REMARK VINA RESULT:      -7.9      0.000      0.000
REMARK  3 active torsions:
REMARK  status: ('A' for Active; 'I' for Inactive)
REMARK    1  A    between atoms: C_2  and  C_3 
REMARK       I    between atoms: C_3  and  N_4 
REMARK    2  A    between atoms: N_4  and  N_5 
REMARK    3  A    between atoms: C_21  and  C_22 
ROOT
HETATM    1  C   UNL     1     -42.522  55.719 -55.627  1.00  0.00     0.288 C 
HETATM    2  N   UNL     1     -42.997  56.183 -54.417  1.00  0.00    -0.251 N 
HETATM    3  O   UNL     1     -41.692  54.818 -55.722  1.00  0.00    -0.264 OA
HETATM    4  H   UNL     1     -43.485  57.070 -54.380  1.00  0.00     0.191 HD
ENDROOT
BRANCH   2   5
HETATM    5  N   UNL     1     -42.259  55.882 -53.282  1.00  0.00    -0.167 N 
HETATM    6  C   UNL     1     -41.308  56.729 -52.783  1.00  0.00     0.345 C 
HETATM    7  O   UNL     1     -40.958  57.803 -53.245  1.00  0.00    -0.245 OA
HETATM    8  N   UNL     1     -40.843  56.192 -51.602  1.00  0.00    -0.323 N 
HETATM    9  C   UNL     1     -41.491  54.931 -51.278  1.00  0.00     0.117 C 
HETATM   10  H   UNL     1     -40.120  56.653 -51.064  1.00  0.00     0.165 HD
HETATM   11  C   UNL     1     -42.187  54.986 -49.915  1.00  0.00     0.041 C 
HETATM   12  C   UNL     1     -40.501  53.766 -51.376  1.00  0.00     0.041 C 
HETATM   13  C   UNL     1     -42.534  54.849 -52.418  1.00  0.00     0.275 C 
HETATM   14  C   UNL     1     -41.187  54.971 -48.758  1.00  0.00     0.003 C 
HETATM   15  C   UNL     1     -40.220  53.796 -48.861  1.00  0.00     0.000 C 
HETATM   16  C   UNL     1     -39.509  53.760 -50.212  1.00  0.00     0.003 C 
HETATM   17  O   UNL     1     -43.433  54.023 -52.499  1.00  0.00    -0.268 OA
ENDBRANCH   2   5
BRANCH   1  18
HETATM   18  C   UNL     1     -43.045  56.399 -56.785  1.00  0.00     0.121 A 
HETATM   19  C   UNL     1     -43.179  56.053 -58.116  1.00  0.00     0.066 A 
HETATM   20  C   UNL     1     -43.871  57.128 -58.727  1.00  0.00     0.061 A 
HETATM   21  N   UNL     1     -44.093  58.113 -57.847  1.00  0.00    -0.178 NA
HETATM   22  N   UNL     1     -43.593  57.649 -56.693  1.00  0.00    -0.272 N 
HETATM   23  H   UNL     1     -43.664  58.223 -55.858  1.00  0.00     0.189 HD
BRANCH  20  24
HETATM   24  C   UNL     1     -44.374  57.284 -60.143  1.00  0.00     0.039 C 
HETATM   25  C   UNL     1     -44.696  55.938 -60.810  1.00  0.00     0.011 C 
HETATM   26  C   UNL     1     -46.076  55.397 -60.453  1.00  0.00     0.001 C 
HETATM   27  C   UNL     1     -47.167  56.419 -60.749  1.00  0.00     0.000 C 
HETATM   28  C   UNL     1     -46.918  57.730 -60.014  1.00  0.00     0.001 C 
HETATM   29  C   UNL     1     -45.525  58.296 -60.290  1.00  0.00     0.011 C 
ENDBRANCH  20  24
ENDBRANCH   1  18
TORSDOF 3
ENDMDL
MODEL 2
REMARK VINA RESULT:      -7.8      5.089      7.692
REMARK  3 active torsions:
REMARK  status: ('A' for Active; 'I' for Inactive)
REMARK    1  A    between atoms: C_2  and  C_3 
REMARK       I    between atoms: C_3  and  N_4 
REMARK    2  A    between atoms: N_4  and  N_5 
REMARK    3  A    between atoms: C_21  and  C_22 
ROOT
HETATM    1  C   UNL     1     -44.300  57.962 -51.618  1.00  0.00     0.288 C 
HETATM    2  N   UNL     1     -43.453  57.178 -50.861  1.00  0.00    -0.251 N 
HETATM    3  O   UNL     1     -44.609  57.692 -52.776  1.00  0.00    -0.264 OA
HETATM    4  H   UNL     1     -43.044  57.559 -50.017  1.00  0.00     0.191 HD
ENDROOT
BRANCH   2   5
HETATM    5  N   UNL     1     -42.649  56.270 -51.534  1.00  0.00    -0.167 N 
HETATM    6  C   UNL     1     -41.434  56.618 -52.056  1.00  0.00     0.345 C 
HETATM    7  O   UNL     1     -40.909  57.719 -52.040  1.00  0.00    -0.245 OA
HETATM    8  N   UNL     1     -40.848  55.475 -52.557  1.00  0.00    -0.323 N 
HETATM    9  C   UNL     1     -41.689  54.302 -52.379  1.00  0.00     0.117 C 
HETATM   10  H   UNL     1     -39.940  55.503 -53.002  1.00  0.00     0.165 HD
HETATM   11  C   UNL     1     -40.978  53.212 -51.571  1.00  0.00     0.041 C 
HETATM   12  C   UNL     1     -42.197  53.784 -53.728  1.00  0.00     0.041 C 
HETATM   13  C   UNL     1     -42.854  54.911 -51.562  1.00  0.00     0.275 C 
HETATM   14  C   UNL     1     -39.881  52.520 -52.380  1.00  0.00     0.003 C 
HETATM   15  C   UNL     1     -40.408  51.995 -53.712  1.00  0.00     0.000 C 
HETATM   16  C   UNL     1     -41.093  53.091 -54.526  1.00  0.00     0.003 C 
HETATM   17  O   UNL     1     -43.759  54.278 -51.037  1.00  0.00    -0.268 OA
ENDBRANCH   2   5
BRANCH   1  18
HETATM   18  C   UNL     1     -44.773  59.154 -50.961  1.00  0.00     0.121 A 
HETATM   19  C   UNL     1     -44.706  60.501 -51.262  1.00  0.00     0.066 A 
HETATM   20  C   UNL     1     -45.462  61.160 -50.259  1.00  0.00     0.061 A 
HETATM   21  N   UNL     1     -45.913  60.283 -49.352  1.00  0.00    -0.178 NA
HETATM   22  N   UNL     1     -45.491  59.092 -49.798  1.00  0.00    -0.272 N 
HETATM   23  H   UNL     1     -45.734  58.255 -49.275  1.00  0.00     0.189 HD
BRANCH  20  24
HETATM   24  C   UNL     1     -45.815  62.619 -50.106  1.00  0.00     0.039 C 
HETATM   25  C   UNL     1     -46.027  63.028 -48.640  1.00  0.00     0.011 C 
HETATM   26  C   UNL     1     -44.729  63.335 -47.900  1.00  0.00     0.001 C 
HETATM   27  C   UNL     1     -43.904  64.383 -48.637  1.00  0.00     0.000 C 
HETATM   28  C   UNL     1     -43.597  63.950 -50.065  1.00  0.00     0.001 C 
HETATM   29  C   UNL     1     -44.859  63.575 -50.843  1.00  0.00     0.011 C 
ENDBRANCH  20  24
ENDBRANCH   1  18
TORSDOF 3
ENDMDL
MODEL 3
REMARK VINA RESULT:      -7.6      2.336      8.946
REMARK  3 active torsions:
REMARK  status: ('A' for Active; 'I' for Inactive)
REMARK    1  A    between atoms: C_2  and  C_3 
REMARK       I    between atoms: C_3  and  N_4 
REMARK    2  A    between atoms: N_4  and  N_5 
REMARK    3  A    between atoms: C_21  and  C_22 
ROOT
HETATM    1  C   UNL     1     -42.954  55.396 -57.176  1.00  0.00     0.288 C 
HETATM    2  N   UNL     1     -42.659  56.681 -57.582  1.00  0.00    -0.251 N 
HETATM    3  O   UNL     1     -43.662  54.631 -57.827  1.00  0.00    -0.264 OA
HETATM    4  H   UNL     1     -42.282  57.341 -56.913  1.00  0.00     0.191 HD
ENDROOT
BRANCH   2   5
HETATM    5  N   UNL     1     -43.468  57.245 -58.558  1.00  0.00    -0.167 N 
HETATM    6  C   UNL     1     -43.253  57.042 -59.892  1.00  0.00     0.345 C 
HETATM    7  O   UNL     1     -42.354  56.398 -60.407  1.00  0.00    -0.245 OA
HETATM    8  N   UNL     1     -44.285  57.641 -60.581  1.00  0.00    -0.323 N 
HETATM    9  C   UNL     1     -45.241  58.284 -59.693  1.00  0.00     0.117 C 
HETATM   10  H   UNL     1     -44.322  57.622 -61.593  1.00  0.00     0.165 HD
HETATM   11  C   UNL     1     -46.655  57.727 -59.884  1.00  0.00     0.041 C 
HETATM   12  C   UNL     1     -45.193  59.807 -59.847  1.00  0.00     0.041 C 
HETATM   13  C   UNL     1     -44.672  57.863 -58.317  1.00  0.00     0.275 C 
HETATM   14  C   UNL     1     -47.287  58.200 -61.193  1.00  0.00     0.003 C 
HETATM   15  C   UNL     1     -47.247  59.720 -61.322  1.00  0.00     0.000 C 
HETATM   16  C   UNL     1     -45.831  60.269 -61.157  1.00  0.00     0.003 C 
HETATM   17  O   UNL     1     -45.221  58.042 -57.238  1.00  0.00    -0.268 OA
ENDBRANCH   2   5
BRANCH   1  18
HETATM   18  C   UNL     1     -42.399  55.020 -55.900  1.00  0.00     0.121 A 
HETATM   19  C   UNL     1     -42.952  54.646 -54.690  1.00  0.00     0.066 A 
HETATM   20  C   UNL     1     -41.860  54.299 -53.856  1.00  0.00     0.061 A 
HETATM   21  N   UNL     1     -40.696  54.510 -54.484  1.00  0.00    -0.178 NA
HETATM   22  N   UNL     1     -41.048  54.936 -55.706  1.00  0.00    -0.272 N 
HETATM   23  H   UNL     1     -40.320  55.146 -56.383  1.00  0.00     0.189 HD
BRANCH  20  24
HETATM   24  C   UNL     1     -41.845  53.741 -52.453  1.00  0.00     0.039 C 
HETATM   25  C   UNL     1     -40.661  54.261 -51.621  1.00  0.00     0.011 C 
HETATM   26  C   UNL     1     -40.909  55.632 -51.000  1.00  0.00     0.001 C 
HETATM   27  C   UNL     1     -42.192  55.644 -50.178  1.00  0.00     0.000 C 
HETATM   28  C   UNL     1     -43.396  55.228 -51.013  1.00  0.00     0.001 C 
HETATM   29  C   UNL     1     -43.185  53.883 -51.708  1.00  0.00     0.011 C 
ENDBRANCH  20  24
ENDBRANCH   1  18
TORSDOF 3
ENDMDL
MODEL 4
REMARK VINA RESULT:      -7.5      5.095      7.860
REMARK  3 active torsions:
REMARK  status: ('A' for Active; 'I' for Inactive)
REMARK    1  A    between atoms: C_2  and  C_3 
REMARK       I    between atoms: C_3  and  N_4 
REMARK    2  A    between atoms: N_4  and  N_5 
REMARK    3  A    between atoms: C_21  and  C_22 
ROOT
HETATM    1  C   UNL     1     -43.913  58.029 -51.409  1.00  0.00     0.288 C 
HETATM    2  N   UNL     1     -43.138  57.238 -50.585  1.00  0.00    -0.251 N 
HETATM    3  O   UNL     1     -44.476  57.603 -52.415  1.00  0.00    -0.264 OA
HETATM    4  H   UNL     1     -42.511  57.674 -49.921  1.00  0.00     0.191 HD
ENDROOT
BRANCH   2   5
HETATM    5  N   UNL     1     -42.686  56.030 -51.099  1.00  0.00    -0.167 N 
HETATM    6  C   UNL     1     -43.363  54.858 -50.909  1.00  0.00     0.345 C 
HETATM    7  O   UNL     1     -44.390  54.690 -50.273  1.00  0.00    -0.245 OA
HETATM    8  N   UNL     1     -42.717  53.877 -51.631  1.00  0.00    -0.323 N 
HETATM    9  C   UNL     1     -41.554  54.390 -52.338  1.00  0.00     0.117 C 
HETATM   10  H   UNL     1     -43.045  52.920 -51.626  1.00  0.00     0.165 HD
HETATM   11  C   UNL     1     -41.658  54.151 -53.847  1.00  0.00     0.041 C 
HETATM   12  C   UNL     1     -40.260  53.819 -51.749  1.00  0.00     0.041 C 
HETATM   13  C   UNL     1     -41.672  55.899 -52.017  1.00  0.00     0.275 C 
HETATM   14  C   UNL     1     -41.450  52.681 -54.211  1.00  0.00     0.003 C 
HETATM   15  C   UNL     1     -40.149  52.133 -53.632  1.00  0.00     0.000 C 
HETATM   16  C   UNL     1     -40.062  52.350 -52.123  1.00  0.00     0.003 C 
HETATM   17  O   UNL     1     -40.992  56.785 -52.515  1.00  0.00    -0.268 OA
ENDBRANCH   2   5
BRANCH   1  18
HETATM   18  C   UNL     1     -43.988  59.415 -51.023  1.00  0.00     0.121 A 
HETATM   19  C   UNL     1     -44.952  60.395 -51.164  1.00  0.00     0.066 A 
HETATM   20  C   UNL     1     -44.456  61.528 -50.472  1.00  0.00     0.061 A 
HETATM   21  N   UNL     1     -43.229  61.291 -49.988  1.00  0.00    -0.178 NA
HETATM   22  N   UNL     1     -42.976  60.019 -50.328  1.00  0.00    -0.272 N 
HETATM   23  H   UNL     1     -42.095  59.600 -50.047  1.00  0.00     0.189 HD
BRANCH  20  24
HETATM   24  C   UNL     1     -45.099  62.869 -50.210  1.00  0.00     0.039 C 
HETATM   25  C   UNL     1     -46.597  62.756 -49.887  1.00  0.00     0.011 C 
HETATM   26  C   UNL     1     -46.881  62.413 -48.429  1.00  0.00     0.001 C 
HETATM   27  C   UNL     1     -46.199  63.396 -47.484  1.00  0.00     0.000 C 
HETATM   28  C   UNL     1     -44.695  63.448 -47.722  1.00  0.00     0.001 C 
HETATM   29  C   UNL     1     -44.347  63.734 -49.183  1.00  0.00     0.011 C 
ENDBRANCH  20  24
ENDBRANCH   1  18
TORSDOF 3
ENDMDL
MODEL 5
REMARK VINA RESULT:      -7.5      5.375      8.772
REMARK  3 active torsions:
REMARK  status: ('A' for Active; 'I' for Inactive)
REMARK    1  A    between atoms: C_2  and  C_3 
REMARK       I    between atoms: C_3  and  N_4 
REMARK    2  A    between atoms: N_4  and  N_5 
REMARK    3  A    between atoms: C_21  and  C_22 
ROOT
HETATM    1  C   UNL     1     -43.582  59.310 -51.431  1.00  0.00     0.288 C 
HETATM    2  N   UNL     1     -43.796  57.966 -51.197  1.00  0.00    -0.251 N 
HETATM    3  O   UNL     1     -42.896  59.729 -52.360  1.00  0.00    -0.264 OA
HETATM    4  H   UNL     1     -44.158  57.668 -50.299  1.00  0.00     0.191 HD
ENDROOT
BRANCH   2   5
HETATM    5  N   UNL     1     -42.928  57.066 -51.798  1.00  0.00    -0.167 N 
HETATM    6  C   UNL     1     -41.784  56.635 -51.185  1.00  0.00     0.345 C 
HETATM    7  O   UNL     1     -41.356  56.975 -50.095  1.00  0.00    -0.245 OA
HETATM    8  N   UNL     1     -41.211  55.676 -51.991  1.00  0.00    -0.323 N 
HETATM    9  C   UNL     1     -41.982  55.440 -53.201  1.00  0.00     0.117 C 
HETATM   10  H   UNL     1     -40.342  55.224 -51.733  1.00  0.00     0.165 HD
HETATM   11  C   UNL     1     -42.413  53.975 -53.322  1.00  0.00     0.041 C 
HETATM   12  C   UNL     1     -41.220  55.923 -54.439  1.00  0.00     0.041 C 
HETATM   13  C   UNL     1     -43.208  56.346 -52.934  1.00  0.00     0.275 C 
HETATM   14  C   UNL     1     -41.242  53.060 -53.680  1.00  0.00     0.003 C 
HETATM   15  C   UNL     1     -40.505  53.545 -54.925  1.00  0.00     0.000 C 
HETATM   16  C   UNL     1     -40.054  54.998 -54.789  1.00  0.00     0.003 C 
HETATM   17  O   UNL     1     -44.225  56.381 -53.613  1.00  0.00    -0.268 OA
ENDBRANCH   2   5
BRANCH   1  18
HETATM   18  C   UNL     1     -44.196  60.197 -50.475  1.00  0.00     0.121 A 
HETATM   19  C   UNL     1     -45.316  60.107 -49.670  1.00  0.00     0.066 A 
HETATM   20  C   UNL     1     -45.316  61.281 -48.876  1.00  0.00     0.061 A 
HETATM   21  N   UNL     1     -44.299  62.085 -49.214  1.00  0.00    -0.178 NA
HETATM   22  N   UNL     1     -43.644  61.410 -50.170  1.00  0.00    -0.272 N 
HETATM   23  H   UNL     1     -42.807  61.819 -50.575  1.00  0.00     0.189 HD
BRANCH  20  24
HETATM   24  C   UNL     1     -46.242  61.702 -47.760  1.00  0.00     0.039 C 
HETATM   25  C   UNL     1     -46.129  60.799 -46.522  1.00  0.00     0.011 C 
HETATM   26  C   UNL     1     -44.967  61.166 -45.604  1.00  0.00     0.001 C 
HETATM   27  C   UNL     1     -45.025  62.634 -45.197  1.00  0.00     0.000 C 
HETATM   28  C   UNL     1     -45.036  63.552 -46.412  1.00  0.00     0.001 C 
HETATM   29  C   UNL     1     -46.148  63.196 -47.400  1.00  0.00     0.011 C 
ENDBRANCH  20  24
ENDBRANCH   1  18
TORSDOF 3
ENDMDL
MODEL 6
REMARK VINA RESULT:      -7.5      5.543      8.304
REMARK  3 active torsions:
REMARK  status: ('A' for Active; 'I' for Inactive)
REMARK    1  A    between atoms: C_2  and  C_3 
REMARK       I    between atoms: C_3  and  N_4 
REMARK    2  A    between atoms: N_4  and  N_5 
REMARK    3  A    between atoms: C_21  and  C_22 
ROOT
HETATM    1  C   UNL     1     -43.940  58.968 -51.719  1.00  0.00     0.288 C 
HETATM    2  N   UNL     1     -44.392  57.664 -51.749  1.00  0.00    -0.251 N 
HETATM    3  O   UNL     1     -43.188  59.439 -52.570  1.00  0.00    -0.264 OA
HETATM    4  H   UNL     1     -44.802  57.260 -50.916  1.00  0.00     0.191 HD
ENDROOT
BRANCH   2   5
HETATM    5  N   UNL     1     -43.698  56.765 -52.545  1.00  0.00    -0.167 N 
HETATM    6  C   UNL     1     -44.052  56.513 -53.841  1.00  0.00     0.345 C 
HETATM    7  O   UNL     1     -44.995  56.985 -54.456  1.00  0.00    -0.245 OA
HETATM    8  N   UNL     1     -43.107  55.667 -54.380  1.00  0.00    -0.323 N 
HETATM    9  C   UNL     1     -42.068  55.321 -53.423  1.00  0.00     0.117 C 
HETATM   10  H   UNL     1     -43.179  55.340 -55.335  1.00  0.00     0.165 HD
HETATM   11  C   UNL     1     -40.677  55.714 -53.930  1.00  0.00     0.041 C 
HETATM   12  C   UNL     1     -42.148  53.840 -53.040  1.00  0.00     0.041 C 
HETATM   13  C   UNL     1     -42.481  56.211 -52.226  1.00  0.00     0.275 C 
HETATM   14  C   UNL     1     -40.194  54.795 -55.052  1.00  0.00     0.003 C 
HETATM   15  C   UNL     1     -40.264  53.325 -54.648  1.00  0.00     0.000 C 
HETATM   16  C   UNL     1     -41.660  52.932 -54.168  1.00  0.00     0.003 C 
HETATM   17  O   UNL     1     -41.822  56.384 -51.210  1.00  0.00    -0.268 OA
ENDBRANCH   2   5
BRANCH   1  18
HETATM   18  C   UNL     1     -44.387  59.739 -50.587  1.00  0.00     0.121 A 
HETATM   19  C   UNL     1     -43.961  60.920 -50.007  1.00  0.00     0.066 A 
HETATM   20  C   UNL     1     -44.892  61.202 -48.976  1.00  0.00     0.061 A 
HETATM   21  N   UNL     1     -45.801  60.224 -48.876  1.00  0.00    -0.178 NA
HETATM   22  N   UNL     1     -45.478  59.364 -49.853  1.00  0.00    -0.272 N 
HETATM   23  H   UNL     1     -46.049  58.535 -49.989  1.00  0.00     0.189 HD
BRANCH  20  24
HETATM   24  C   UNL     1     -44.994  62.394 -48.055  1.00  0.00     0.039 C 
HETATM   25  C   UNL     1     -44.567  63.706 -48.732  1.00  0.00     0.011 C 
HETATM   26  C   UNL     1     -45.670  64.345 -49.570  1.00  0.00     0.001 C 
HETATM   27  C   UNL     1     -46.940  64.550 -48.752  1.00  0.00     0.000 C 
HETATM   28  C   UNL     1     -47.436  63.240 -48.154  1.00  0.00     0.001 C 
HETATM   29  C   UNL     1     -46.355  62.522 -47.346  1.00  0.00     0.011 C 
ENDBRANCH  20  24
ENDBRANCH   1  18
TORSDOF 3
ENDMDL
MODEL 7
REMARK VINA RESULT:      -7.5      4.536      6.664
REMARK  3 active torsions:
REMARK  status: ('A' for Active; 'I' for Inactive)
REMARK    1  A    between atoms: C_2  and  C_3 
REMARK       I    between atoms: C_3  and  N_4 
REMARK    2  A    between atoms: N_4  and  N_5 
REMARK    3  A    between atoms: C_21  and  C_22 
ROOT
HETATM    1  C   UNL     1     -44.294  57.344 -53.055  1.00  0.00     0.288 C 
HETATM    2  N   UNL     1     -43.578  56.747 -52.037  1.00  0.00    -0.251 N 
HETATM    3  O   UNL     1     -44.356  56.882 -54.192  1.00  0.00    -0.264 OA
HETATM    4  H   UNL     1     -43.360  57.279 -51.203  1.00  0.00     0.191 HD
ENDROOT
BRANCH   2   5
HETATM    5  N   UNL     1     -42.616  55.813 -52.393  1.00  0.00    -0.167 N 
HETATM    6  C   UNL     1     -41.353  56.173 -52.771  1.00  0.00     0.345 C 
HETATM    7  O   UNL     1     -40.906  57.303 -52.877  1.00  0.00    -0.245 OA
HETATM    8  N   UNL     1     -40.622  55.019 -52.951  1.00  0.00    -0.323 N 
HETATM    9  C   UNL     1     -41.409  53.822 -52.694  1.00  0.00     0.117 C 
HETATM   10  H   UNL     1     -39.654  55.050 -53.244  1.00  0.00     0.165 HD
HETATM   11  C   UNL     1     -40.783  52.959 -51.595  1.00  0.00     0.041 C 
HETATM   12  C   UNL     1     -41.644  53.034 -53.986  1.00  0.00     0.041 C 
HETATM   13  C   UNL     1     -42.731  54.457 -52.200  1.00  0.00     0.275 C 
HETATM   14  C   UNL     1     -39.524  52.239 -52.077  1.00  0.00     0.003 C 
HETATM   15  C   UNL     1     -39.780  51.445 -53.354  1.00  0.00     0.000 C 
HETATM   16  C   UNL     1     -40.379  52.316 -54.456  1.00  0.00     0.003 C 
HETATM   17  O   UNL     1     -43.673  53.845 -51.717  1.00  0.00    -0.268 OA
ENDBRANCH   2   5
BRANCH   1  18
HETATM   18  C   UNL     1     -44.941  58.581 -52.698  1.00  0.00     0.121 A 
HETATM   19  C   UNL     1     -45.150  59.238 -51.500  1.00  0.00     0.066 A 
HETATM   20  C   UNL     1     -45.761  60.472 -51.838  1.00  0.00     0.061 A 
HETATM   21  N   UNL     1     -45.982  60.548 -53.157  1.00  0.00    -0.178 NA
HETATM   22  N   UNL     1     -45.478  59.406 -53.647  1.00  0.00    -0.272 N 
HETATM   23  H   UNL     1     -45.512  59.243 -54.649  1.00  0.00     0.189 HD
BRANCH  20  24
HETATM   24  C   UNL     1     -46.150  61.638 -50.962  1.00  0.00     0.039 C 
HETATM   25  C   UNL     1     -45.787  61.418 -49.485  1.00  0.00     0.011 C 
HETATM   26  C   UNL     1     -44.333  61.747 -49.160  1.00  0.00     0.001 C 
HETATM   27  C   UNL     1     -43.973  63.162 -49.598  1.00  0.00     0.000 C 
HETATM   28  C   UNL     1     -44.232  63.369 -51.085  1.00  0.00     0.001 C 
HETATM   29  C   UNL     1     -45.661  63.002 -51.483  1.00  0.00     0.011 C 
ENDBRANCH  20  24
ENDBRANCH   1  18
TORSDOF 3
ENDMDL
MODEL 8
REMARK VINA RESULT:      -7.4      1.550      2.325
REMARK  3 active torsions:
REMARK  status: ('A' for Active; 'I' for Inactive)
REMARK    1  A    between atoms: C_2  and  C_3 
REMARK       I    between atoms: C_3  and  N_4 
REMARK    2  A    between atoms: N_4  and  N_5 
REMARK    3  A    between atoms: C_21  and  C_22 
ROOT
HETATM    1  C   UNL     1     -42.570  55.521 -55.942  1.00  0.00     0.288 C 
HETATM    2  N   UNL     1     -43.012  56.164 -54.803  1.00  0.00    -0.251 N 
HETATM    3  O   UNL     1     -41.821  54.547 -55.917  1.00  0.00    -0.264 OA
HETATM    4  H   UNL     1     -43.421  57.087 -54.879  1.00  0.00     0.191 HD
ENDROOT
BRANCH   2   5
HETATM    5  N   UNL     1     -42.311  55.937 -53.628  1.00  0.00    -0.167 N 
HETATM    6  C   UNL     1     -41.362  56.805 -53.165  1.00  0.00     0.345 C 
HETATM    7  O   UNL     1     -40.983  57.838 -53.692  1.00  0.00    -0.245 OA
HETATM    8  N   UNL     1     -40.939  56.350 -51.935  1.00  0.00    -0.323 N 
HETATM    9  C   UNL     1     -41.614  55.124 -51.539  1.00  0.00     0.117 C 
HETATM   10  H   UNL     1     -40.225  56.840 -51.411  1.00  0.00     0.165 HD
HETATM   11  C   UNL     1     -42.348  55.288 -50.204  1.00  0.00     0.041 C 
HETATM   12  C   UNL     1     -40.639  53.943 -51.523  1.00  0.00     0.041 C 
HETATM   13  C   UNL     1     -42.626  54.973 -52.700  1.00  0.00     0.275 C 
HETATM   14  C   UNL     1     -41.382  55.344 -49.021  1.00  0.00     0.003 C 
HETATM   15  C   UNL     1     -40.430  54.152 -49.010  1.00  0.00     0.000 C 
HETATM   16  C   UNL     1     -39.681  54.009 -50.334  1.00  0.00     0.003 C 
HETATM   17  O   UNL     1     -43.534  54.155 -52.747  1.00  0.00    -0.268 OA
ENDBRANCH   2   5
BRANCH   1  18
HETATM   18  C   UNL     1     -43.024  56.102 -57.181  1.00  0.00     0.121 A 
HETATM   19  C   UNL     1     -42.789  57.308 -57.813  1.00  0.00     0.066 A 
HETATM   20  C   UNL     1     -43.451  57.225 -59.064  1.00  0.00     0.061 A 
HETATM   21  N   UNL     1     -44.113  56.066 -59.175  1.00  0.00    -0.178 NA
HETATM   22  N   UNL     1     -43.837  55.412 -58.037  1.00  0.00    -0.272 N 
HETATM   23  H   UNL     1     -44.220  54.482 -57.899  1.00  0.00     0.189 HD
BRANCH  20  24
HETATM   24  C   UNL     1     -43.484  58.201 -60.215  1.00  0.00     0.039 C 
HETATM   25  C   UNL     1     -44.681  59.162 -60.143  1.00  0.00     0.011 C 
HETATM   26  C   UNL     1     -44.447  60.358 -59.226  1.00  0.00     0.001 C 
HETATM   27  C   UNL     1     -43.176  61.109 -59.605  1.00  0.00     0.000 C 
HETATM   28  C   UNL     1     -41.959  60.193 -59.583  1.00  0.00     0.001 C 
HETATM   29  C   UNL     1     -42.155  58.944 -60.444  1.00  0.00     0.011 C 
ENDBRANCH  20  24
ENDBRANCH   1  18
TORSDOF 3
ENDMDL
MODEL 9
REMARK VINA RESULT:      -7.4      2.296      9.043
REMARK  3 active torsions:
REMARK  status: ('A' for Active; 'I' for Inactive)
REMARK    1  A    between atoms: C_2  and  C_3 
REMARK       I    between atoms: C_3  and  N_4 
REMARK    2  A    between atoms: N_4  and  N_5 
REMARK    3  A    between atoms: C_21  and  C_22 
ROOT
HETATM    1  C   UNL     1     -42.970  56.492 -55.734  1.00  0.00     0.288 C 
HETATM    2  N   UNL     1     -42.025  56.765 -56.703  1.00  0.00    -0.251 N 
HETATM    3  O   UNL     1     -44.144  56.843 -55.823  1.00  0.00    -0.264 OA
HETATM    4  H   UNL     1     -41.042  56.672 -56.480  1.00  0.00     0.191 HD
ENDROOT
BRANCH   2   5
HETATM    5  N   UNL     1     -42.318  57.765 -57.618  1.00  0.00    -0.167 N 
HETATM    6  C   UNL     1     -42.154  59.091 -57.328  1.00  0.00     0.345 C 
HETATM    7  O   UNL     1     -41.777  59.577 -56.275  1.00  0.00    -0.245 OA
HETATM    8  N   UNL     1     -42.425  59.809 -58.472  1.00  0.00    -0.323 N 
HETATM    9  C   UNL     1     -42.793  58.951 -59.588  1.00  0.00     0.117 C 
HETATM   10  H   UNL     1     -42.375  60.820 -58.482  1.00  0.00     0.165 HD
HETATM   11  C   UNL     1     -41.858  59.146 -60.785  1.00  0.00     0.041 C 
HETATM   12  C   UNL     1     -44.265  59.144 -59.965  1.00  0.00     0.041 C 
HETATM   13  C   UNL     1     -42.578  57.556 -58.952  1.00  0.00     0.275 C 
HETATM   14  C   UNL     1     -42.107  60.475 -61.498  1.00  0.00     0.003 C 
HETATM   15  C   UNL     1     -43.573  60.643 -61.883  1.00  0.00     0.000 C 
HETATM   16  C   UNL     1     -44.500  60.475 -60.681  1.00  0.00     0.003 C 
HETATM   17  O   UNL     1     -42.619  56.490 -59.550  1.00  0.00    -0.268 OA
ENDBRANCH   2   5
BRANCH   1  18
HETATM   18  C   UNL     1     -42.469  55.791 -54.579  1.00  0.00     0.121 A 
HETATM   19  C   UNL     1     -43.050  55.342 -53.408  1.00  0.00     0.066 A 
HETATM   20  C   UNL     1     -42.036  54.629 -52.721  1.00  0.00     0.061 A 
HETATM   21  N   UNL     1     -40.877  54.690 -53.390  1.00  0.00    -0.178 NA
HETATM   22  N   UNL     1     -41.166  55.386 -54.498  1.00  0.00    -0.272 N 
HETATM   23  H   UNL     1     -40.433  55.547 -55.184  1.00  0.00     0.189 HD
BRANCH  20  24
HETATM   24  C   UNL     1     -42.097  53.847 -51.431  1.00  0.00     0.039 C 
HETATM   25  C   UNL     1     -40.840  52.997 -51.193  1.00  0.00     0.011 C 
HETATM   26  C   UNL     1     -39.681  53.780 -50.583  1.00  0.00     0.001 C 
HETATM   27  C   UNL     1     -40.104  54.488 -49.301  1.00  0.00     0.000 C 
HETATM   28  C   UNL     1     -41.288  55.415 -49.539  1.00  0.00     0.001 C 
HETATM   29  C   UNL     1     -42.465  54.698 -50.201  1.00  0.00     0.011 C 
ENDBRANCH  20  24
ENDBRANCH   1  18
TORSDOF 3
ENDMDL
MODEL 10
REMARK VINA RESULT:      -7.4      2.548      3.844
REMARK  3 active torsions:
REMARK  status: ('A' for Active; 'I' for Inactive)
REMARK    1  A    between atoms: C_2  and  C_3 
REMARK       I    between atoms: C_3  and  N_4 
REMARK    2  A    between atoms: N_4  and  N_5 
REMARK    3  A    between atoms: C_21  and  C_22 
ROOT
HETATM    1  C   UNL     1     -42.473  56.797 -56.295  1.00  0.00     0.288 C 
HETATM    2  N   UNL     1     -41.849  55.592 -56.552  1.00  0.00    -0.251 N 
HETATM    3  O   UNL     1     -42.573  57.274 -55.167  1.00  0.00    -0.264 OA
HETATM    4  H   UNL     1     -42.002  55.132 -57.441  1.00  0.00     0.191 HD
ENDROOT
BRANCH   2   5
HETATM    5  N   UNL     1     -41.656  54.731 -55.481  1.00  0.00    -0.167 N 
HETATM    6  C   UNL     1     -42.608  53.832 -55.087  1.00  0.00     0.345 C 
HETATM    7  O   UNL     1     -43.719  53.675 -55.562  1.00  0.00    -0.245 OA
HETATM    8  N   UNL     1     -42.068  53.063 -54.079  1.00  0.00    -0.323 N 
HETATM    9  C   UNL     1     -40.700  53.446 -53.765  1.00  0.00     0.117 C 
HETATM   10  H   UNL     1     -42.606  52.334 -53.628  1.00  0.00     0.165 HD
HETATM   11  C   UNL     1     -39.730  52.273 -53.934  1.00  0.00     0.041 C 
HETATM   12  C   UNL     1     -40.614  54.073 -52.370  1.00  0.00     0.041 C 
HETATM   13  C   UNL     1     -40.452  54.518 -54.854  1.00  0.00     0.275 C 
HETATM   14  C   UNL     1     -39.881  51.238 -52.820  1.00  0.00     0.003 C 
HETATM   15  C   UNL     1     -39.774  51.876 -51.438  1.00  0.00     0.000 C 
HETATM   16  C   UNL     1     -40.762  53.028 -51.264  1.00  0.00     0.003 C 
HETATM   17  O   UNL     1     -39.375  55.043 -55.099  1.00  0.00    -0.268 OA
ENDBRANCH   2   5
BRANCH   1  18
HETATM   18  C   UNL     1     -43.038  57.446 -57.451  1.00  0.00     0.121 A 
HETATM   19  C   UNL     1     -42.518  58.261 -58.438  1.00  0.00     0.066 A 
HETATM   20  C   UNL     1     -43.577  58.482 -59.355  1.00  0.00     0.061 A 
HETATM   21  N   UNL     1     -44.704  57.897 -58.929  1.00  0.00    -0.178 NA
HETATM   22  N   UNL     1     -44.352  57.281 -57.791  1.00  0.00    -0.272 N 
HETATM   23  H   UNL     1     -45.050  56.743 -57.286  1.00  0.00     0.189 HD
BRANCH  20  24
HETATM   24  C   UNL     1     -43.588  59.224 -60.669  1.00  0.00     0.039 C 
HETATM   25  C   UNL     1     -44.694  60.289 -60.740  1.00  0.00     0.011 C 
HETATM   26  C   UNL     1     -44.312  61.608 -60.077  1.00  0.00     0.001 C 
HETATM   27  C   UNL     1     -43.003  62.153 -60.638  1.00  0.00     0.000 C 
HETATM   28  C   UNL     1     -41.869  61.147 -60.486  1.00  0.00     0.001 C 
HETATM   29  C   UNL     1     -42.215  59.784 -61.084  1.00  0.00     0.011 C 
ENDBRANCH  20  24
ENDBRANCH   1  18
TORSDOF 3
ENDMDL
