MODEL 1
REMARK VINA RESULT:      -9.2      0.000      0.000
REMARK  7 active torsions:
REMARK  status: ('A' for Active; 'I' for Inactive)
REMARK    1  A    between atoms: C_4  and  N_5 
REMARK    2  A    between atoms: C_6  and  S_7 
REMARK    3  A    between atoms: S_7  and  C_8 
REMARK    4  A    between atoms: C_8  and  C_9 
REMARK       I    between atoms: C_9  and  N_10 
REMARK    5  A    between atoms: N_10  and  C_11 
REMARK    6  A    between atoms: C_14  and  C_15 
REMARK       I    between atoms: C_15  and  N_16 
REMARK    7  A    between atoms: C_23  and  C_24 
ROOT
HETATM    1  N   UNL     1     -42.934  57.269 -51.290  1.00  0.00    -0.271 N 
HETATM    2  C   UNL     1     -44.192  57.830 -51.115  1.00  0.00     0.197 A 
HETATM    3  N   UNL     1     -45.015  56.952 -50.596  1.00  0.00    -0.122 NA
HETATM    4  N   UNL     1     -44.327  55.785 -50.425  1.00  0.00    -0.128 NA
HETATM    5  C   UNL     1     -43.105  55.942 -50.902  1.00  0.00     0.171 A 
ENDROOT
BRANCH   2   6
HETATM    6  S   UNL     1     -44.595  59.505 -51.343  1.00  0.00    -0.080 SA
BRANCH   6   7
HETATM    7  C   UNL     1     -45.567  59.407 -52.880  1.00  0.00     0.185 C 
BRANCH   7   8
HETATM    8  C   UNL     1     -44.655  59.212 -54.083  1.00  0.00     0.231 C 
HETATM    9  N   UNL     1     -45.028  58.149 -54.892  1.00  0.00    -0.327 N 
HETATM   10  H   UNL     1     -45.798  57.585 -54.549  1.00  0.00     0.169 HD
HETATM   11  O   UNL     1     -43.732  59.993 -54.301  1.00  0.00    -0.272 OA
BRANCH   9  12
HETATM   12  C   UNL     1     -44.410  57.705 -56.078  1.00  0.00     0.034 A 
HETATM   13  C   UNL     1     -43.293  56.869 -56.113  1.00  0.00     0.030 A 
HETATM   14  C   UNL     1     -42.742  56.460 -57.336  1.00  0.00     0.019 A 
HETATM   15  C   UNL     1     -43.301  56.894 -58.542  1.00  0.00     0.032 A 
HETATM   16  C   UNL     1     -44.426  57.725 -58.510  1.00  0.00     0.019 A 
HETATM   17  C   UNL     1     -44.972  58.130 -57.287  1.00  0.00     0.030 A 
BRANCH  15  18
HETATM   18  C   UNL     1     -42.765  56.486 -59.868  1.00  0.00     0.249 C 
HETATM   19  N   UNL     1     -41.440  56.710 -60.119  1.00  0.00    -0.366 N 
HETATM   20  H   UNL     1     -40.858  57.298 -59.541  1.00  0.00     0.159 HD
HETATM   21  H   UNL     1     -41.120  56.507 -61.057  1.00  0.00     0.159 HD
HETATM   22  O   UNL     1     -43.486  55.991 -60.727  1.00  0.00    -0.268 OA
ENDBRANCH  15  18
ENDBRANCH   9  12
ENDBRANCH   7   8
ENDBRANCH   6   7
ENDBRANCH   2   6
BRANCH   1  23
HETATM   23  C   UNL     1     -41.725  57.925 -51.645  1.00  0.00     0.044 A 
HETATM   24  C   UNL     1     -40.923  58.525 -50.665  1.00  0.00     0.037 A 
HETATM   25  C   UNL     1     -39.725  59.160 -51.024  1.00  0.00    -0.060 A 
HETATM   26  C   UNL     1     -38.842  59.777 -49.979  1.00  0.00     0.048 C 
HETATM   27  C   UNL     1     -39.329  59.168 -52.367  1.00  0.00     0.007 A 
HETATM   28  C   UNL     1     -40.126  58.570 -53.343  1.00  0.00     0.003 A 
HETATM   29  C   UNL     1     -41.322  57.949 -52.987  1.00  0.00     0.030 A 
ENDBRANCH   1  23
BRANCH   5  30
HETATM   30  C   UNL     1     -42.167  54.782 -51.055  1.00  0.00     0.040 A 
HETATM   31  C   UNL     1     -41.720  54.211 -52.289  1.00  0.00     0.006 A 
HETATM   32  C   UNL     1     -40.847  53.169 -51.968  1.00  0.00     0.043 A 
HETATM   33  C   UNL     1     -41.986  54.461 -53.653  1.00  0.00     0.015 A 
HETATM   34  C   UNL     1     -40.230  52.369 -52.937  1.00  0.00     0.030 A 
HETATM   35  N   UNL     1     -40.748  53.130 -50.597  1.00  0.00    -0.364 N 
HETATM   36  C   UNL     1     -40.515  52.638 -54.279  1.00  0.00     0.002 A 
HETATM   37  C   UNL     1     -41.379  53.669 -54.634  1.00  0.00     0.001 A 
HETATM   38  H   UNL     1     -40.166  52.482 -50.085  1.00  0.00     0.165 HD
HETATM   39  C   UNL     1     -41.532  54.104 -50.036  1.00  0.00     0.104 A 
ENDBRANCH   5  30
TORSDOF 7
ENDMDL
MODEL 2
REMARK VINA RESULT:      -8.5      3.663      7.395
REMARK  7 active torsions:
REMARK  status: ('A' for Active; 'I' for Inactive)
REMARK    1  A    between atoms: C_4  and  N_5 
REMARK    2  A    between atoms: C_6  and  S_7 
REMARK    3  A    between atoms: S_7  and  C_8 
REMARK    4  A    between atoms: C_8  and  C_9 
REMARK       I    between atoms: C_9  and  N_10 
REMARK    5  A    between atoms: N_10  and  C_11 
REMARK    6  A    between atoms: C_14  and  C_15 
REMARK       I    between atoms: C_15  and  N_16 
REMARK    7  A    between atoms: C_23  and  C_24 
ROOT
HETATM    1  N   UNL     1     -42.666  58.750 -52.382  1.00  0.00    -0.271 N 
HETATM    2  C   UNL     1     -42.273  58.886 -53.706  1.00  0.00     0.197 A 
HETATM    3  N   UNL     1     -42.479  60.114 -54.119  1.00  0.00    -0.122 NA
HETATM    4  N   UNL     1     -43.024  60.817 -53.083  1.00  0.00    -0.128 NA
HETATM    5  C   UNL     1     -43.206  59.994 -52.064  1.00  0.00     0.171 A 
ENDROOT
BRANCH   2   6
HETATM    6  S   UNL     1     -41.434  57.688 -54.643  1.00  0.00    -0.080 SA
BRANCH   6   7
HETATM    7  C   UNL     1     -42.828  56.645 -55.175  1.00  0.00     0.185 C 
BRANCH   7   8
HETATM    8  C   UNL     1     -42.662  55.220 -54.664  1.00  0.00     0.231 C 
HETATM    9  N   UNL     1     -41.376  54.936 -54.231  1.00  0.00    -0.327 N 
HETATM   10  H   UNL     1     -40.690  55.668 -54.380  1.00  0.00     0.169 HD
HETATM   11  O   UNL     1     -43.625  54.461 -54.605  1.00  0.00    -0.272 OA
BRANCH   9  12
HETATM   12  C   UNL     1     -40.890  53.726 -53.697  1.00  0.00     0.034 A 
HETATM   13  C   UNL     1     -40.587  53.532 -52.348  1.00  0.00     0.030 A 
HETATM   14  C   UNL     1     -40.119  52.292 -51.890  1.00  0.00     0.019 A 
HETATM   15  C   UNL     1     -39.941  51.231 -52.783  1.00  0.00     0.032 A 
HETATM   16  C   UNL     1     -40.253  51.419 -54.135  1.00  0.00     0.019 A 
HETATM   17  C   UNL     1     -40.719  52.659 -54.587  1.00  0.00     0.030 A 
BRANCH  15  18
HETATM   18  C   UNL     1     -39.457  49.892 -52.354  1.00  0.00     0.249 C 
HETATM   19  N   UNL     1     -39.102  49.731 -51.044  1.00  0.00    -0.366 N 
HETATM   20  H   UNL     1     -38.970  50.501 -50.405  1.00  0.00     0.159 HD
HETATM   21  H   UNL     1     -38.692  48.839 -50.795  1.00  0.00     0.159 HD
HETATM   22  O   UNL     1     -39.348  48.965 -53.147  1.00  0.00    -0.268 OA
ENDBRANCH  15  18
ENDBRANCH   9  12
ENDBRANCH   7   8
ENDBRANCH   6   7
ENDBRANCH   2   6
BRANCH   1  23
HETATM   23  C   UNL     1     -42.442  57.649 -51.511  1.00  0.00     0.044 A 
HETATM   24  C   UNL     1     -43.369  56.603 -51.428  1.00  0.00     0.037 A 
HETATM   25  C   UNL     1     -43.133  55.516 -50.574  1.00  0.00    -0.060 A 
HETATM   26  C   UNL     1     -44.104  54.374 -50.501  1.00  0.00     0.048 C 
HETATM   27  C   UNL     1     -41.952  55.478 -49.824  1.00  0.00     0.007 A 
HETATM   28  C   UNL     1     -41.027  56.518 -49.907  1.00  0.00     0.003 A 
HETATM   29  C   UNL     1     -41.268  57.604 -50.747  1.00  0.00     0.030 A 
ENDBRANCH   1  23
BRANCH   5  30
HETATM   30  C   UNL     1     -43.980  60.410 -50.849  1.00  0.00     0.040 A 
HETATM   31  C   UNL     1     -43.885  61.667 -50.172  1.00  0.00     0.006 A 
HETATM   32  C   UNL     1     -44.793  61.633 -49.111  1.00  0.00     0.043 A 
HETATM   33  C   UNL     1     -43.099  62.828 -50.340  1.00  0.00     0.015 A 
HETATM   34  C   UNL     1     -44.954  62.696 -48.215  1.00  0.00     0.030 A 
HETATM   35  N   UNL     1     -45.432  60.417 -49.163  1.00  0.00    -0.364 N 
HETATM   36  C   UNL     1     -44.161  63.831 -48.404  1.00  0.00     0.002 A 
HETATM   37  C   UNL     1     -43.246  63.899 -49.451  1.00  0.00     0.001 A 
HETATM   38  H   UNL     1     -46.158  60.126 -48.523  1.00  0.00     0.165 HD
HETATM   39  C   UNL     1     -44.958  59.674 -50.212  1.00  0.00     0.104 A 
ENDBRANCH   5  30
TORSDOF 7
ENDMDL
MODEL 3
REMARK VINA RESULT:      -8.4      4.025      9.144
REMARK  7 active torsions:
REMARK  status: ('A' for Active; 'I' for Inactive)
REMARK    1  A    between atoms: C_4  and  N_5 
REMARK    2  A    between atoms: C_6  and  S_7 
REMARK    3  A    between atoms: S_7  and  C_8 
REMARK    4  A    between atoms: C_8  and  C_9 
REMARK       I    between atoms: C_9  and  N_10 
REMARK    5  A    between atoms: N_10  and  C_11 
REMARK    6  A    between atoms: C_14  and  C_15 
REMARK       I    between atoms: C_15  and  N_16 
REMARK    7  A    between atoms: C_23  and  C_24 
ROOT
HETATM    1  N   UNL     1     -43.276  58.701 -57.664  1.00  0.00    -0.271 N 
HETATM    2  C   UNL     1     -43.299  58.738 -56.276  1.00  0.00     0.197 A 
HETATM    3  N   UNL     1     -43.010  59.943 -55.847  1.00  0.00    -0.122 NA
HETATM    4  N   UNL     1     -42.778  60.730 -56.939  1.00  0.00    -0.128 NA
HETATM    5  C   UNL     1     -42.864  59.983 -58.024  1.00  0.00     0.171 A 
ENDROOT
BRANCH   2   6
HETATM    6  S   UNL     1     -43.832  57.452 -55.237  1.00  0.00    -0.080 SA
BRANCH   6   7
HETATM    7  C   UNL     1     -42.314  57.148 -54.278  1.00  0.00     0.185 C 
BRANCH   7   8
HETATM    8  C   UNL     1     -42.269  55.710 -53.781  1.00  0.00     0.231 C 
HETATM    9  N   UNL     1     -40.992  55.170 -53.768  1.00  0.00    -0.327 N 
HETATM   10  H   UNL     1     -40.264  55.755 -54.162  1.00  0.00     0.169 HD
HETATM   11  O   UNL     1     -43.290  55.154 -53.382  1.00  0.00    -0.272 OA
BRANCH   9  12
HETATM   12  C   UNL     1     -40.603  53.878 -53.361  1.00  0.00     0.034 A 
HETATM   13  C   UNL     1     -40.272  53.539 -52.048  1.00  0.00     0.030 A 
HETATM   14  C   UNL     1     -39.906  52.226 -51.718  1.00  0.00     0.019 A 
HETATM   15  C   UNL     1     -39.859  51.237 -52.705  1.00  0.00     0.032 A 
HETATM   16  C   UNL     1     -40.199  51.572 -54.021  1.00  0.00     0.019 A 
HETATM   17  C   UNL     1     -40.563  52.884 -54.345  1.00  0.00     0.030 A 
BRANCH  15  18
HETATM   18  C   UNL     1     -39.486  49.827 -52.413  1.00  0.00     0.249 C 
HETATM   19  N   UNL     1     -39.315  49.469 -51.105  1.00  0.00    -0.366 N 
HETATM   20  H   UNL     1     -39.241  50.137 -50.351  1.00  0.00     0.159 HD
HETATM   21  H   UNL     1     -38.976  48.531 -50.936  1.00  0.00     0.159 HD
HETATM   22  O   UNL     1     -39.307  49.012 -53.310  1.00  0.00    -0.268 OA
ENDBRANCH  15  18
ENDBRANCH   9  12
ENDBRANCH   7   8
ENDBRANCH   6   7
ENDBRANCH   2   6
BRANCH   1  23
HETATM   23  C   UNL     1     -43.708  57.652 -58.519  1.00  0.00     0.044 A 
HETATM   24  C   UNL     1     -45.054  57.539 -58.890  1.00  0.00     0.037 A 
HETATM   25  C   UNL     1     -45.468  56.507 -59.743  1.00  0.00    -0.060 A 
HETATM   26  C   UNL     1     -46.902  56.396 -60.172  1.00  0.00     0.048 C 
HETATM   27  C   UNL     1     -44.519  55.604 -60.237  1.00  0.00     0.007 A 
HETATM   28  C   UNL     1     -43.178  55.716 -59.871  1.00  0.00     0.003 A 
HETATM   29  C   UNL     1     -42.769  56.736 -59.013  1.00  0.00     0.030 A 
ENDBRANCH   1  23
BRANCH   5  30
HETATM   30  C   UNL     1     -42.454  60.503 -59.370  1.00  0.00     0.040 A 
HETATM   31  C   UNL     1     -41.386  61.418 -59.635  1.00  0.00     0.006 A 
HETATM   32  C   UNL     1     -41.345  61.613 -61.018  1.00  0.00     0.043 A 
HETATM   33  C   UNL     1     -40.460  62.121 -58.836  1.00  0.00     0.015 A 
HETATM   34  C   UNL     1     -40.430  62.472 -61.637  1.00  0.00     0.030 A 
HETATM   35  N   UNL     1     -42.329  60.826 -61.568  1.00  0.00    -0.364 N 
HETATM   36  C   UNL     1     -39.526  63.157 -60.820  1.00  0.00     0.002 A 
HETATM   37  C   UNL     1     -39.539  62.985 -59.439  1.00  0.00     0.001 A 
HETATM   38  H   UNL     1     -42.516  60.755 -62.559  1.00  0.00     0.165 HD
HETATM   39  C   UNL     1     -42.998  60.144 -60.585  1.00  0.00     0.104 A 
ENDBRANCH   5  30
TORSDOF 7
ENDMDL
MODEL 4
REMARK VINA RESULT:      -8.3      3.350      7.809
REMARK  7 active torsions:
REMARK  status: ('A' for Active; 'I' for Inactive)
REMARK    1  A    between atoms: C_4  and  N_5 
REMARK    2  A    between atoms: C_6  and  S_7 
REMARK    3  A    between atoms: S_7  and  C_8 
REMARK    4  A    between atoms: C_8  and  C_9 
REMARK       I    between atoms: C_9  and  N_10 
REMARK    5  A    between atoms: N_10  and  C_11 
REMARK    6  A    between atoms: C_14  and  C_15 
REMARK       I    between atoms: C_15  and  N_16 
REMARK    7  A    between atoms: C_23  and  C_24 
ROOT
HETATM    1  N   UNL     1     -42.625  57.869 -56.474  1.00  0.00    -0.271 N 
HETATM    2  C   UNL     1     -42.105  57.153 -55.405  1.00  0.00     0.197 A 
HETATM    3  N   UNL     1     -42.112  55.868 -55.669  1.00  0.00    -0.122 NA
HETATM    4  N   UNL     1     -42.647  55.701 -56.915  1.00  0.00    -0.128 NA
HETATM    5  C   UNL     1     -43.022  56.882 -57.374  1.00  0.00     0.171 A 
ENDROOT
BRANCH   2   6
HETATM    6  S   UNL     1     -41.353  57.838 -53.997  1.00  0.00    -0.080 SA
BRANCH   6   7
HETATM    7  C   UNL     1     -42.465  57.222 -52.693  1.00  0.00     0.185 C 
BRANCH   7   8
HETATM    8  C   UNL     1     -42.387  55.705 -52.589  1.00  0.00     0.231 C 
HETATM    9  N   UNL     1     -41.105  55.206 -52.759  1.00  0.00    -0.327 N 
HETATM   10  H   UNL     1     -40.397  55.888 -53.009  1.00  0.00     0.169 HD
HETATM   11  O   UNL     1     -43.386  55.045 -52.317  1.00  0.00    -0.272 OA
BRANCH   9  12
HETATM   12  C   UNL     1     -40.687  53.861 -52.714  1.00  0.00     0.034 A 
HETATM   13  C   UNL     1     -40.219  53.225 -51.563  1.00  0.00     0.030 A 
HETATM   14  C   UNL     1     -39.834  51.877 -51.597  1.00  0.00     0.019 A 
HETATM   15  C   UNL     1     -39.904  51.151 -52.790  1.00  0.00     0.032 A 
HETATM   16  C   UNL     1     -40.380  51.784 -53.944  1.00  0.00     0.019 A 
HETATM   17  C   UNL     1     -40.764  53.130 -53.906  1.00  0.00     0.030 A 
BRANCH  15  18
HETATM   18  C   UNL     1     -39.516  49.718 -52.883  1.00  0.00     0.249 C 
HETATM   19  N   UNL     1     -39.323  49.032 -51.717  1.00  0.00    -0.366 N 
HETATM   20  H   UNL     1     -39.243  49.478 -50.816  1.00  0.00     0.159 HD
HETATM   21  H   UNL     1     -38.974  48.085 -51.806  1.00  0.00     0.159 HD
HETATM   22  O   UNL     1     -39.344  49.170 -53.965  1.00  0.00    -0.268 OA
ENDBRANCH  15  18
ENDBRANCH   9  12
ENDBRANCH   7   8
ENDBRANCH   6   7
ENDBRANCH   2   6
BRANCH   1  23
HETATM   23  C   UNL     1     -42.623  59.276 -56.669  1.00  0.00     0.044 A 
HETATM   24  C   UNL     1     -41.773  59.866 -57.613  1.00  0.00     0.037 A 
HETATM   25  C   UNL     1     -41.787  61.255 -57.806  1.00  0.00    -0.060 A 
HETATM   26  C   UNL     1     -40.904  61.894 -58.837  1.00  0.00     0.048 C 
HETATM   27  C   UNL     1     -42.674  62.042 -57.061  1.00  0.00     0.007 A 
HETATM   28  C   UNL     1     -43.522  61.455 -56.122  1.00  0.00     0.003 A 
HETATM   29  C   UNL     1     -43.500  60.076 -55.923  1.00  0.00     0.030 A 
ENDBRANCH   1  23
BRANCH   5  30
HETATM   30  C   UNL     1     -43.837  57.013 -58.626  1.00  0.00     0.040 A 
HETATM   31  C   UNL     1     -45.130  57.619 -58.736  1.00  0.00     0.006 A 
HETATM   32  C   UNL     1     -45.508  57.541 -60.079  1.00  0.00     0.043 A 
HETATM   33  C   UNL     1     -46.031  58.208 -57.824  1.00  0.00     0.015 A 
HETATM   34  C   UNL     1     -46.735  58.020 -60.552  1.00  0.00     0.030 A 
HETATM   35  N   UNL     1     -44.474  56.940 -60.757  1.00  0.00    -0.364 N 
HETATM   36  C   UNL     1     -47.608  58.596 -59.624  1.00  0.00     0.002 A 
HETATM   37  C   UNL     1     -47.263  58.690 -58.280  1.00  0.00     0.001 A 
HETATM   38  H   UNL     1     -44.467  56.770 -61.754  1.00  0.00     0.165 HD
HETATM   39  C   UNL     1     -43.457  56.625 -59.894  1.00  0.00     0.104 A 
ENDBRANCH   5  30
TORSDOF 7
ENDMDL
MODEL 5
REMARK VINA RESULT:      -8.1      2.988      3.857
REMARK  7 active torsions:
REMARK  status: ('A' for Active; 'I' for Inactive)
REMARK    1  A    between atoms: C_4  and  N_5 
REMARK    2  A    between atoms: C_6  and  S_7 
REMARK    3  A    between atoms: S_7  and  C_8 
REMARK    4  A    between atoms: C_8  and  C_9 
REMARK       I    between atoms: C_9  and  N_10 
REMARK    5  A    between atoms: N_10  and  C_11 
REMARK    6  A    between atoms: C_14  and  C_15 
REMARK       I    between atoms: C_15  and  N_16 
REMARK    7  A    between atoms: C_23  and  C_24 
ROOT
HETATM    1  N   UNL     1     -42.830  56.472 -53.740  1.00  0.00    -0.271 N 
HETATM    2  C   UNL     1     -43.717  56.581 -54.801  1.00  0.00     0.197 A 
HETATM    3  N   UNL     1     -44.344  55.445 -54.991  1.00  0.00    -0.122 NA
HETATM    4  N   UNL     1     -43.878  54.553 -54.068  1.00  0.00    -0.128 NA
HETATM    5  C   UNL     1     -42.924  55.134 -53.363  1.00  0.00     0.171 A 
ENDROOT
BRANCH   2   6
HETATM    6  S   UNL     1     -44.118  58.049 -55.641  1.00  0.00    -0.080 SA
BRANCH   6   7
HETATM    7  C   UNL     1     -42.940  57.971 -57.027  1.00  0.00     0.185 C 
BRANCH   7   8
HETATM    8  C   UNL     1     -43.674  58.002 -58.361  1.00  0.00     0.231 C 
HETATM    9  N   UNL     1     -44.988  57.567 -58.277  1.00  0.00    -0.327 N 
HETATM   10  H   UNL     1     -45.276  57.209 -57.374  1.00  0.00     0.169 HD
HETATM   11  O   UNL     1     -43.123  58.440 -59.367  1.00  0.00    -0.272 OA
BRANCH   9  12
HETATM   12  C   UNL     1     -45.938  57.480 -59.314  1.00  0.00     0.034 A 
HETATM   13  C   UNL     1     -46.691  58.560 -59.778  1.00  0.00     0.030 A 
HETATM   14  C   UNL     1     -47.610  58.395 -60.826  1.00  0.00     0.019 A 
HETATM   15  C   UNL     1     -47.790  57.140 -61.416  1.00  0.00     0.032 A 
HETATM   16  C   UNL     1     -47.030  56.058 -60.958  1.00  0.00     0.019 A 
HETATM   17  C   UNL     1     -46.115  56.227 -59.913  1.00  0.00     0.030 A 
BRANCH  15  18
HETATM   18  C   UNL     1     -48.743  56.908 -62.534  1.00  0.00     0.249 C 
HETATM   19  N   UNL     1     -49.924  57.595 -62.520  1.00  0.00    -0.366 N 
HETATM   20  H   UNL     1     -50.266  58.097 -61.714  1.00  0.00     0.159 HD
HETATM   21  H   UNL     1     -50.592  57.354 -63.242  1.00  0.00     0.159 HD
HETATM   22  O   UNL     1     -48.498  56.107 -63.429  1.00  0.00    -0.268 OA
ENDBRANCH  15  18
ENDBRANCH   9  12
ENDBRANCH   7   8
ENDBRANCH   6   7
ENDBRANCH   2   6
BRANCH   1  23
HETATM   23  C   UNL     1     -42.104  57.510 -53.096  1.00  0.00     0.044 A 
HETATM   24  C   UNL     1     -42.712  58.309 -52.119  1.00  0.00     0.037 A 
HETATM   25  C   UNL     1     -41.984  59.324 -51.482  1.00  0.00    -0.060 A 
HETATM   26  C   UNL     1     -42.616  60.164 -50.411  1.00  0.00     0.048 C 
HETATM   27  C   UNL     1     -40.637  59.513 -51.815  1.00  0.00     0.007 A 
HETATM   28  C   UNL     1     -40.030  58.717 -52.785  1.00  0.00     0.003 A 
HETATM   29  C   UNL     1     -40.758  57.717 -53.427  1.00  0.00     0.030 A 
ENDBRANCH   1  23
BRANCH   5  30
HETATM   30  C   UNL     1     -42.066  54.355 -52.411  1.00  0.00     0.040 A 
HETATM   31  C   UNL     1     -41.170  53.293 -52.753  1.00  0.00     0.006 A 
HETATM   32  C   UNL     1     -40.564  52.868 -51.569  1.00  0.00     0.043 A 
HETATM   33  C   UNL     1     -40.825  52.632 -53.952  1.00  0.00     0.015 A 
HETATM   34  C   UNL     1     -39.636  51.820 -51.522  1.00  0.00     0.030 A 
HETATM   35  N   UNL     1     -41.052  53.659 -50.556  1.00  0.00    -0.364 N 
HETATM   36  C   UNL     1     -39.317  51.183 -52.724  1.00  0.00     0.002 A 
HETATM   37  C   UNL     1     -39.901  51.581 -53.923  1.00  0.00     0.001 A 
HETATM   38  H   UNL     1     -40.772  53.586 -49.588  1.00  0.00     0.165 HD
HETATM   39  C   UNL     1     -41.952  54.566 -51.053  1.00  0.00     0.104 A 
ENDBRANCH   5  30
TORSDOF 7
ENDMDL
MODEL 6
REMARK VINA RESULT:      -8.1      4.150      8.000
REMARK  7 active torsions:
REMARK  status: ('A' for Active; 'I' for Inactive)
REMARK    1  A    between atoms: C_4  and  N_5 
REMARK    2  A    between atoms: C_6  and  S_7 
REMARK    3  A    between atoms: S_7  and  C_8 
REMARK    4  A    between atoms: C_8  and  C_9 
REMARK       I    between atoms: C_9  and  N_10 
REMARK    5  A    between atoms: N_10  and  C_11 
REMARK    6  A    between atoms: C_14  and  C_15 
REMARK       I    between atoms: C_15  and  N_16 
REMARK    7  A    between atoms: C_23  and  C_24 
ROOT
HETATM    1  N   UNL     1     -44.997  59.987 -51.546  1.00  0.00    -0.271 N 
HETATM    2  C   UNL     1     -44.876  58.608 -51.650  1.00  0.00     0.197 A 
HETATM    3  N   UNL     1     -45.494  58.019 -50.654  1.00  0.00    -0.122 NA
HETATM    4  N   UNL     1     -46.029  58.994 -49.861  1.00  0.00    -0.128 NA
HETATM    5  C   UNL     1     -45.679  60.172 -50.345  1.00  0.00     0.171 A 
ENDROOT
BRANCH   2   6
HETATM    6  S   UNL     1     -44.194  57.749 -52.997  1.00  0.00    -0.080 SA
BRANCH   6   7
HETATM    7  C   UNL     1     -42.552  57.332 -52.329  1.00  0.00     0.185 C 
BRANCH   7   8
HETATM    8  C   UNL     1     -42.393  55.823 -52.193  1.00  0.00     0.231 C 
HETATM    9  N   UNL     1     -41.263  55.329 -52.826  1.00  0.00    -0.327 N 
HETATM   10  H   UNL     1     -40.730  56.002 -53.365  1.00  0.00     0.169 HD
HETATM   11  O   UNL     1     -43.187  55.169 -51.522  1.00  0.00    -0.272 OA
BRANCH   9  12
HETATM   12  C   UNL     1     -40.819  53.992 -52.885  1.00  0.00     0.034 A 
HETATM   13  C   UNL     1     -40.216  53.320 -51.821  1.00  0.00     0.030 A 
HETATM   14  C   UNL     1     -39.813  51.984 -51.954  1.00  0.00     0.019 A 
HETATM   15  C   UNL     1     -40.002  51.306 -53.162  1.00  0.00     0.032 A 
HETATM   16  C   UNL     1     -40.614  51.975 -54.229  1.00  0.00     0.019 A 
HETATM   17  C   UNL     1     -41.015  53.309 -54.091  1.00  0.00     0.030 A 
BRANCH  15  18
HETATM   18  C   UNL     1     -39.603  49.887 -53.358  1.00  0.00     0.249 C 
HETATM   19  N   UNL     1     -39.428  49.112 -52.246  1.00  0.00    -0.366 N 
HETATM   20  H   UNL     1     -39.369  49.488 -51.311  1.00  0.00     0.159 HD
HETATM   21  H   UNL     1     -39.071  48.178 -52.400  1.00  0.00     0.159 HD
HETATM   22  O   UNL     1     -39.404  49.425 -54.476  1.00  0.00    -0.268 OA
ENDBRANCH  15  18
ENDBRANCH   9  12
ENDBRANCH   7   8
ENDBRANCH   6   7
ENDBRANCH   2   6
BRANCH   1  23
HETATM   23  C   UNL     1     -44.639  60.972 -52.506  1.00  0.00     0.044 A 
HETATM   24  C   UNL     1     -45.524  61.326 -53.532  1.00  0.00     0.037 A 
HETATM   25  C   UNL     1     -45.166  62.307 -54.468  1.00  0.00    -0.060 A 
HETATM   26  C   UNL     1     -46.120  62.717 -55.551  1.00  0.00     0.048 C 
HETATM   27  C   UNL     1     -43.925  62.944 -54.351  1.00  0.00     0.007 A 
HETATM   28  C   UNL     1     -43.043  62.594 -53.329  1.00  0.00     0.003 A 
HETATM   29  C   UNL     1     -43.395  61.610 -52.407  1.00  0.00     0.030 A 
ENDBRANCH   1  23
BRANCH   5  30
HETATM   30  C   UNL     1     -45.931  61.439 -49.584  1.00  0.00     0.040 A 
HETATM   31  C   UNL     1     -45.638  61.670 -48.202  1.00  0.00     0.006 A 
HETATM   32  C   UNL     1     -46.014  62.984 -47.916  1.00  0.00     0.043 A 
HETATM   33  C   UNL     1     -45.109  60.885 -47.155  1.00  0.00     0.015 A 
HETATM   34  C   UNL     1     -45.890  63.550 -46.641  1.00  0.00     0.030 A 
HETATM   35  N   UNL     1     -46.488  63.535 -49.083  1.00  0.00    -0.364 N 
HETATM   36  C   UNL     1     -45.366  62.748 -45.623  1.00  0.00     0.002 A 
HETATM   37  C   UNL     1     -44.980  61.435 -45.874  1.00  0.00     0.001 A 
HETATM   38  H   UNL     1     -46.814  64.487 -49.175  1.00  0.00     0.165 HD
HETATM   39  C   UNL     1     -46.434  62.616 -50.099  1.00  0.00     0.104 A 
ENDBRANCH   5  30
TORSDOF 7
ENDMDL
MODEL 7
REMARK VINA RESULT:      -7.9      3.485      6.705
REMARK  7 active torsions:
REMARK  status: ('A' for Active; 'I' for Inactive)
REMARK    1  A    between atoms: C_4  and  N_5 
REMARK    2  A    between atoms: C_6  and  S_7 
REMARK    3  A    between atoms: S_7  and  C_8 
REMARK    4  A    between atoms: C_8  and  C_9 
REMARK       I    between atoms: C_9  and  N_10 
REMARK    5  A    between atoms: N_10  and  C_11 
REMARK    6  A    between atoms: C_14  and  C_15 
REMARK       I    between atoms: C_15  and  N_16 
REMARK    7  A    between atoms: C_23  and  C_24 
ROOT
HETATM    1  N   UNL     1     -43.221  59.851 -52.690  1.00  0.00    -0.271 N 
HETATM    2  C   UNL     1     -43.300  60.089 -54.055  1.00  0.00     0.197 A 
HETATM    3  N   UNL     1     -44.196  61.013 -54.306  1.00  0.00    -0.122 NA
HETATM    4  N   UNL     1     -44.740  61.401 -53.115  1.00  0.00    -0.128 NA
HETATM    5  C   UNL     1     -44.217  60.664 -52.152  1.00  0.00     0.171 A 
ENDROOT
BRANCH   2   6
HETATM    6  S   UNL     1     -42.237  59.431 -55.261  1.00  0.00    -0.080 SA
BRANCH   6   7
HETATM    7  C   UNL     1     -43.393  58.361 -56.175  1.00  0.00     0.185 C 
BRANCH   7   8
HETATM    8  C   UNL     1     -42.975  56.901 -56.068  1.00  0.00     0.231 C 
HETATM    9  N   UNL     1     -42.254  56.617 -54.919  1.00  0.00    -0.327 N 
HETATM   10  H   UNL     1     -42.022  57.414 -54.337  1.00  0.00     0.169 HD
HETATM   11  O   UNL     1     -43.327  56.086 -56.917  1.00  0.00    -0.272 OA
BRANCH   9  12
HETATM   12  C   UNL     1     -41.729  55.374 -54.511  1.00  0.00     0.034 A 
HETATM   13  C   UNL     1     -42.296  54.573 -53.518  1.00  0.00     0.030 A 
HETATM   14  C   UNL     1     -41.721  53.340 -53.178  1.00  0.00     0.019 A 
HETATM   15  C   UNL     1     -40.563  52.898 -53.825  1.00  0.00     0.032 A 
HETATM   16  C   UNL     1     -39.998  53.694 -54.827  1.00  0.00     0.019 A 
HETATM   17  C   UNL     1     -40.575  54.924 -55.164  1.00  0.00     0.030 A 
BRANCH  15  18
HETATM   18  C   UNL     1     -39.915  51.596 -53.512  1.00  0.00     0.249 C 
HETATM   19  N   UNL     1     -40.066  50.575 -54.407  1.00  0.00    -0.366 N 
HETATM   20  H   UNL     1     -40.737  50.592 -55.161  1.00  0.00     0.159 HD
HETATM   21  H   UNL     1     -39.693  49.676 -54.130  1.00  0.00     0.159 HD
HETATM   22  O   UNL     1     -39.288  51.426 -52.473  1.00  0.00    -0.268 OA
ENDBRANCH  15  18
ENDBRANCH   9  12
ENDBRANCH   7   8
ENDBRANCH   6   7
ENDBRANCH   2   6
BRANCH   1  23
HETATM   23  C   UNL     1     -42.259  59.073 -51.991  1.00  0.00     0.044 A 
HETATM   24  C   UNL     1     -41.015  59.615 -51.645  1.00  0.00     0.037 A 
HETATM   25  C   UNL     1     -40.077  58.842 -50.946  1.00  0.00    -0.060 A 
HETATM   26  C   UNL     1     -38.754  59.424 -50.542  1.00  0.00     0.048 C 
HETATM   27  C   UNL     1     -40.406  57.532 -50.578  1.00  0.00     0.007 A 
HETATM   28  C   UNL     1     -41.645  56.992 -50.920  1.00  0.00     0.003 A 
HETATM   29  C   UNL     1     -42.573  57.757 -51.625  1.00  0.00     0.030 A 
ENDBRANCH   1  23
BRANCH   5  30
HETATM   30  C   UNL     1     -44.760  60.699 -50.754  1.00  0.00     0.040 A 
HETATM   31  C   UNL     1     -44.661  61.790 -49.834  1.00  0.00     0.006 A 
HETATM   32  C   UNL     1     -45.317  61.403 -48.663  1.00  0.00     0.043 A 
HETATM   33  C   UNL     1     -44.059  63.067 -49.868  1.00  0.00     0.015 A 
HETATM   34  C   UNL     1     -45.401  62.222 -47.531  1.00  0.00     0.030 A 
HETATM   35  N   UNL     1     -45.817  60.140 -48.877  1.00  0.00    -0.364 N 
HETATM   36  C   UNL     1     -44.793  63.479 -47.594  1.00  0.00     0.002 A 
HETATM   37  C   UNL     1     -44.132  63.898 -48.744  1.00  0.00     0.001 A 
HETATM   38  H   UNL     1     -46.356  59.617 -48.202  1.00  0.00     0.165 HD
HETATM   39  C   UNL     1     -45.495  59.708 -50.138  1.00  0.00     0.104 A 
ENDBRANCH   5  30
TORSDOF 7
ENDMDL
MODEL 8
REMARK VINA RESULT:      -7.8      2.834      7.048
REMARK  7 active torsions:
REMARK  status: ('A' for Active; 'I' for Inactive)
REMARK    1  A    between atoms: C_4  and  N_5 
REMARK    2  A    between atoms: C_6  and  S_7 
REMARK    3  A    between atoms: S_7  and  C_8 
REMARK    4  A    between atoms: C_8  and  C_9 
REMARK       I    between atoms: C_9  and  N_10 
REMARK    5  A    between atoms: N_10  and  C_11 
REMARK    6  A    between atoms: C_14  and  C_15 
REMARK       I    between atoms: C_15  and  N_16 
REMARK    7  A    between atoms: C_23  and  C_24 
ROOT
HETATM    1  N   UNL     1     -42.998  58.296 -54.679  1.00  0.00    -0.271 N 
HETATM    2  C   UNL     1     -41.957  57.663 -54.014  1.00  0.00     0.197 A 
HETATM    3  N   UNL     1     -41.429  56.733 -54.774  1.00  0.00    -0.122 NA
HETATM    4  N   UNL     1     -42.115  56.719 -55.954  1.00  0.00    -0.128 NA
HETATM    5  C   UNL     1     -43.098  57.599 -55.881  1.00  0.00     0.171 A 
ENDROOT
BRANCH   2   6
HETATM    6  S   UNL     1     -41.288  58.146 -52.485  1.00  0.00    -0.080 SA
BRANCH   6   7
HETATM    7  C   UNL     1     -42.337  57.189 -51.346  1.00  0.00     0.185 C 
BRANCH   7   8
HETATM    8  C   UNL     1     -42.352  55.716 -51.734  1.00  0.00     0.231 C 
HETATM    9  N   UNL     1     -41.100  55.221 -52.064  1.00  0.00    -0.327 N 
HETATM   10  H   UNL     1     -40.349  55.902 -52.089  1.00  0.00     0.169 HD
HETATM   11  O   UNL     1     -43.392  55.066 -51.681  1.00  0.00    -0.272 OA
BRANCH   9  12
HETATM   12  C   UNL     1     -40.764  53.909 -52.457  1.00  0.00     0.034 A 
HETATM   13  C   UNL     1     -40.901  53.422 -53.757  1.00  0.00     0.030 A 
HETATM   14  C   UNL     1     -40.532  52.107 -54.072  1.00  0.00     0.019 A 
HETATM   15  C   UNL     1     -40.027  51.258 -53.082  1.00  0.00     0.032 A 
HETATM   16  C   UNL     1     -39.880  51.747 -51.778  1.00  0.00     0.019 A 
HETATM   17  C   UNL     1     -40.250  53.061 -51.469  1.00  0.00     0.030 A 
BRANCH  15  18
HETATM   18  C   UNL     1     -39.612  49.857 -53.359  1.00  0.00     0.249 C 
HETATM   19  N   UNL     1     -39.299  49.061 -52.294  1.00  0.00    -0.366 N 
HETATM   20  H   UNL     1     -39.152  49.414 -51.360  1.00  0.00     0.159 HD
HETATM   21  H   UNL     1     -38.935  48.141 -52.512  1.00  0.00     0.159 HD
HETATM   22  O   UNL     1     -39.521  49.431 -54.504  1.00  0.00    -0.268 OA
ENDBRANCH  15  18
ENDBRANCH   9  12
ENDBRANCH   7   8
ENDBRANCH   6   7
ENDBRANCH   2   6
BRANCH   1  23
HETATM   23  C   UNL     1     -43.701  59.468 -54.290  1.00  0.00     0.044 A 
HETATM   24  C   UNL     1     -44.786  59.391 -53.407  1.00  0.00     0.037 A 
HETATM   25  C   UNL     1     -45.466  60.554 -53.020  1.00  0.00    -0.060 A 
HETATM   26  C   UNL     1     -46.609  60.487 -52.050  1.00  0.00     0.048 C 
HETATM   27  C   UNL     1     -45.035  61.794 -53.508  1.00  0.00     0.007 A 
HETATM   28  C   UNL     1     -43.954  61.872 -54.385  1.00  0.00     0.003 A 
HETATM   29  C   UNL     1     -43.286  60.714 -54.778  1.00  0.00     0.030 A 
ENDBRANCH   1  23
BRANCH   5  30
HETATM   30  C   UNL     1     -44.162  57.675 -56.935  1.00  0.00     0.040 A 
HETATM   31  C   UNL     1     -44.214  56.910 -58.143  1.00  0.00     0.006 A 
HETATM   32  C   UNL     1     -45.379  57.284 -58.817  1.00  0.00     0.043 A 
HETATM   33  C   UNL     1     -43.375  55.949 -58.747  1.00  0.00     0.015 A 
HETATM   34  C   UNL     1     -45.745  56.748 -60.058  1.00  0.00     0.030 A 
HETATM   35  N   UNL     1     -46.020  58.215 -58.035  1.00  0.00    -0.364 N 
HETATM   36  C   UNL     1     -44.893  55.801 -60.633  1.00  0.00     0.002 A 
HETATM   37  C   UNL     1     -43.725  55.405 -59.988  1.00  0.00     0.001 A 
HETATM   38  H   UNL     1     -46.903  58.648 -58.269  1.00  0.00     0.165 HD
HETATM   39  C   UNL     1     -45.300  58.453 -56.893  1.00  0.00     0.104 A 
ENDBRANCH   5  30
TORSDOF 7
ENDMDL
MODEL 9
REMARK VINA RESULT:      -7.8      2.885      7.200
REMARK  7 active torsions:
REMARK  status: ('A' for Active; 'I' for Inactive)
REMARK    1  A    between atoms: C_4  and  N_5 
REMARK    2  A    between atoms: C_6  and  S_7 
REMARK    3  A    between atoms: S_7  and  C_8 
REMARK    4  A    between atoms: C_8  and  C_9 
REMARK       I    between atoms: C_9  and  N_10 
REMARK    5  A    between atoms: N_10  and  C_11 
REMARK    6  A    between atoms: C_14  and  C_15 
REMARK       I    between atoms: C_15  and  N_16 
REMARK    7  A    between atoms: C_23  and  C_24 
ROOT
HETATM    1  N   UNL     1     -43.940  57.974 -54.321  1.00  0.00    -0.271 N 
HETATM    2  C   UNL     1     -43.921  57.042 -53.292  1.00  0.00     0.197 A 
HETATM    3  N   UNL     1     -43.663  55.846 -53.766  1.00  0.00    -0.122 NA
HETATM    4  N   UNL     1     -43.518  55.955 -55.119  1.00  0.00    -0.128 NA
HETATM    5  C   UNL     1     -43.751  57.208 -55.469  1.00  0.00     0.171 A 
ENDROOT
BRANCH   2   6
HETATM    6  S   UNL     1     -44.010  57.402 -51.595  1.00  0.00    -0.080 SA
BRANCH   6   7
HETATM    7  C   UNL     1     -42.296  57.054 -51.090  1.00  0.00     0.185 C 
BRANCH   7   8
HETATM    8  C   UNL     1     -42.035  55.554 -51.067  1.00  0.00     0.231 C 
HETATM    9  N   UNL     1     -41.203  55.123 -52.090  1.00  0.00    -0.327 N 
HETATM   10  H   UNL     1     -40.938  55.829 -52.768  1.00  0.00     0.169 HD
HETATM   11  O   UNL     1     -42.493  54.853 -50.168  1.00  0.00    -0.272 OA
BRANCH   9  12
HETATM   12  C   UNL     1     -40.758  53.811 -52.349  1.00  0.00     0.034 A 
HETATM   13  C   UNL     1     -40.125  52.999 -51.407  1.00  0.00     0.030 A 
HETATM   14  C   UNL     1     -39.723  51.697 -51.738  1.00  0.00     0.019 A 
HETATM   15  C   UNL     1     -39.944  51.195 -53.024  1.00  0.00     0.032 A 
HETATM   16  C   UNL     1     -40.586  52.004 -53.968  1.00  0.00     0.019 A 
HETATM   17  C   UNL     1     -40.986  53.303 -53.633  1.00  0.00     0.030 A 
BRANCH  15  18
HETATM   18  C   UNL     1     -39.547  49.820 -53.429  1.00  0.00     0.249 C 
HETATM   19  N   UNL     1     -39.154  48.954 -52.448  1.00  0.00    -0.366 N 
HETATM   20  H   UNL     1     -38.938  49.242 -51.506  1.00  0.00     0.159 HD
HETATM   21  H   UNL     1     -38.804  48.055 -52.757  1.00  0.00     0.159 HD
HETATM   22  O   UNL     1     -39.540  49.476 -54.605  1.00  0.00    -0.268 OA
ENDBRANCH  15  18
ENDBRANCH   9  12
ENDBRANCH   7   8
ENDBRANCH   6   7
ENDBRANCH   2   6
BRANCH   1  23
HETATM   23  C   UNL     1     -43.996  59.390 -54.217  1.00  0.00     0.044 A 
HETATM   24  C   UNL     1     -45.226  60.059 -54.205  1.00  0.00     0.037 A 
HETATM   25  C   UNL     1     -45.271  61.456 -54.091  1.00  0.00    -0.060 A 
HETATM   26  C   UNL     1     -46.584  62.179 -54.044  1.00  0.00     0.048 C 
HETATM   27  C   UNL     1     -44.074  62.171 -53.968  1.00  0.00     0.007 A 
HETATM   28  C   UNL     1     -42.848  61.507 -53.979  1.00  0.00     0.003 A 
HETATM   29  C   UNL     1     -42.804  60.119 -54.103  1.00  0.00     0.030 A 
ENDBRANCH   1  23
BRANCH   5  30
HETATM   30  C   UNL     1     -43.879  57.609 -56.908  1.00  0.00     0.040 A 
HETATM   31  C   UNL     1     -45.069  58.065 -57.558  1.00  0.00     0.006 A 
HETATM   32  C   UNL     1     -44.732  58.347 -58.885  1.00  0.00     0.043 A 
HETATM   33  C   UNL     1     -46.411  58.247 -57.160  1.00  0.00     0.015 A 
HETATM   34  C   UNL     1     -45.664  58.798 -59.827  1.00  0.00     0.030 A 
HETATM   35  N   UNL     1     -43.387  58.100 -59.023  1.00  0.00    -0.364 N 
HETATM   36  C   UNL     1     -46.985  58.967 -59.403  1.00  0.00     0.002 A 
HETATM   37  C   UNL     1     -47.356  58.696 -58.089  1.00  0.00     0.001 A 
HETATM   38  H   UNL     1     -42.865  58.236 -59.877  1.00  0.00     0.165 HD
HETATM   39  C   UNL     1     -42.859  57.663 -57.835  1.00  0.00     0.104 A 
ENDBRANCH   5  30
TORSDOF 7
ENDMDL
MODEL 10
REMARK VINA RESULT:      -7.8      3.323      4.757
REMARK  7 active torsions:
REMARK  status: ('A' for Active; 'I' for Inactive)
REMARK    1  A    between atoms: C_4  and  N_5 
REMARK    2  A    between atoms: C_6  and  S_7 
REMARK    3  A    between atoms: S_7  and  C_8 
REMARK    4  A    between atoms: C_8  and  C_9 
REMARK       I    between atoms: C_9  and  N_10 
REMARK    5  A    between atoms: N_10  and  C_11 
REMARK    6  A    between atoms: C_14  and  C_15 
REMARK       I    between atoms: C_15  and  N_16 
REMARK    7  A    between atoms: C_23  and  C_24 
ROOT
HETATM    1  N   UNL     1     -42.313  55.978 -54.559  1.00  0.00    -0.271 N 
HETATM    2  C   UNL     1     -42.997  55.946 -55.767  1.00  0.00     0.197 A 
HETATM    3  N   UNL     1     -43.272  54.708 -56.102  1.00  0.00    -0.122 NA
HETATM    4  N   UNL     1     -42.767  53.891 -55.132  1.00  0.00    -0.128 NA
HETATM    5  C   UNL     1     -42.131  54.634 -54.243  1.00  0.00     0.171 A 
ENDROOT
BRANCH   2   6
HETATM    6  S   UNL     1     -43.601  57.329 -56.627  1.00  0.00    -0.080 SA
BRANCH   6   7
HETATM    7  C   UNL     1     -42.635  57.211 -58.166  1.00  0.00     0.185 C 
BRANCH   7   8
HETATM    8  C   UNL     1     -43.555  57.061 -59.370  1.00  0.00     0.231 C 
HETATM    9  N   UNL     1     -44.858  57.466 -59.123  1.00  0.00    -0.327 N 
HETATM   10  H   UNL     1     -45.061  57.733 -58.166  1.00  0.00     0.169 HD
HETATM   11  O   UNL     1     -43.114  56.671 -60.448  1.00  0.00    -0.272 OA
BRANCH   9  12
HETATM   12  C   UNL     1     -45.948  57.467 -60.015  1.00  0.00     0.034 A 
HETATM   13  C   UNL     1     -46.566  56.311 -60.495  1.00  0.00     0.030 A 
HETATM   14  C   UNL     1     -47.657  56.394 -61.373  1.00  0.00     0.019 A 
HETATM   15  C   UNL     1     -48.136  57.641 -61.788  1.00  0.00     0.032 A 
HETATM   16  C   UNL     1     -47.524  58.801 -61.302  1.00  0.00     0.019 A 
HETATM   17  C   UNL     1     -46.435  58.713 -60.426  1.00  0.00     0.030 A 
BRANCH  15  18
HETATM   18  C   UNL     1     -49.294  57.790 -62.710  1.00  0.00     0.249 C 
HETATM   19  N   UNL     1     -49.123  57.422 -64.015  1.00  0.00    -0.366 N 
HETATM   20  H   UNL     1     -48.221  57.237 -64.427  1.00  0.00     0.159 HD
HETATM   21  H   UNL     1     -49.895  57.615 -64.641  1.00  0.00     0.159 HD
HETATM   22  O   UNL     1     -50.361  58.255 -62.328  1.00  0.00    -0.268 OA
ENDBRANCH  15  18
ENDBRANCH   9  12
ENDBRANCH   7   8
ENDBRANCH   6   7
ENDBRANCH   2   6
BRANCH   1  23
HETATM   23  C   UNL     1     -41.999  57.111 -53.761  1.00  0.00     0.044 A 
HETATM   24  C   UNL     1     -42.988  57.744 -52.997  1.00  0.00     0.037 A 
HETATM   25  C   UNL     1     -42.666  58.855 -52.204  1.00  0.00    -0.060 A 
HETATM   26  C   UNL     1     -43.710  59.520 -51.357  1.00  0.00     0.048 C 
HETATM   27  C   UNL     1     -41.342  59.309 -52.167  1.00  0.00     0.007 A 
HETATM   28  C   UNL     1     -40.356  58.679 -52.926  1.00  0.00     0.003 A 
HETATM   29  C   UNL     1     -40.680  57.582 -53.722  1.00  0.00     0.030 A 
ENDBRANCH   1  23
BRANCH   5  30
HETATM   30  C   UNL     1     -41.287  54.019 -53.167  1.00  0.00     0.040 A 
HETATM   31  C   UNL     1     -41.316  54.349 -51.775  1.00  0.00     0.006 A 
HETATM   32  C   UNL     1     -40.386  53.524 -51.137  1.00  0.00     0.043 A 
HETATM   33  C   UNL     1     -42.025  55.284 -50.990  1.00  0.00     0.015 A 
HETATM   34  C   UNL     1     -40.131  53.588 -49.761  1.00  0.00     0.030 A 
HETATM   35  N   UNL     1     -39.838  52.709 -52.099  1.00  0.00    -0.364 N 
HETATM   36  C   UNL     1     -40.847  54.526 -49.011  1.00  0.00     0.002 A 
HETATM   37  C   UNL     1     -41.781  55.362 -49.615  1.00  0.00     0.001 A 
HETATM   38  H   UNL     1     -39.146  51.996 -51.917  1.00  0.00     0.165 HD
HETATM   39  C   UNL     1     -40.381  52.991 -53.326  1.00  0.00     0.104 A 
ENDBRANCH   5  30
TORSDOF 7
ENDMDL
