MODEL 1
REMARK VINA RESULT:      -8.6      0.000      0.000
REMARK  5 active torsions:
REMARK  status: ('A' for Active; 'I' for Inactive)
REMARK    1  A    between atoms: C_2  and  C_3 
REMARK    2  A    between atoms: C_2  and  C_18 
REMARK       I    between atoms: C_3  and  N_4 
REMARK    3  A    between atoms: N_4  and  C_5 
REMARK    4  A    between atoms: C_7  and  C_8 
REMARK    5  A    between atoms: C_18  and  C_19 
ROOT
HETATM    1  C   UNL     1     -42.680  55.013 -53.559  1.00  0.00     0.226 C 
HETATM    2  N   UNL     1     -41.989  55.163 -54.754  1.00  0.00    -0.327 N 
HETATM    3  O   UNL     1     -43.677  55.652 -53.242  1.00  0.00    -0.273 OA
HETATM    4  H   UNL     1     -41.060  54.764 -54.797  1.00  0.00     0.169 HD
ENDROOT
BRANCH   2   5
HETATM    5  C   UNL     1     -42.390  55.910 -55.883  1.00  0.00     0.035 A 
HETATM    6  C   UNL     1     -43.005  55.345 -57.006  1.00  0.00     0.042 A 
HETATM    7  C   UNL     1     -43.353  56.128 -58.122  1.00  0.00    -0.021 A 
HETATM    8  C   UNL     1     -43.081  57.503 -58.079  1.00  0.00     0.012 A 
HETATM    9  C   UNL     1     -42.464  58.075 -56.966  1.00  0.00     0.003 A 
HETATM   10  C   UNL     1     -42.110  57.279 -55.877  1.00  0.00     0.029 A 
BRANCH   7  11
HETATM   11  C   UNL     1     -43.962  55.536 -59.310  1.00  0.00     0.010 A 
HETATM   12  C   UNL     1     -44.247  56.093 -60.582  1.00  0.00     0.152 A 
HETATM   13  N   UNL     1     -44.805  55.219 -61.426  1.00  0.00    -0.187 NA
HETATM   14  N   UNL     1     -44.881  54.094 -60.700  1.00  0.00    -0.289 N 
HETATM   15  H   UNL     1     -45.276  53.266 -61.133  1.00  0.00     0.188 HD
HETATM   16  C   UNL     1     -44.393  54.231 -59.432  1.00  0.00     0.123 A 
ENDBRANCH   7  11
ENDBRANCH   2   5
BRANCH   1  17
HETATM   17  C   UNL     1     -42.017  53.992 -52.625  1.00  0.00     0.078 C 
HETATM   18  C   UNL     1     -42.135  54.426 -51.163  1.00  0.00     0.020 C 
BRANCH  17  19
HETATM   19  C   UNL     1     -40.573  53.635 -53.038  1.00  0.00     0.052 C 
BRANCH  19  20
HETATM   20  C   UNL     1     -40.190  52.172 -53.054  1.00  0.00    -0.057 A 
HETATM   21  C   UNL     1     -39.753  51.533 -51.885  1.00  0.00     0.007 A 
HETATM   22  C   UNL     1     -39.412  50.178 -51.898  1.00  0.00     0.001 A 
HETATM   23  C   UNL     1     -39.512  49.444 -53.077  1.00  0.00     0.000 A 
HETATM   24  C   UNL     1     -39.953  50.064 -54.243  1.00  0.00     0.001 A 
HETATM   25  C   UNL     1     -40.291  51.419 -54.231  1.00  0.00     0.007 A 
ENDBRANCH  19  20
ENDBRANCH  17  19
ENDBRANCH   1  17
TORSDOF 5
ENDMDL
MODEL 2
REMARK VINA RESULT:      -8.0      2.009      2.872
REMARK  5 active torsions:
REMARK  status: ('A' for Active; 'I' for Inactive)
REMARK    1  A    between atoms: C_2  and  C_3 
REMARK    2  A    between atoms: C_2  and  C_18 
REMARK       I    between atoms: C_3  and  N_4 
REMARK    3  A    between atoms: N_4  and  C_5 
REMARK    4  A    between atoms: C_7  and  C_8 
REMARK    5  A    between atoms: C_18  and  C_19 
ROOT
HETATM    1  C   UNL     1     -42.269  54.217 -51.116  1.00  0.00     0.226 C 
HETATM    2  N   UNL     1     -41.857  55.335 -51.831  1.00  0.00    -0.327 N 
HETATM    3  O   UNL     1     -43.420  53.800 -51.070  1.00  0.00    -0.273 OA
HETATM    4  H   UNL     1     -40.949  55.715 -51.600  1.00  0.00     0.169 HD
ENDROOT
BRANCH   2   5
HETATM    5  C   UNL     1     -42.614  56.072 -52.768  1.00  0.00     0.035 A 
HETATM    6  C   UNL     1     -42.394  56.023 -54.149  1.00  0.00     0.042 A 
HETATM    7  C   UNL     1     -43.152  56.806 -55.040  1.00  0.00    -0.021 A 
HETATM    8  C   UNL     1     -44.152  57.634 -54.510  1.00  0.00     0.012 A 
HETATM    9  C   UNL     1     -44.376  57.693 -53.133  1.00  0.00     0.003 A 
HETATM   10  C   UNL     1     -43.602  56.923 -52.266  1.00  0.00     0.029 A 
BRANCH   7  11
HETATM   11  C   UNL     1     -42.902  56.786 -56.478  1.00  0.00     0.010 A 
HETATM   12  C   UNL     1     -42.570  57.830 -57.378  1.00  0.00     0.152 A 
HETATM   13  N   UNL     1     -42.405  57.408 -58.635  1.00  0.00    -0.187 NA
HETATM   14  N   UNL     1     -42.629  56.089 -58.550  1.00  0.00    -0.289 N 
HETATM   15  H   UNL     1     -42.557  55.532 -59.396  1.00  0.00     0.188 HD
HETATM   16  C   UNL     1     -42.929  55.668 -57.287  1.00  0.00     0.123 A 
ENDBRANCH   7  11
ENDBRANCH   2   5
BRANCH   1  17
HETATM   17  C   UNL     1     -41.122  53.581 -50.318  1.00  0.00     0.078 C 
HETATM   18  C   UNL     1     -40.845  54.366 -49.034  1.00  0.00     0.020 C 
BRANCH  17  19
HETATM   19  C   UNL     1     -39.855  53.332 -51.164  1.00  0.00     0.052 C 
BRANCH  19  20
HETATM   20  C   UNL     1     -39.839  52.116 -52.062  1.00  0.00    -0.057 A 
HETATM   21  C   UNL     1     -39.589  50.840 -51.536  1.00  0.00     0.007 A 
HETATM   22  C   UNL     1     -39.588  49.715 -52.365  1.00  0.00     0.001 A 
HETATM   23  C   UNL     1     -39.846  49.851 -53.727  1.00  0.00     0.000 A 
HETATM   24  C   UNL     1     -40.105  51.111 -54.261  1.00  0.00     0.001 A 
HETATM   25  C   UNL     1     -40.103  52.236 -53.433  1.00  0.00     0.007 A 
ENDBRANCH  19  20
ENDBRANCH  17  19
ENDBRANCH   1  17
TORSDOF 5
ENDMDL
MODEL 3
REMARK VINA RESULT:      -7.8      1.722      2.106
REMARK  5 active torsions:
REMARK  status: ('A' for Active; 'I' for Inactive)
REMARK    1  A    between atoms: C_2  and  C_3 
REMARK    2  A    between atoms: C_2  and  C_18 
REMARK       I    between atoms: C_3  and  N_4 
REMARK    3  A    between atoms: N_4  and  C_5 
REMARK    4  A    between atoms: C_7  and  C_8 
REMARK    5  A    between atoms: C_18  and  C_19 
ROOT
HETATM    1  C   UNL     1     -42.547  54.417 -53.568  1.00  0.00     0.226 C 
HETATM    2  N   UNL     1     -42.927  55.753 -53.594  1.00  0.00    -0.327 N 
HETATM    3  O   UNL     1     -42.751  53.613 -54.471  1.00  0.00    -0.273 OA
HETATM    4  H   UNL     1     -42.923  56.245 -52.710  1.00  0.00     0.169 HD
ENDROOT
BRANCH   2   5
HETATM    5  C   UNL     1     -43.430  56.474 -54.698  1.00  0.00     0.035 A 
HETATM    6  C   UNL     1     -42.878  56.408 -55.982  1.00  0.00     0.042 A 
HETATM    7  C   UNL     1     -43.394  57.175 -57.043  1.00  0.00    -0.021 A 
HETATM    8  C   UNL     1     -44.494  58.006 -56.786  1.00  0.00     0.012 A 
HETATM    9  C   UNL     1     -45.049  58.082 -55.508  1.00  0.00     0.003 A 
HETATM   10  C   UNL     1     -44.512  57.328 -54.466  1.00  0.00     0.029 A 
BRANCH   7  11
HETATM   11  C   UNL     1     -42.798  57.136 -58.375  1.00  0.00     0.010 A 
HETATM   12  C   UNL     1     -42.835  56.137 -59.380  1.00  0.00     0.152 A 
HETATM   13  N   UNL     1     -42.168  56.480 -60.486  1.00  0.00    -0.187 NA
HETATM   14  N   UNL     1     -41.698  57.702 -60.198  1.00  0.00    -0.289 N 
HETATM   15  H   UNL     1     -41.147  58.185 -60.900  1.00  0.00     0.188 HD
HETATM   16  C   UNL     1     -42.044  58.138 -58.952  1.00  0.00     0.123 A 
ENDBRANCH   7  11
ENDBRANCH   2   5
BRANCH   1  17
HETATM   17  C   UNL     1     -41.889  54.023 -52.239  1.00  0.00     0.078 C 
HETATM   18  C   UNL     1     -42.130  55.090 -51.169  1.00  0.00     0.020 C 
BRANCH  17  19
HETATM   19  C   UNL     1     -40.402  53.635 -52.385  1.00  0.00     0.052 C 
BRANCH  19  20
HETATM   20  C   UNL     1     -40.067  52.163 -52.479  1.00  0.00    -0.057 A 
HETATM   21  C   UNL     1     -39.787  51.417 -51.325  1.00  0.00     0.007 A 
HETATM   22  C   UNL     1     -39.492  50.055 -51.412  1.00  0.00     0.001 A 
HETATM   23  C   UNL     1     -39.481  49.420 -52.651  1.00  0.00     0.000 A 
HETATM   24  C   UNL     1     -39.766  50.146 -53.804  1.00  0.00     0.001 A 
HETATM   25  C   UNL     1     -40.060  51.509 -53.718  1.00  0.00     0.007 A 
ENDBRANCH  19  20
ENDBRANCH  17  19
ENDBRANCH   1  17
TORSDOF 5
ENDMDL
MODEL 4
REMARK VINA RESULT:      -7.6      1.282      2.056
REMARK  5 active torsions:
REMARK  status: ('A' for Active; 'I' for Inactive)
REMARK    1  A    between atoms: C_2  and  C_3 
REMARK    2  A    between atoms: C_2  and  C_18 
REMARK       I    between atoms: C_3  and  N_4 
REMARK    3  A    between atoms: N_4  and  C_5 
REMARK    4  A    between atoms: C_7  and  C_8 
REMARK    5  A    between atoms: C_18  and  C_19 
ROOT
HETATM    1  C   UNL     1     -43.363  56.825 -53.787  1.00  0.00     0.226 C 
HETATM    2  N   UNL     1     -42.441  56.879 -54.823  1.00  0.00    -0.327 N 
HETATM    3  O   UNL     1     -44.511  57.252 -53.847  1.00  0.00    -0.273 OA
HETATM    4  H   UNL     1     -41.471  56.720 -54.580  1.00  0.00     0.169 HD
ENDROOT
BRANCH   2   5
HETATM    5  C   UNL     1     -42.687  57.245 -56.164  1.00  0.00     0.035 A 
HETATM    6  C   UNL     1     -43.257  56.384 -57.109  1.00  0.00     0.042 A 
HETATM    7  C   UNL     1     -43.448  56.785 -58.444  1.00  0.00    -0.021 A 
HETATM    8  C   UNL     1     -43.066  58.084 -58.809  1.00  0.00     0.012 A 
HETATM    9  C   UNL     1     -42.492  58.949 -57.875  1.00  0.00     0.003 A 
HETATM   10  C   UNL     1     -42.294  58.526 -56.561  1.00  0.00     0.029 A 
BRANCH   7  11
HETATM   11  C   UNL     1     -44.008  55.878 -59.442  1.00  0.00     0.010 A 
HETATM   12  C   UNL     1     -44.454  56.115 -60.767  1.00  0.00     0.152 A 
HETATM   13  N   UNL     1     -44.897  55.012 -61.378  1.00  0.00    -0.187 NA
HETATM   14  N   UNL     1     -44.738  54.059 -60.448  1.00  0.00    -0.289 N 
HETATM   15  H   UNL     1     -45.007  53.109 -60.681  1.00  0.00     0.188 HD
HETATM   16  C   UNL     1     -44.214  54.523 -59.277  1.00  0.00     0.123 A 
ENDBRANCH   7  11
ENDBRANCH   2   5
BRANCH   1  17
HETATM   17  C   UNL     1     -42.768  56.221 -52.507  1.00  0.00     0.078 C 
HETATM   18  C   UNL     1     -41.290  56.588 -52.363  1.00  0.00     0.020 C 
BRANCH  17  19
HETATM   19  C   UNL     1     -43.035  54.707 -52.365  1.00  0.00     0.052 C 
BRANCH  19  20
HETATM   20  C   UNL     1     -41.911  53.761 -52.725  1.00  0.00    -0.057 A 
HETATM   21  C   UNL     1     -41.695  53.376 -54.056  1.00  0.00     0.007 A 
HETATM   22  C   UNL     1     -40.649  52.513 -54.387  1.00  0.00     0.001 A 
HETATM   23  C   UNL     1     -39.800  52.030 -53.394  1.00  0.00     0.000 A 
HETATM   24  C   UNL     1     -39.997  52.411 -52.070  1.00  0.00     0.001 A 
HETATM   25  C   UNL     1     -41.045  53.272 -51.737  1.00  0.00     0.007 A 
ENDBRANCH  19  20
ENDBRANCH  17  19
ENDBRANCH   1  17
TORSDOF 5
ENDMDL
MODEL 5
REMARK VINA RESULT:      -7.5      2.639      3.722
REMARK  5 active torsions:
REMARK  status: ('A' for Active; 'I' for Inactive)
REMARK    1  A    between atoms: C_2  and  C_3 
REMARK    2  A    between atoms: C_2  and  C_18 
REMARK       I    between atoms: C_3  and  N_4 
REMARK    3  A    between atoms: N_4  and  C_5 
REMARK    4  A    between atoms: C_7  and  C_8 
REMARK    5  A    between atoms: C_18  and  C_19 
ROOT
HETATM    1  C   UNL     1     -43.028  55.582 -55.712  1.00  0.00     0.226 C 
HETATM    2  N   UNL     1     -42.556  55.337 -56.996  1.00  0.00    -0.327 N 
HETATM    3  O   UNL     1     -43.664  56.575 -55.377  1.00  0.00    -0.273 OA
HETATM    4  H   UNL     1     -41.849  54.619 -57.092  1.00  0.00     0.169 HD
ENDROOT
BRANCH   2   5
HETATM    5  C   UNL     1     -42.868  56.056 -58.169  1.00  0.00     0.035 A 
HETATM    6  C   UNL     1     -42.359  57.328 -58.455  1.00  0.00     0.042 A 
HETATM    7  C   UNL     1     -42.730  58.021 -59.623  1.00  0.00    -0.021 A 
HETATM    8  C   UNL     1     -43.617  57.396 -60.511  1.00  0.00     0.012 A 
HETATM    9  C   UNL     1     -44.133  56.129 -60.233  1.00  0.00     0.003 A 
HETATM   10  C   UNL     1     -43.768  55.468 -59.061  1.00  0.00     0.029 A 
BRANCH   7  11
HETATM   11  C   UNL     1     -42.230  59.363 -59.907  1.00  0.00     0.010 A 
HETATM   12  C   UNL     1     -42.005  60.029 -61.138  1.00  0.00     0.152 A 
HETATM   13  N   UNL     1     -41.546  61.275 -60.985  1.00  0.00    -0.187 NA
HETATM   14  N   UNL     1     -41.475  61.417 -59.654  1.00  0.00    -0.289 N 
HETATM   15  H   UNL     1     -41.148  62.302 -59.280  1.00  0.00     0.188 HD
HETATM   16  C   UNL     1     -41.870  60.307 -58.966  1.00  0.00     0.123 A 
ENDBRANCH   7  11
ENDBRANCH   2   5
BRANCH   1  17
HETATM   17  C   UNL     1     -42.606  54.491 -54.718  1.00  0.00     0.078 C 
HETATM   18  C   UNL     1     -43.356  54.637 -53.392  1.00  0.00     0.020 C 
BRANCH  17  19
HETATM   19  C   UNL     1     -41.076  54.383 -54.543  1.00  0.00     0.052 C 
BRANCH  19  20
HETATM   20  C   UNL     1     -40.544  53.221 -53.735  1.00  0.00    -0.057 A 
HETATM   21  C   UNL     1     -40.260  51.992 -54.348  1.00  0.00     0.007 A 
HETATM   22  C   UNL     1     -39.755  50.924 -53.603  1.00  0.00     0.001 A 
HETATM   23  C   UNL     1     -39.521  51.073 -52.238  1.00  0.00     0.000 A 
HETATM   24  C   UNL     1     -39.790  52.291 -51.618  1.00  0.00     0.001 A 
HETATM   25  C   UNL     1     -40.296  53.358 -52.363  1.00  0.00     0.007 A 
ENDBRANCH  19  20
ENDBRANCH  17  19
ENDBRANCH   1  17
TORSDOF 5
ENDMDL
MODEL 6
REMARK VINA RESULT:      -7.5      2.565      8.429
REMARK  5 active torsions:
REMARK  status: ('A' for Active; 'I' for Inactive)
REMARK    1  A    between atoms: C_2  and  C_3 
REMARK    2  A    between atoms: C_2  and  C_18 
REMARK       I    between atoms: C_3  and  N_4 
REMARK    3  A    between atoms: N_4  and  C_5 
REMARK    4  A    between atoms: C_7  and  C_8 
REMARK    5  A    between atoms: C_18  and  C_19 
ROOT
HETATM    1  C   UNL     1     -42.496  55.640 -56.030  1.00  0.00     0.226 C 
HETATM    2  N   UNL     1     -41.388  55.670 -55.193  1.00  0.00    -0.327 N 
HETATM    3  O   UNL     1     -43.213  54.662 -56.209  1.00  0.00    -0.273 OA
HETATM    4  H   UNL     1     -40.746  56.443 -55.314  1.00  0.00     0.169 HD
ENDROOT
BRANCH   2   5
HETATM    5  C   UNL     1     -40.992  54.680 -54.268  1.00  0.00     0.035 A 
HETATM    6  C   UNL     1     -41.086  54.836 -52.881  1.00  0.00     0.042 A 
HETATM    7  C   UNL     1     -40.643  53.833 -51.999  1.00  0.00    -0.021 A 
HETATM    8  C   UNL     1     -40.114  52.655 -52.546  1.00  0.00     0.012 A 
HETATM    9  C   UNL     1     -40.012  52.492 -53.928  1.00  0.00     0.003 A 
HETATM   10  C   UNL     1     -40.439  53.505 -54.785  1.00  0.00     0.029 A 
BRANCH   7  11
HETATM   11  C   UNL     1     -40.706  54.007 -50.551  1.00  0.00     0.010 A 
HETATM   12  C   UNL     1     -41.110  55.116 -49.765  1.00  0.00     0.152 A 
HETATM   13  N   UNL     1     -41.037  54.883 -48.451  1.00  0.00    -0.187 NA
HETATM   14  N   UNL     1     -40.587  53.622 -48.384  1.00  0.00    -0.289 N 
HETATM   15  H   UNL     1     -40.449  53.206 -47.469  1.00  0.00     0.188 HD
HETATM   16  C   UNL     1     -40.372  53.055 -49.607  1.00  0.00     0.123 A 
ENDBRANCH   7  11
ENDBRANCH   2   5
BRANCH   1  17
HETATM   17  C   UNL     1     -42.701  56.966 -56.775  1.00  0.00     0.078 C 
HETATM   18  C   UNL     1     -44.018  57.629 -56.367  1.00  0.00     0.020 C 
BRANCH  17  19
HETATM   19  C   UNL     1     -42.533  56.838 -58.305  1.00  0.00     0.052 C 
BRANCH  19  20
HETATM   20  C   UNL     1     -43.750  56.447 -59.113  1.00  0.00    -0.057 A 
HETATM   21  C   UNL     1     -43.991  55.105 -59.441  1.00  0.00     0.007 A 
HETATM   22  C   UNL     1     -45.122  54.743 -60.176  1.00  0.00     0.001 A 
HETATM   23  C   UNL     1     -46.031  55.717 -60.584  1.00  0.00     0.000 A 
HETATM   24  C   UNL     1     -45.808  57.052 -60.258  1.00  0.00     0.001 A 
HETATM   25  C   UNL     1     -44.676  57.414 -59.525  1.00  0.00     0.007 A 
ENDBRANCH  19  20
ENDBRANCH  17  19
ENDBRANCH   1  17
TORSDOF 5
ENDMDL
MODEL 7
REMARK VINA RESULT:      -7.5      3.421      7.740
REMARK  5 active torsions:
REMARK  status: ('A' for Active; 'I' for Inactive)
REMARK    1  A    between atoms: C_2  and  C_3 
REMARK    2  A    between atoms: C_2  and  C_18 
REMARK       I    between atoms: C_3  and  N_4 
REMARK    3  A    between atoms: N_4  and  C_5 
REMARK    4  A    between atoms: C_7  and  C_8 
REMARK    5  A    between atoms: C_18  and  C_19 
ROOT
HETATM    1  C   UNL     1     -42.867  56.433 -53.171  1.00  0.00     0.226 C 
HETATM    2  N   UNL     1     -41.626  55.821 -53.282  1.00  0.00    -0.327 N 
HETATM    3  O   UNL     1     -43.741  56.107 -52.375  1.00  0.00    -0.273 OA
HETATM    4  H   UNL     1     -41.095  56.014 -54.122  1.00  0.00     0.169 HD
ENDROOT
BRANCH   2   5
HETATM    5  C   UNL     1     -41.065  54.866 -52.406  1.00  0.00     0.035 A 
HETATM    6  C   UNL     1     -40.724  53.566 -52.796  1.00  0.00     0.042 A 
HETATM    7  C   UNL     1     -40.202  52.638 -51.875  1.00  0.00    -0.021 A 
HETATM    8  C   UNL     1     -40.015  53.053 -50.549  1.00  0.00     0.012 A 
HETATM    9  C   UNL     1     -40.357  54.346 -50.150  1.00  0.00     0.003 A 
HETATM   10  C   UNL     1     -40.890  55.245 -51.073  1.00  0.00     0.029 A 
BRANCH   7  11
HETATM   11  C   UNL     1     -39.879  51.270 -52.269  1.00  0.00     0.010 A 
HETATM   12  C   UNL     1     -39.806  50.665 -53.549  1.00  0.00     0.152 A 
HETATM   13  N   UNL     1     -39.462  49.374 -53.501  1.00  0.00    -0.187 NA
HETATM   14  N   UNL     1     -39.311  49.143 -52.189  1.00  0.00    -0.289 N 
HETATM   15  H   UNL     1     -39.041  48.211 -51.892  1.00  0.00     0.188 HD
HETATM   16  C   UNL     1     -39.549  50.239 -51.412  1.00  0.00     0.123 A 
ENDBRANCH   7  11
ENDBRANCH   2   5
BRANCH   1  17
HETATM   17  C   UNL     1     -43.066  57.542 -54.213  1.00  0.00     0.078 C 
HETATM   18  C   UNL     1     -42.297  57.233 -55.498  1.00  0.00     0.020 C 
BRANCH  17  19
HETATM   19  C   UNL     1     -42.783  58.956 -53.661  1.00  0.00     0.052 C 
BRANCH  19  20
HETATM   20  C   UNL     1     -41.746  59.087 -52.568  1.00  0.00    -0.057 A 
HETATM   21  C   UNL     1     -40.378  58.979 -52.861  1.00  0.00     0.007 A 
HETATM   22  C   UNL     1     -39.421  59.113 -51.852  1.00  0.00     0.001 A 
HETATM   23  C   UNL     1     -39.818  59.366 -50.541  1.00  0.00     0.000 A 
HETATM   24  C   UNL     1     -41.172  59.484 -50.238  1.00  0.00     0.001 A 
HETATM   25  C   UNL     1     -42.129  59.348 -51.246  1.00  0.00     0.007 A 
ENDBRANCH  19  20
ENDBRANCH  17  19
ENDBRANCH   1  17
TORSDOF 5
ENDMDL
MODEL 8
REMARK VINA RESULT:      -7.5      2.352      3.446
REMARK  5 active torsions:
REMARK  status: ('A' for Active; 'I' for Inactive)
REMARK    1  A    between atoms: C_2  and  C_3 
REMARK    2  A    between atoms: C_2  and  C_18 
REMARK       I    between atoms: C_3  and  N_4 
REMARK    3  A    between atoms: N_4  and  C_5 
REMARK    4  A    between atoms: C_7  and  C_8 
REMARK    5  A    between atoms: C_18  and  C_19 
ROOT
HETATM    1  C   UNL     1     -43.006  55.416 -53.638  1.00  0.00     0.226 C 
HETATM    2  N   UNL     1     -42.183  55.413 -54.757  1.00  0.00    -0.327 N 
HETATM    3  O   UNL     1     -43.962  56.166 -53.473  1.00  0.00    -0.273 OA
HETATM    4  H   UNL     1     -41.300  54.927 -54.672  1.00  0.00     0.169 HD
ENDROOT
BRANCH   2   5
HETATM    5  C   UNL     1     -42.388  56.112 -55.966  1.00  0.00     0.035 A 
HETATM    6  C   UNL     1     -42.146  57.482 -56.119  1.00  0.00     0.042 A 
HETATM    7  C   UNL     1     -42.401  58.140 -57.336  1.00  0.00    -0.021 A 
HETATM    8  C   UNL     1     -42.893  57.383 -58.409  1.00  0.00     0.012 A 
HETATM    9  C   UNL     1     -43.141  56.017 -58.266  1.00  0.00     0.003 A 
HETATM   10  C   UNL     1     -42.900  55.387 -57.046  1.00  0.00     0.029 A 
BRANCH   7  11
HETATM   11  C   UNL     1     -42.185  59.575 -57.489  1.00  0.00     0.010 A 
HETATM   12  C   UNL     1     -41.991  60.368 -58.648  1.00  0.00     0.152 A 
HETATM   13  N   UNL     1     -41.836  61.667 -58.378  1.00  0.00    -0.187 NA
HETATM   14  N   UNL     1     -41.931  61.718 -57.041  1.00  0.00    -0.289 N 
HETATM   15  H   UNL     1     -41.848  62.621 -56.585  1.00  0.00     0.188 HD
HETATM   16  C   UNL     1     -42.138  60.499 -56.464  1.00  0.00     0.123 A 
ENDBRANCH   7  11
ENDBRANCH   2   5
BRANCH   1  17
HETATM   17  C   UNL     1     -42.550  54.406 -52.576  1.00  0.00     0.078 C 
HETATM   18  C   UNL     1     -43.120  54.760 -51.201  1.00  0.00     0.020 C 
BRANCH  17  19
HETATM   19  C   UNL     1     -41.023  54.183 -52.562  1.00  0.00     0.052 C 
BRANCH  19  20
HETATM   20  C   UNL     1     -40.516  52.785 -52.836  1.00  0.00    -0.057 A 
HETATM   21  C   UNL     1     -39.891  52.039 -51.826  1.00  0.00     0.007 A 
HETATM   22  C   UNL     1     -39.435  50.742 -52.077  1.00  0.00     0.001 A 
HETATM   23  C   UNL     1     -39.606  50.173 -53.336  1.00  0.00     0.000 A 
HETATM   24  C   UNL     1     -40.233  50.899 -54.345  1.00  0.00     0.001 A 
HETATM   25  C   UNL     1     -40.687  52.196 -54.096  1.00  0.00     0.007 A 
ENDBRANCH  19  20
ENDBRANCH  17  19
ENDBRANCH   1  17
TORSDOF 5
ENDMDL
MODEL 9
REMARK VINA RESULT:      -7.5      2.494      7.534
REMARK  5 active torsions:
REMARK  status: ('A' for Active; 'I' for Inactive)
REMARK    1  A    between atoms: C_2  and  C_3 
REMARK    2  A    between atoms: C_2  and  C_18 
REMARK       I    between atoms: C_3  and  N_4 
REMARK    3  A    between atoms: N_4  and  C_5 
REMARK    4  A    between atoms: C_7  and  C_8 
REMARK    5  A    between atoms: C_18  and  C_19 
ROOT
HETATM    1  C   UNL     1     -43.060  56.223 -54.590  1.00  0.00     0.226 C 
HETATM    2  N   UNL     1     -41.771  56.115 -54.084  1.00  0.00    -0.327 N 
HETATM    3  O   UNL     1     -43.928  55.364 -54.483  1.00  0.00    -0.273 OA
HETATM    4  H   UNL     1     -41.085  56.770 -54.440  1.00  0.00     0.169 HD
ENDROOT
BRANCH   2   5
HETATM    5  C   UNL     1     -41.278  55.120 -53.213  1.00  0.00     0.035 A 
HETATM    6  C   UNL     1     -40.909  53.838 -53.633  1.00  0.00     0.042 A 
HETATM    7  C   UNL     1     -40.457  52.868 -52.719  1.00  0.00    -0.021 A 
HETATM    8  C   UNL     1     -40.369  53.223 -51.364  1.00  0.00     0.012 A 
HETATM    9  C   UNL     1     -40.740  54.498 -50.935  1.00  0.00     0.003 A 
HETATM   10  C   UNL     1     -41.202  55.439 -51.854  1.00  0.00     0.029 A 
BRANCH   7  11
HETATM   11  C   UNL     1     -40.106  51.518 -53.148  1.00  0.00     0.010 A 
HETATM   12  C   UNL     1     -39.564  50.425 -52.425  1.00  0.00     0.152 A 
HETATM   13  N   UNL     1     -39.390  49.333 -53.175  1.00  0.00    -0.187 NA
HETATM   14  N   UNL     1     -39.821  49.717 -54.385  1.00  0.00    -0.289 N 
HETATM   15  H   UNL     1     -39.792  49.044 -55.144  1.00  0.00     0.188 HD
HETATM   16  C   UNL     1     -40.256  51.010 -54.422  1.00  0.00     0.123 A 
ENDBRANCH   7  11
ENDBRANCH   2   5
BRANCH   1  17
HETATM   17  C   UNL     1     -43.274  57.527 -55.370  1.00  0.00     0.078 C 
HETATM   18  C   UNL     1     -44.763  57.793 -55.597  1.00  0.00     0.020 C 
BRANCH  17  19
HETATM   19  C   UNL     1     -42.437  57.608 -56.665  1.00  0.00     0.052 C 
BRANCH  19  20
HETATM   20  C   UNL     1     -43.061  57.075 -57.936  1.00  0.00    -0.057 A 
HETATM   21  C   UNL     1     -43.475  57.949 -58.952  1.00  0.00     0.007 A 
HETATM   22  C   UNL     1     -44.039  57.455 -60.130  1.00  0.00     0.001 A 
HETATM   23  C   UNL     1     -44.187  56.082 -60.312  1.00  0.00     0.000 A 
HETATM   24  C   UNL     1     -43.772  55.203 -59.316  1.00  0.00     0.001 A 
HETATM   25  C   UNL     1     -43.210  55.697 -58.136  1.00  0.00     0.007 A 
ENDBRANCH  19  20
ENDBRANCH  17  19
ENDBRANCH   1  17
TORSDOF 5
ENDMDL
MODEL 10
REMARK VINA RESULT:      -7.4      4.594      6.510
REMARK  5 active torsions:
REMARK  status: ('A' for Active; 'I' for Inactive)
REMARK    1  A    between atoms: C_2  and  C_3 
REMARK    2  A    between atoms: C_2  and  C_18 
REMARK       I    between atoms: C_3  and  N_4 
REMARK    3  A    between atoms: N_4  and  C_5 
REMARK    4  A    between atoms: C_7  and  C_8 
REMARK    5  A    between atoms: C_18  and  C_19 
ROOT
HETATM    1  C   UNL     1     -41.330  56.044 -53.068  1.00  0.00     0.226 C 
HETATM    2  N   UNL     1     -41.878  56.471 -51.866  1.00  0.00    -0.327 N 
HETATM    3  O   UNL     1     -40.878  56.784 -53.935  1.00  0.00    -0.273 OA
HETATM    4  H   UNL     1     -42.429  55.796 -51.350  1.00  0.00     0.169 HD
ENDROOT
BRANCH   2   5
HETATM    5  C   UNL     1     -41.851  57.779 -51.334  1.00  0.00     0.035 A 
HETATM    6  C   UNL     1     -42.945  58.651 -51.369  1.00  0.00     0.042 A 
HETATM    7  C   UNL     1     -42.856  59.959 -50.858  1.00  0.00    -0.021 A 
HETATM    8  C   UNL     1     -41.640  60.369 -50.293  1.00  0.00     0.012 A 
HETATM    9  C   UNL     1     -40.542  59.508 -50.257  1.00  0.00     0.003 A 
HETATM   10  C   UNL     1     -40.645  58.222 -50.786  1.00  0.00     0.029 A 
BRANCH   7  11
HETATM   11  C   UNL     1     -43.983  60.884 -50.926  1.00  0.00     0.010 A 
HETATM   12  C   UNL     1     -44.255  61.954 -51.816  1.00  0.00     0.152 A 
HETATM   13  N   UNL     1     -45.413  62.569 -51.560  1.00  0.00    -0.187 NA
HETATM   14  N   UNL     1     -45.894  61.897 -50.504  1.00  0.00    -0.289 N 
HETATM   15  H   UNL     1     -46.788  62.182 -50.117  1.00  0.00     0.188 HD
HETATM   16  C   UNL     1     -45.080  60.885 -50.087  1.00  0.00     0.123 A 
ENDBRANCH   7  11
ENDBRANCH   2   5
BRANCH   1  17
HETATM   17  C   UNL     1     -41.406  54.520 -53.235  1.00  0.00     0.078 C 
HETATM   18  C   UNL     1     -42.847  54.024 -53.097  1.00  0.00     0.020 C 
BRANCH  17  19
HETATM   19  C   UNL     1     -40.412  53.757 -52.335  1.00  0.00     0.052 C 
BRANCH  19  20
HETATM   20  C   UNL     1     -40.114  52.316 -52.684  1.00  0.00    -0.057 A 
HETATM   21  C   UNL     1     -39.738  51.400 -51.690  1.00  0.00     0.007 A 
HETATM   22  C   UNL     1     -39.476  50.066 -52.013  1.00  0.00     0.001 A 
HETATM   23  C   UNL     1     -39.596  49.630 -53.330  1.00  0.00     0.000 A 
HETATM   24  C   UNL     1     -39.977  50.526 -54.325  1.00  0.00     0.001 A 
HETATM   25  C   UNL     1     -40.237  51.860 -54.003  1.00  0.00     0.007 A 
ENDBRANCH  19  20
ENDBRANCH  17  19
ENDBRANCH   1  17
TORSDOF 5
ENDMDL
