MODEL 1
REMARK VINA RESULT:      -8.7      0.000      0.000
REMARK  5 active torsions:
REMARK  status: ('A' for Active; 'I' for Inactive)
REMARK    1  A    between atoms: C_4  and  C_5 
REMARK       I    between atoms: C_5  and  N_6 
REMARK    2  A    between atoms: N_6  and  C_7 
REMARK    3  A    between atoms: C_10  and  C_11 
REMARK    4  A    between atoms: C_11  and  N_12 
REMARK       I    between atoms: N_12  and  C_13 
REMARK       I    between atoms: C_13  and  N_14 
REMARK    5  A    between atoms: N_14  and  C_15 
ROOT
HETATM    1  C   UNL     1     -43.473  57.007 -55.468  1.00  0.00     0.035 A 
HETATM    2  C   UNL     1     -42.141  57.345 -55.232  1.00  0.00     0.030 A 
HETATM    3  C   UNL     1     -41.708  57.664 -53.941  1.00  0.00     0.011 A 
HETATM    4  C   UNL     1     -42.598  57.640 -52.861  1.00  0.00    -0.040 A 
HETATM    5  C   UNL     1     -43.947  57.366 -53.109  1.00  0.00     0.011 A 
HETATM    6  C   UNL     1     -44.379  57.053 -54.403  1.00  0.00     0.030 A 
ENDROOT
BRANCH   4   7
HETATM    7  C   UNL     1     -42.098  57.860 -51.462  1.00  0.00     0.162 C 
BRANCH   7   8
HETATM    8  N   UNL     1     -42.389  56.761 -50.574  1.00  0.00    -0.339 N 
HETATM    9  C   UNL     1     -42.108  55.433 -50.750  1.00  0.00     0.321 C 
HETATM   10  N   UNL     1     -41.485  55.125 -51.930  1.00  0.00    -0.306 N 
HETATM   11  O   UNL     1     -42.444  54.658 -49.863  1.00  0.00    -0.247 OA
HETATM   12  H   UNL     1     -41.499  55.852 -52.625  1.00  0.00     0.171 HD
HETATM   13  H   UNL     1     -42.832  56.958 -49.686  1.00  0.00     0.164 HD
BRANCH  10  14
HETATM   14  C   UNL     1     -40.952  53.891 -52.366  1.00  0.00     0.075 A 
HETATM   15  C   UNL     1     -40.049  53.080 -51.667  1.00  0.00     0.144 A 
HETATM   16  F   UNL     1     -39.546  53.428 -50.477  1.00  0.00    -0.204 F 
HETATM   17  C   UNL     1     -39.588  51.878 -52.210  1.00  0.00     0.063 A 
HETATM   18  C   UNL     1     -40.016  51.478 -53.471  1.00  0.00     0.014 A 
HETATM   19 BR   UNL     1     -39.388  49.858 -54.211  1.00  0.00    -0.051 Br
HETATM   20  C   UNL     1     -40.897  52.273 -54.195  1.00  0.00     0.021 A 
HETATM   21  C   UNL     1     -41.360  53.472 -53.645  1.00  0.00     0.034 A 
ENDBRANCH  10  14
ENDBRANCH   7   8
ENDBRANCH   4   7
BRANCH   1  22
HETATM   22  N   UNL     1     -43.965  56.573 -56.714  1.00  0.00    -0.321 N 
HETATM   23  C   UNL     1     -44.195  57.330 -57.852  1.00  0.00     0.279 C 
HETATM   24  O   UNL     1     -44.107  58.550 -57.928  1.00  0.00    -0.265 OA
HETATM   25  H   UNL     1     -44.083  55.574 -56.842  1.00  0.00     0.169 HD
BRANCH  23  26
HETATM   26  C   UNL     1     -44.531  56.512 -59.005  1.00  0.00     0.142 A 
HETATM   27  O   UNL     1     -45.721  56.716 -59.658  1.00  0.00    -0.317 OA
HETATM   28  C   UNL     1     -45.784  55.807 -60.666  1.00  0.00     0.143 A 
HETATM   29  C   UNL     1     -44.660  55.018 -60.676  1.00  0.00     0.027 A 
HETATM   30  C   UNL     1     -43.849  55.474 -59.610  1.00  0.00     0.045 A 
ENDBRANCH  23  26
ENDBRANCH   1  22
TORSDOF 5
ENDMDL
MODEL 2
REMARK VINA RESULT:      -8.5      6.014      9.007
REMARK  5 active torsions:
REMARK  status: ('A' for Active; 'I' for Inactive)
REMARK    1  A    between atoms: C_4  and  C_5 
REMARK       I    between atoms: C_5  and  N_6 
REMARK    2  A    between atoms: N_6  and  C_7 
REMARK    3  A    between atoms: C_10  and  C_11 
REMARK    4  A    between atoms: C_11  and  N_12 
REMARK       I    between atoms: N_12  and  C_13 
REMARK       I    between atoms: C_13  and  N_14 
REMARK    5  A    between atoms: N_14  and  C_15 
ROOT
HETATM    1  C   UNL     1     -41.493  55.065 -52.438  1.00  0.00     0.035 A 
HETATM    2  C   UNL     1     -42.472  55.213 -51.457  1.00  0.00     0.030 A 
HETATM    3  C   UNL     1     -42.975  56.479 -51.139  1.00  0.00     0.011 A 
HETATM    4  C   UNL     1     -42.512  57.620 -51.806  1.00  0.00    -0.040 A 
HETATM    5  C   UNL     1     -41.482  57.480 -52.743  1.00  0.00     0.011 A 
HETATM    6  C   UNL     1     -40.978  56.212 -53.054  1.00  0.00     0.030 A 
ENDROOT
BRANCH   4   7
HETATM    7  C   UNL     1     -43.146  58.957 -51.548  1.00  0.00     0.162 C 
BRANCH   7   8
HETATM    8  N   UNL     1     -44.567  58.876 -51.312  1.00  0.00    -0.339 N 
HETATM    9  C   UNL     1     -45.300  59.493 -50.335  1.00  0.00     0.321 C 
HETATM   10  N   UNL     1     -44.574  60.271 -49.472  1.00  0.00    -0.306 N 
HETATM   11  O   UNL     1     -46.507  59.289 -50.313  1.00  0.00    -0.247 OA
HETATM   12  H   UNL     1     -43.579  60.135 -49.506  1.00  0.00     0.171 HD
HETATM   13  H   UNL     1     -45.134  58.325 -51.944  1.00  0.00     0.164 HD
BRANCH  10  14
HETATM   14  C   UNL     1     -45.025  61.130 -48.444  1.00  0.00     0.075 A 
HETATM   15  C   UNL     1     -45.742  60.755 -47.300  1.00  0.00     0.144 A 
HETATM   16  F   UNL     1     -46.122  59.493 -47.075  1.00  0.00    -0.204 F 
HETATM   17  C   UNL     1     -46.138  61.703 -46.353  1.00  0.00     0.063 A 
HETATM   18  C   UNL     1     -45.834  63.046 -46.549  1.00  0.00     0.014 A 
HETATM   19 BR   UNL     1     -46.377  64.331 -45.276  1.00  0.00    -0.051 Br
HETATM   20  C   UNL     1     -45.142  63.449 -47.685  1.00  0.00     0.021 A 
HETATM   21  C   UNL     1     -44.741  62.495 -48.626  1.00  0.00     0.034 A 
ENDBRANCH  10  14
ENDBRANCH   7   8
ENDBRANCH   4   7
BRANCH   1  22
HETATM   22  N   UNL     1     -41.012  53.821 -52.889  1.00  0.00    -0.321 N 
HETATM   23  C   UNL     1     -40.130  52.965 -52.251  1.00  0.00     0.279 C 
HETATM   24  O   UNL     1     -39.525  53.207 -51.212  1.00  0.00    -0.265 OA
HETATM   25  H   UNL     1     -41.423  53.447 -53.737  1.00  0.00     0.169 HD
BRANCH  23  26
HETATM   26  C   UNL     1     -40.005  51.686 -52.930  1.00  0.00     0.142 A 
HETATM   27  O   UNL     1     -39.632  50.573 -52.218  1.00  0.00    -0.317 OA
HETATM   28  C   UNL     1     -39.570  49.540 -53.098  1.00  0.00     0.143 A 
HETATM   29  C   UNL     1     -39.892  49.962 -54.365  1.00  0.00     0.027 A 
HETATM   30  C   UNL     1     -40.178  51.344 -54.258  1.00  0.00     0.045 A 
ENDBRANCH  23  26
ENDBRANCH   1  22
TORSDOF 5
ENDMDL
MODEL 3
REMARK VINA RESULT:      -8.1      4.203      7.402
REMARK  5 active torsions:
REMARK  status: ('A' for Active; 'I' for Inactive)
REMARK    1  A    between atoms: C_4  and  C_5 
REMARK       I    between atoms: C_5  and  N_6 
REMARK    2  A    between atoms: N_6  and  C_7 
REMARK    3  A    between atoms: C_10  and  C_11 
REMARK    4  A    between atoms: C_11  and  N_12 
REMARK       I    between atoms: N_12  and  C_13 
REMARK       I    between atoms: C_13  and  N_14 
REMARK    5  A    between atoms: N_14  and  C_15 
ROOT
HETATM    1  C   UNL     1     -43.450  60.046 -50.668  1.00  0.00     0.035 A 
HETATM    2  C   UNL     1     -44.136  59.323 -51.643  1.00  0.00     0.030 A 
HETATM    3  C   UNL     1     -43.445  58.727 -52.703  1.00  0.00     0.011 A 
HETATM    4  C   UNL     1     -42.053  58.836 -52.801  1.00  0.00    -0.040 A 
HETATM    5  C   UNL     1     -41.372  59.617 -51.860  1.00  0.00     0.011 A 
HETATM    6  C   UNL     1     -42.067  60.216 -50.804  1.00  0.00     0.030 A 
ENDROOT
BRANCH   4   7
HETATM    7  C   UNL     1     -41.308  58.089 -53.870  1.00  0.00     0.162 C 
BRANCH   7   8
HETATM    8  N   UNL     1     -42.079  57.023 -54.461  1.00  0.00    -0.339 N 
HETATM    9  C   UNL     1     -41.926  55.673 -54.295  1.00  0.00     0.321 C 
HETATM   10  N   UNL     1     -40.895  55.306 -53.471  1.00  0.00    -0.306 N 
HETATM   11  O   UNL     1     -42.697  54.934 -54.893  1.00  0.00    -0.247 OA
HETATM   12  H   UNL     1     -40.236  56.034 -53.258  1.00  0.00     0.171 HD
HETATM   13  H   UNL     1     -42.860  57.262 -55.060  1.00  0.00     0.164 HD
BRANCH  10  14
HETATM   14  C   UNL     1     -40.542  54.023 -52.994  1.00  0.00     0.075 A 
HETATM   15  C   UNL     1     -40.139  52.928 -53.769  1.00  0.00     0.144 A 
HETATM   16  F   UNL     1     -40.082  52.978 -55.104  1.00  0.00    -0.204 F 
HETATM   17  C   UNL     1     -39.820  51.703 -53.178  1.00  0.00     0.063 A 
HETATM   18  C   UNL     1     -39.916  51.553 -51.799  1.00  0.00     0.014 A 
HETATM   19 BR   UNL     1     -39.495  49.896 -50.997  1.00  0.00    -0.051 Br
HETATM   20  C   UNL     1     -40.333  52.618 -51.007  1.00  0.00     0.021 A 
HETATM   21  C   UNL     1     -40.644  53.843 -51.603  1.00  0.00     0.034 A 
ENDBRANCH  10  14
ENDBRANCH   7   8
ENDBRANCH   4   7
BRANCH   1  22
HETATM   22  N   UNL     1     -44.056  60.585 -49.517  1.00  0.00    -0.321 N 
HETATM   23  C   UNL     1     -45.402  60.818 -49.291  1.00  0.00     0.279 C 
HETATM   24  O   UNL     1     -46.298  60.689 -50.118  1.00  0.00    -0.265 OA
HETATM   25  H   UNL     1     -43.460  60.740 -48.711  1.00  0.00     0.169 HD
BRANCH  23  26
HETATM   26  C   UNL     1     -45.676  61.212 -47.919  1.00  0.00     0.142 A 
HETATM   27  O   UNL     1     -46.878  61.799 -47.609  1.00  0.00    -0.317 OA
HETATM   28  C   UNL     1     -46.852  62.083 -46.281  1.00  0.00     0.143 A 
HETATM   29  C   UNL     1     -45.657  61.694 -45.726  1.00  0.00     0.027 A 
HETATM   30  C   UNL     1     -44.900  61.127 -46.779  1.00  0.00     0.045 A 
ENDBRANCH  23  26
ENDBRANCH   1  22
TORSDOF 5
ENDMDL
MODEL 4
REMARK VINA RESULT:      -8.0      4.356      9.330
REMARK  5 active torsions:
REMARK  status: ('A' for Active; 'I' for Inactive)
REMARK    1  A    between atoms: C_4  and  C_5 
REMARK       I    between atoms: C_5  and  N_6 
REMARK    2  A    between atoms: N_6  and  C_7 
REMARK    3  A    between atoms: C_10  and  C_11 
REMARK    4  A    between atoms: C_11  and  N_12 
REMARK       I    between atoms: N_12  and  C_13 
REMARK       I    between atoms: C_13  and  N_14 
REMARK    5  A    between atoms: N_14  and  C_15 
ROOT
HETATM    1  C   UNL     1     -41.377  54.130 -54.200  1.00  0.00     0.035 A 
HETATM    2  C   UNL     1     -42.427  53.974 -55.104  1.00  0.00     0.030 A 
HETATM    3  C   UNL     1     -42.831  55.040 -55.915  1.00  0.00     0.011 A 
HETATM    4  C   UNL     1     -42.183  56.279 -55.842  1.00  0.00    -0.040 A 
HETATM    5  C   UNL     1     -41.175  56.455 -54.888  1.00  0.00     0.011 A 
HETATM    6  C   UNL     1     -40.777  55.388 -54.075  1.00  0.00     0.030 A 
ENDROOT
BRANCH   4   7
HETATM    7  C   UNL     1     -42.540  57.378 -56.803  1.00  0.00     0.162 C 
BRANCH   7   8
HETATM    8  N   UNL     1     -42.254  57.045 -58.177  1.00  0.00    -0.339 N 
HETATM    9  C   UNL     1     -43.131  56.930 -59.221  1.00  0.00     0.321 C 
HETATM   10  N   UNL     1     -44.445  57.146 -58.899  1.00  0.00    -0.306 N 
HETATM   11  O   UNL     1     -42.675  56.637 -60.319  1.00  0.00    -0.247 OA
HETATM   12  H   UNL     1     -44.651  57.147 -57.915  1.00  0.00     0.171 HD
HETATM   13  H   UNL     1     -41.291  56.897 -58.451  1.00  0.00     0.164 HD
BRANCH  10  14
HETATM   14  C   UNL     1     -45.574  57.227 -59.745  1.00  0.00     0.075 A 
HETATM   15  C   UNL     1     -46.256  56.151 -60.327  1.00  0.00     0.144 A 
HETATM   16  F   UNL     1     -45.867  54.882 -60.163  1.00  0.00    -0.204 F 
HETATM   17  C   UNL     1     -47.363  56.360 -61.155  1.00  0.00     0.063 A 
HETATM   18  C   UNL     1     -47.792  57.655 -61.424  1.00  0.00     0.014 A 
HETATM   19 BR   UNL     1     -49.280  57.941 -62.550  1.00  0.00    -0.051 Br
HETATM   20  C   UNL     1     -47.120  58.742 -60.876  1.00  0.00     0.021 A 
HETATM   21  C   UNL     1     -46.018  58.527 -60.043  1.00  0.00     0.034 A 
ENDBRANCH  10  14
ENDBRANCH   7   8
ENDBRANCH   4   7
BRANCH   1  22
HETATM   22  N   UNL     1     -40.843  53.082 -53.427  1.00  0.00    -0.321 N 
HETATM   23  C   UNL     1     -40.517  53.094 -52.080  1.00  0.00     0.279 C 
HETATM   24  O   UNL     1     -40.542  54.078 -51.349  1.00  0.00    -0.265 OA
HETATM   25  H   UNL     1     -40.768  52.172 -53.870  1.00  0.00     0.169 HD
BRANCH  23  26
HETATM   26  C   UNL     1     -40.163  51.776 -51.581  1.00  0.00     0.142 A 
HETATM   27  O   UNL     1     -39.656  50.837 -52.446  1.00  0.00    -0.317 OA
HETATM   28  C   UNL     1     -39.442  49.706 -51.725  1.00  0.00     0.143 A 
HETATM   29  C   UNL     1     -39.803  49.893 -50.413  1.00  0.00     0.027 A 
HETATM   30  C   UNL     1     -40.263  51.228 -50.317  1.00  0.00     0.045 A 
ENDBRANCH  23  26
ENDBRANCH   1  22
TORSDOF 5
ENDMDL
MODEL 5
REMARK VINA RESULT:      -8.0     15.535     17.151
REMARK  5 active torsions:
REMARK  status: ('A' for Active; 'I' for Inactive)
REMARK    1  A    between atoms: C_4  and  C_5 
REMARK       I    between atoms: C_5  and  N_6 
REMARK    2  A    between atoms: N_6  and  C_7 
REMARK    3  A    between atoms: C_10  and  C_11 
REMARK    4  A    between atoms: C_11  and  N_12 
REMARK       I    between atoms: N_12  and  C_13 
REMARK       I    between atoms: C_13  and  N_14 
REMARK    5  A    between atoms: N_14  and  C_15 
ROOT
HETATM    1  C   UNL     1     -37.183  39.981 -59.332  1.00  0.00     0.035 A 
HETATM    2  C   UNL     1     -36.146  39.280 -58.717  1.00  0.00     0.030 A 
HETATM    3  C   UNL     1     -35.311  39.914 -57.791  1.00  0.00     0.011 A 
HETATM    4  C   UNL     1     -35.507  41.260 -57.457  1.00  0.00    -0.040 A 
HETATM    5  C   UNL     1     -36.504  41.980 -58.122  1.00  0.00     0.011 A 
HETATM    6  C   UNL     1     -37.334  41.344 -59.052  1.00  0.00     0.030 A 
ENDROOT
BRANCH   4   7
HETATM    7  C   UNL     1     -34.687  41.896 -56.370  1.00  0.00     0.162 C 
BRANCH   7   8
HETATM    8  N   UNL     1     -35.479  42.359 -55.258  1.00  0.00    -0.339 N 
HETATM    9  C   UNL     1     -35.366  42.019 -53.937  1.00  0.00     0.321 C 
HETATM   10  N   UNL     1     -34.380  41.111 -53.656  1.00  0.00    -0.306 N 
HETATM   11  O   UNL     1     -36.147  42.534 -53.147  1.00  0.00    -0.247 OA
HETATM   12  H   UNL     1     -33.999  40.632 -54.454  1.00  0.00     0.171 HD
HETATM   13  H   UNL     1     -36.204  43.045 -55.429  1.00  0.00     0.164 HD
BRANCH  10  14
HETATM   14  C   UNL     1     -33.920  40.646 -52.403  1.00  0.00     0.075 A 
HETATM   15  C   UNL     1     -34.706  40.115 -51.373  1.00  0.00     0.144 A 
HETATM   16  F   UNL     1     -36.037  40.026 -51.460  1.00  0.00    -0.204 F 
HETATM   17  C   UNL     1     -34.132  39.692 -50.171  1.00  0.00     0.063 A 
HETATM   18  C   UNL     1     -32.759  39.810 -49.980  1.00  0.00     0.014 A 
HETATM   19 BR   UNL     1     -31.981  39.249 -48.353  1.00  0.00    -0.051 Br
HETATM   20  C   UNL     1     -31.958  40.353 -50.978  1.00  0.00     0.021 A 
HETATM   21  C   UNL     1     -32.537  40.768 -52.181  1.00  0.00     0.034 A 
ENDBRANCH  10  14
ENDBRANCH   7   8
ENDBRANCH   4   7
BRANCH   1  22
HETATM   22  N   UNL     1     -38.129  39.391 -60.192  1.00  0.00    -0.321 N 
HETATM   23  C   UNL     1     -39.009  38.357 -59.913  1.00  0.00     0.279 C 
HETATM   24  O   UNL     1     -39.034  37.701 -58.878  1.00  0.00    -0.265 OA
HETATM   25  H   UNL     1     -38.262  39.823 -61.099  1.00  0.00     0.169 HD
BRANCH  23  26
HETATM   26  C   UNL     1     -39.964  38.135 -60.986  1.00  0.00     0.142 A 
HETATM   27  O   UNL     1     -41.308  38.138 -60.708  1.00  0.00    -0.317 OA
HETATM   28  C   UNL     1     -41.956  37.881 -61.874  1.00  0.00     0.143 A 
HETATM   29  C   UNL     1     -41.058  37.709 -62.899  1.00  0.00     0.027 A 
HETATM   30  C   UNL     1     -39.774  37.877 -62.330  1.00  0.00     0.045 A 
ENDBRANCH  23  26
ENDBRANCH   1  22
TORSDOF 5
ENDMDL
MODEL 6
REMARK VINA RESULT:      -7.9      3.179      4.794
REMARK  5 active torsions:
REMARK  status: ('A' for Active; 'I' for Inactive)
REMARK    1  A    between atoms: C_4  and  C_5 
REMARK       I    between atoms: C_5  and  N_6 
REMARK    2  A    between atoms: N_6  and  C_7 
REMARK    3  A    between atoms: C_10  and  C_11 
REMARK    4  A    between atoms: C_11  and  N_12 
REMARK       I    between atoms: N_12  and  C_13 
REMARK       I    between atoms: C_13  and  N_14 
REMARK    5  A    between atoms: N_14  and  C_15 
ROOT
HETATM    1  C   UNL     1     -42.486  54.724 -55.691  1.00  0.00     0.035 A 
HETATM    2  C   UNL     1     -41.099  54.845 -55.613  1.00  0.00     0.030 A 
HETATM    3  C   UNL     1     -40.419  54.485 -54.446  1.00  0.00     0.011 A 
HETATM    4  C   UNL     1     -41.114  53.987 -53.337  1.00  0.00    -0.040 A 
HETATM    5  C   UNL     1     -42.511  53.929 -53.391  1.00  0.00     0.011 A 
HETATM    6  C   UNL     1     -43.189  54.295 -54.559  1.00  0.00     0.030 A 
ENDROOT
BRANCH   4   7
HETATM    7  C   UNL     1     -40.365  53.485 -52.136  1.00  0.00     0.162 C 
BRANCH   7   8
HETATM    8  N   UNL     1     -41.055  53.730 -50.893  1.00  0.00    -0.339 N 
HETATM    9  C   UNL     1     -41.530  54.918 -50.407  1.00  0.00     0.321 C 
HETATM   10  N   UNL     1     -41.299  56.004 -51.209  1.00  0.00    -0.306 N 
HETATM   11  O   UNL     1     -42.092  54.905 -49.319  1.00  0.00    -0.247 OA
HETATM   12  H   UNL     1     -40.628  55.860 -51.944  1.00  0.00     0.171 HD
HETATM   13  H   UNL     1     -41.257  52.945 -50.286  1.00  0.00     0.164 HD
BRANCH  10  14
HETATM   14  C   UNL     1     -41.756  57.335 -51.070  1.00  0.00     0.075 A 
HETATM   15  C   UNL     1     -43.002  57.833 -51.473  1.00  0.00     0.144 A 
HETATM   16  F   UNL     1     -43.911  57.074 -52.093  1.00  0.00    -0.204 F 
HETATM   17  C   UNL     1     -43.337  59.176 -51.285  1.00  0.00     0.063 A 
HETATM   18  C   UNL     1     -42.419  60.044 -50.703  1.00  0.00     0.014 A 
HETATM   19 BR   UNL     1     -42.865  61.863 -50.457  1.00  0.00    -0.051 Br
HETATM   20  C   UNL     1     -41.168  59.581 -50.312  1.00  0.00     0.021 A 
HETATM   21  C   UNL     1     -40.841  58.234 -50.496  1.00  0.00     0.034 A 
ENDBRANCH  10  14
ENDBRANCH   7   8
ENDBRANCH   4   7
BRANCH   1  22
HETATM   22  N   UNL     1     -43.232  54.964 -56.860  1.00  0.00    -0.321 N 
HETATM   23  C   UNL     1     -43.231  56.098 -57.656  1.00  0.00     0.279 C 
HETATM   24  O   UNL     1     -42.646  57.146 -57.405  1.00  0.00    -0.265 OA
HETATM   25  H   UNL     1     -43.770  54.189 -57.233  1.00  0.00     0.169 HD
BRANCH  23  26
HETATM   26  C   UNL     1     -43.988  55.918 -58.883  1.00  0.00     0.142 A 
HETATM   27  O   UNL     1     -44.961  56.827 -59.219  1.00  0.00    -0.317 OA
HETATM   28  C   UNL     1     -45.517  56.403 -60.383  1.00  0.00     0.143 A 
HETATM   29  C   UNL     1     -44.927  55.237 -60.806  1.00  0.00     0.027 A 
HETATM   30  C   UNL     1     -43.937  54.926 -59.842  1.00  0.00     0.045 A 
ENDBRANCH  23  26
ENDBRANCH   1  22
TORSDOF 5
ENDMDL
MODEL 7
REMARK VINA RESULT:      -7.8     15.537     20.240
REMARK  5 active torsions:
REMARK  status: ('A' for Active; 'I' for Inactive)
REMARK    1  A    between atoms: C_4  and  C_5 
REMARK       I    between atoms: C_5  and  N_6 
REMARK    2  A    between atoms: N_6  and  C_7 
REMARK    3  A    between atoms: C_10  and  C_11 
REMARK    4  A    between atoms: C_11  and  N_12 
REMARK       I    between atoms: N_12  and  C_13 
REMARK       I    between atoms: C_13  and  N_14 
REMARK    5  A    between atoms: N_14  and  C_15 
ROOT
HETATM    1  C   UNL     1     -31.959  39.123 -48.150  1.00  0.00     0.035 A 
HETATM    2  C   UNL     1     -31.710  39.893 -49.286  1.00  0.00     0.030 A 
HETATM    3  C   UNL     1     -32.692  40.047 -50.270  1.00  0.00     0.011 A 
HETATM    4  C   UNL     1     -33.946  39.441 -50.129  1.00  0.00    -0.040 A 
HETATM    5  C   UNL     1     -34.173  38.615 -49.023  1.00  0.00     0.011 A 
HETATM    6  C   UNL     1     -33.186  38.458 -48.044  1.00  0.00     0.030 A 
ENDROOT
BRANCH   4   7
HETATM    7  C   UNL     1     -35.035  39.714 -51.127  1.00  0.00     0.162 C 
BRANCH   7   8
HETATM    8  N   UNL     1     -35.208  41.118 -51.409  1.00  0.00    -0.339 N 
HETATM    9  C   UNL     1     -35.418  41.720 -52.620  1.00  0.00     0.321 C 
HETATM   10  N   UNL     1     -35.449  40.867 -53.692  1.00  0.00    -0.306 N 
HETATM   11  O   UNL     1     -35.541  42.938 -52.638  1.00  0.00    -0.247 OA
HETATM   12  H   UNL     1     -35.102  39.940 -53.512  1.00  0.00     0.171 HD
HETATM   13  H   UNL     1     -35.209  41.773 -50.636  1.00  0.00     0.164 HD
BRANCH  10  14
HETATM   14  C   UNL     1     -35.762  41.136 -55.043  1.00  0.00     0.075 A 
HETATM   15  C   UNL     1     -34.849  41.284 -56.096  1.00  0.00     0.144 A 
HETATM   16  F   UNL     1     -33.526  41.220 -55.911  1.00  0.00    -0.204 F 
HETATM   17  C   UNL     1     -35.284  41.556 -57.395  1.00  0.00     0.063 A 
HETATM   18  C   UNL     1     -36.642  41.699 -57.656  1.00  0.00     0.014 A 
HETATM   19 BR   UNL     1     -37.233  42.077 -59.410  1.00  0.00    -0.051 Br
HETATM   20  C   UNL     1     -37.569  41.578 -56.626  1.00  0.00     0.021 A 
HETATM   21  C   UNL     1     -37.129  41.299 -55.329  1.00  0.00     0.034 A 
ENDBRANCH  10  14
ENDBRANCH   7   8
ENDBRANCH   4   7
BRANCH   1  22
HETATM   22  N   UNL     1     -31.066  39.005 -47.069  1.00  0.00    -0.321 N 
HETATM   23  C   UNL     1     -30.332  40.006 -46.454  1.00  0.00     0.279 C 
HETATM   24  O   UNL     1     -30.258  41.171 -46.831  1.00  0.00    -0.265 OA
HETATM   25  H   UNL     1     -31.011  38.102 -46.611  1.00  0.00     0.169 HD
BRANCH  23  26
HETATM   26  C   UNL     1     -29.657  39.545 -45.253  1.00  0.00     0.142 A 
HETATM   27  O   UNL     1     -28.356  39.918 -45.020  1.00  0.00    -0.317 OA
HETATM   28  C   UNL     1     -27.975  39.329 -43.857  1.00  0.00     0.143 A 
HETATM   29  C   UNL     1     -29.002  38.580 -43.334  1.00  0.00     0.027 A 
HETATM   30  C   UNL     1     -30.088  38.722 -44.230  1.00  0.00     0.045 A 
ENDBRANCH  23  26
ENDBRANCH   1  22
TORSDOF 5
ENDMDL
MODEL 8
REMARK VINA RESULT:      -7.8     15.521     19.091
REMARK  5 active torsions:
REMARK  status: ('A' for Active; 'I' for Inactive)
REMARK    1  A    between atoms: C_4  and  C_5 
REMARK       I    between atoms: C_5  and  N_6 
REMARK    2  A    between atoms: N_6  and  C_7 
REMARK    3  A    between atoms: C_10  and  C_11 
REMARK    4  A    between atoms: C_11  and  N_12 
REMARK       I    between atoms: N_12  and  C_13 
REMARK       I    between atoms: C_13  and  N_14 
REMARK    5  A    between atoms: N_14  and  C_15 
ROOT
HETATM    1  C   UNL     1     -34.294  40.202 -50.533  1.00  0.00     0.035 A 
HETATM    2  C   UNL     1     -35.183  39.355 -51.193  1.00  0.00     0.030 A 
HETATM    3  C   UNL     1     -35.969  39.831 -52.247  1.00  0.00     0.011 A 
HETATM    4  C   UNL     1     -35.871  41.164 -52.666  1.00  0.00    -0.040 A 
HETATM    5  C   UNL     1     -35.029  42.030 -51.961  1.00  0.00     0.011 A 
HETATM    6  C   UNL     1     -34.248  41.551 -50.903  1.00  0.00     0.030 A 
ENDROOT
BRANCH   4   7
HETATM    7  C   UNL     1     -36.624  41.634 -53.878  1.00  0.00     0.162 C 
BRANCH   7   8
HETATM    8  N   UNL     1     -35.784  42.286 -54.853  1.00  0.00    -0.339 N 
HETATM    9  C   UNL     1     -35.693  42.037 -56.196  1.00  0.00     0.321 C 
HETATM   10  N   UNL     1     -36.499  41.028 -56.652  1.00  0.00    -0.306 N 
HETATM   11  O   UNL     1     -34.909  42.713 -56.848  1.00  0.00    -0.247 OA
HETATM   12  H   UNL     1     -36.897  40.441 -55.939  1.00  0.00     0.171 HD
HETATM   13  H   UNL     1     -35.190  43.048 -54.550  1.00  0.00     0.164 HD
BRANCH  10  14
HETATM   14  C   UNL     1     -36.740  40.603 -57.979  1.00  0.00     0.075 A 
HETATM   15  C   UNL     1     -37.134  41.412 -59.053  1.00  0.00     0.144 A 
HETATM   16  F   UNL     1     -37.370  42.721 -58.915  1.00  0.00    -0.204 F 
HETATM   17  C   UNL     1     -37.346  40.871 -60.323  1.00  0.00     0.063 A 
HETATM   18  C   UNL     1     -37.182  39.506 -60.532  1.00  0.00     0.014 A 
HETATM   19 BR   UNL     1     -37.479  38.770 -62.246  1.00  0.00    -0.051 Br
HETATM   20  C   UNL     1     -36.811  38.678 -59.479  1.00  0.00     0.021 A 
HETATM   21  C   UNL     1     -36.592  39.225 -58.211  1.00  0.00     0.034 A 
ENDBRANCH  10  14
ENDBRANCH   7   8
ENDBRANCH   4   7
BRANCH   1  22
HETATM   22  N   UNL     1     -33.395  39.776 -49.536  1.00  0.00    -0.321 N 
HETATM   23  C   UNL     1     -32.010  39.798 -49.569  1.00  0.00     0.279 C 
HETATM   24  O   UNL     1     -31.324  40.100 -50.540  1.00  0.00    -0.265 OA
HETATM   25  H   UNL     1     -33.791  39.505 -48.643  1.00  0.00     0.169 HD
BRANCH  23  26
HETATM   26  C   UNL     1     -31.417  39.451 -48.289  1.00  0.00     0.142 A 
HETATM   27  O   UNL     1     -30.141  39.864 -47.999  1.00  0.00    -0.317 OA
HETATM   28  C   UNL     1     -29.836  39.383 -46.766  1.00  0.00     0.143 A 
HETATM   29  C   UNL     1     -30.889  38.663 -46.254  1.00  0.00     0.027 A 
HETATM   30  C   UNL     1     -31.911  38.711 -47.232  1.00  0.00     0.045 A 
ENDBRANCH  23  26
ENDBRANCH   1  22
TORSDOF 5
ENDMDL
MODEL 9
REMARK VINA RESULT:      -7.8      1.818      2.138
REMARK  5 active torsions:
REMARK  status: ('A' for Active; 'I' for Inactive)
REMARK    1  A    between atoms: C_4  and  C_5 
REMARK       I    between atoms: C_5  and  N_6 
REMARK    2  A    between atoms: N_6  and  C_7 
REMARK    3  A    between atoms: C_10  and  C_11 
REMARK    4  A    between atoms: C_11  and  N_12 
REMARK       I    between atoms: N_12  and  C_13 
REMARK       I    between atoms: C_13  and  N_14 
REMARK    5  A    between atoms: N_14  and  C_15 
ROOT
HETATM    1  C   UNL     1     -44.241  57.914 -55.394  1.00  0.00     0.035 A 
HETATM    2  C   UNL     1     -43.483  59.040 -55.075  1.00  0.00     0.030 A 
HETATM    3  C   UNL     1     -43.324  59.435 -53.743  1.00  0.00     0.011 A 
HETATM    4  C   UNL     1     -43.914  58.704 -52.705  1.00  0.00    -0.040 A 
HETATM    5  C   UNL     1     -44.729  57.614 -53.029  1.00  0.00     0.011 A 
HETATM    6  C   UNL     1     -44.890  57.225 -54.364  1.00  0.00     0.030 A 
ENDROOT
BRANCH   4   7
HETATM    7  C   UNL     1     -43.635  59.061 -51.273  1.00  0.00     0.162 C 
BRANCH   7   8
HETATM    8  N   UNL     1     -42.229  59.056 -50.949  1.00  0.00    -0.339 N 
HETATM    9  C   UNL     1     -41.387  57.982 -50.849  1.00  0.00     0.321 C 
HETATM   10  N   UNL     1     -41.973  56.765 -51.073  1.00  0.00    -0.306 N 
HETATM   11  O   UNL     1     -40.217  58.201 -50.562  1.00  0.00    -0.247 OA
HETATM   12  H   UNL     1     -42.979  56.765 -51.067  1.00  0.00     0.171 HD
HETATM   13  H   UNL     1     -41.762  59.941 -50.797  1.00  0.00     0.164 HD
BRANCH  10  14
HETATM   14  C   UNL     1     -41.377  55.486 -51.169  1.00  0.00     0.075 A 
HETATM   15  C   UNL     1     -40.909  54.705 -50.105  1.00  0.00     0.144 A 
HETATM   16  F   UNL     1     -40.946  55.125 -48.836  1.00  0.00    -0.204 F 
HETATM   17  C   UNL     1     -40.331  53.452 -50.330  1.00  0.00     0.063 A 
HETATM   18  C   UNL     1     -40.200  52.972 -51.628  1.00  0.00     0.014 A 
HETATM   19 BR   UNL     1     -39.410  51.284 -51.935  1.00  0.00    -0.051 Br
HETATM   20  C   UNL     1     -40.638  53.736 -52.704  1.00  0.00     0.021 A 
HETATM   21  C   UNL     1     -41.222  54.986 -52.473  1.00  0.00     0.034 A 
ENDBRANCH  10  14
ENDBRANCH   7   8
ENDBRANCH   4   7
BRANCH   1  22
HETATM   22  N   UNL     1     -44.362  57.391 -56.696  1.00  0.00    -0.321 N 
HETATM   23  C   UNL     1     -43.420  56.682 -57.422  1.00  0.00     0.279 C 
HETATM   24  O   UNL     1     -42.259  56.481 -57.082  1.00  0.00    -0.265 OA
HETATM   25  H   UNL     1     -45.275  57.450 -57.135  1.00  0.00     0.169 HD
BRANCH  23  26
HETATM   26  C   UNL     1     -43.960  56.143 -58.659  1.00  0.00     0.142 A 
HETATM   27  O   UNL     1     -43.975  54.784 -58.857  1.00  0.00    -0.317 OA
HETATM   28  C   UNL     1     -44.502  54.568 -60.091  1.00  0.00     0.143 A 
HETATM   29  C   UNL     1     -44.824  55.758 -60.695  1.00  0.00     0.027 A 
HETATM   30  C   UNL     1     -44.481  56.775 -59.772  1.00  0.00     0.045 A 
ENDBRANCH  23  26
ENDBRANCH   1  22
TORSDOF 5
ENDMDL
MODEL 10
REMARK VINA RESULT:      -7.4     15.516     17.304
REMARK  5 active torsions:
REMARK  status: ('A' for Active; 'I' for Inactive)
REMARK    1  A    between atoms: C_4  and  C_5 
REMARK       I    between atoms: C_5  and  N_6 
REMARK    2  A    between atoms: N_6  and  C_7 
REMARK    3  A    between atoms: C_10  and  C_11 
REMARK    4  A    between atoms: C_11  and  N_12 
REMARK       I    between atoms: N_12  and  C_13 
REMARK       I    between atoms: C_13  and  N_14 
REMARK    5  A    between atoms: N_14  and  C_15 
ROOT
HETATM    1  C   UNL     1     -36.613  40.070 -59.012  1.00  0.00     0.035 A 
HETATM    2  C   UNL     1     -36.851  41.434 -58.848  1.00  0.00     0.030 A 
HETATM    3  C   UNL     1     -36.252  42.139 -57.800  1.00  0.00     0.011 A 
HETATM    4  C   UNL     1     -35.394  41.493 -56.902  1.00  0.00    -0.040 A 
HETATM    5  C   UNL     1     -35.208  40.112 -57.025  1.00  0.00     0.011 A 
HETATM    6  C   UNL     1     -35.814  39.408 -58.072  1.00  0.00     0.030 A 
ENDROOT
BRANCH   4   7
HETATM    7  C   UNL     1     -34.657  42.282 -55.857  1.00  0.00     0.162 C 
BRANCH   7   8
HETATM    8  N   UNL     1     -35.465  42.591 -54.703  1.00  0.00    -0.339 N 
HETATM    9  C   UNL     1     -35.351  42.096 -53.432  1.00  0.00     0.321 C 
HETATM   10  N   UNL     1     -34.346  41.182 -53.255  1.00  0.00    -0.306 N 
HETATM   11  O   UNL     1     -36.147  42.495 -52.592  1.00  0.00    -0.247 OA
HETATM   12  H   UNL     1     -33.950  40.811 -54.102  1.00  0.00     0.171 HD
HETATM   13  H   UNL     1     -36.204  43.276 -54.796  1.00  0.00     0.164 HD
BRANCH  10  14
HETATM   14  C   UNL     1     -33.882  40.579 -52.064  1.00  0.00     0.075 A 
HETATM   15  C   UNL     1     -32.590  40.678 -51.530  1.00  0.00     0.144 A 
HETATM   16  F   UNL     1     -31.611  41.353 -52.142  1.00  0.00    -0.204 F 
HETATM   17  C   UNL     1     -32.249  40.028 -50.342  1.00  0.00     0.063 A 
HETATM   18  C   UNL     1     -33.195  39.255 -49.679  1.00  0.00     0.014 A 
HETATM   19 BR   UNL     1     -32.735  38.366 -48.077  1.00  0.00    -0.051 Br
HETATM   20  C   UNL     1     -34.479  39.123 -50.197  1.00  0.00     0.021 A 
HETATM   21  C   UNL     1     -34.817  39.782 -51.383  1.00  0.00     0.034 A 
ENDBRANCH  10  14
ENDBRANCH   7   8
ENDBRANCH   4   7
BRANCH   1  22
HETATM   22  N   UNL     1     -37.092  39.312 -60.098  1.00  0.00    -0.321 N 
HETATM   23  C   UNL     1     -38.341  38.733 -60.250  1.00  0.00     0.279 C 
HETATM   24  O   UNL     1     -39.219  38.695 -59.395  1.00  0.00    -0.265 OA
HETATM   25  H   UNL     1     -36.497  39.252 -60.917  1.00  0.00     0.169 HD
BRANCH  23  26
HETATM   26  C   UNL     1     -38.542  38.183 -61.580  1.00  0.00     0.142 A 
HETATM   27  O   UNL     1     -37.545  38.296 -62.517  1.00  0.00    -0.317 OA
HETATM   28  C   UNL     1     -38.007  37.726 -63.661  1.00  0.00     0.143 A 
HETATM   29  C   UNL     1     -39.284  37.251 -63.483  1.00  0.00     0.027 A 
HETATM   30  C   UNL     1     -39.628  37.540 -62.141  1.00  0.00     0.045 A 
ENDBRANCH  23  26
ENDBRANCH   1  22
TORSDOF 5
ENDMDL
