MODEL 1
REMARK VINA RESULT:      -7.9      0.000      0.000
REMARK  6 active torsions:
REMARK  status: ('A' for Active; 'I' for Inactive)
REMARK    1  A    between atoms: C_2  and  O_3 
REMARK    2  A    between atoms: O_3  and  C_4 
REMARK    3  A    between atoms: C_7  and  C_8 
REMARK    4  A    between atoms: C_8  and  N_9 
REMARK       I    between atoms: N_9  and  C_10 
REMARK    5  A    between atoms: C_10  and  C_11 
REMARK    6  A    between atoms: C_15  and  C_16 
ROOT
HETATM    1  N   UNL     1     -42.282  56.226 -57.049  1.00  0.00    -0.347 N 
HETATM    2  C   UNL     1     -42.753  56.200 -55.753  1.00  0.00     0.272 C 
HETATM    3  O   UNL     1     -43.778  56.771 -55.391  1.00  0.00    -0.266 OA
HETATM    4  H   UNL     1     -41.480  55.630 -57.226  1.00  0.00     0.163 HD
ENDROOT
BRANCH   2   5
HETATM    5  C   UNL     1     -41.951  55.366 -54.845  1.00  0.00     0.146 A 
HETATM    6  N   UNL     1     -41.078  55.884 -53.958  1.00  0.00    -0.169 NA
HETATM    7  N   UNL     1     -40.515  54.797 -53.392  1.00  0.00    -0.277 N 
HETATM    8  H   UNL     1     -39.790  54.943 -52.699  1.00  0.00     0.189 HD
HETATM    9  C   UNL     1     -40.974  53.599 -53.875  1.00  0.00     0.063 A 
HETATM   10  C   UNL     1     -41.926  53.950 -54.811  1.00  0.00     0.071 A 
BRANCH   9  11
HETATM   11  C   UNL     1     -40.460  52.290 -53.468  1.00  0.00    -0.008 A 
HETATM   12  C   UNL     1     -40.454  51.196 -54.344  1.00  0.00     0.014 A 
HETATM   13  C   UNL     1     -39.969  49.951 -53.927  1.00  0.00     0.001 A 
HETATM   14  C   UNL     1     -39.485  49.786 -52.632  1.00  0.00     0.000 A 
HETATM   15  C   UNL     1     -39.478  50.863 -51.752  1.00  0.00     0.001 A 
HETATM   16  C   UNL     1     -39.961  52.107 -52.169  1.00  0.00     0.014 A 
ENDBRANCH   9  11
ENDBRANCH   2   5
BRANCH   1  17
HETATM   17  C   UNL     1     -43.128  56.670 -58.136  1.00  0.00     0.114 C 
HETATM   18  C   UNL     1     -43.308  55.555 -59.173  1.00  0.00     0.037 C 
BRANCH  17  19
HETATM   19  C   UNL     1     -42.602  57.932 -58.795  1.00  0.00    -0.036 A 
HETATM   20  C   UNL     1     -42.380  58.018 -60.177  1.00  0.00     0.012 A 
HETATM   21  C   UNL     1     -41.984  59.225 -60.769  1.00  0.00     0.037 A 
HETATM   22  C   UNL     1     -41.813  60.367 -59.987  1.00  0.00     0.068 A 
HETATM   23  C   UNL     1     -41.996  60.281 -58.607  1.00  0.00     0.037 A 
HETATM   24  C   UNL     1     -42.389  59.079 -58.015  1.00  0.00     0.012 A 
BRANCH  22  25
HETATM   25  O   UNL     1     -41.470  61.609 -60.442  1.00  0.00    -0.352 OA
BRANCH  25  26
HETATM   26  C   UNL     1     -41.017  62.548 -59.467  1.00  0.00     0.171 C 
HETATM   27  C   UNL     1     -39.601  62.955 -59.834  1.00  0.00     0.034 C 
ENDBRANCH  25  26
ENDBRANCH  22  25
ENDBRANCH  17  19
ENDBRANCH   1  17
TORSDOF 6
ENDMDL
MODEL 2
REMARK VINA RESULT:      -7.5      4.746      6.720
REMARK  6 active torsions:
REMARK  status: ('A' for Active; 'I' for Inactive)
REMARK    1  A    between atoms: C_2  and  O_3 
REMARK    2  A    between atoms: O_3  and  C_4 
REMARK    3  A    between atoms: C_7  and  C_8 
REMARK    4  A    between atoms: C_8  and  N_9 
REMARK       I    between atoms: N_9  and  C_10 
REMARK    5  A    between atoms: C_10  and  C_11 
REMARK    6  A    between atoms: C_15  and  C_16 
ROOT
HETATM    1  N   UNL     1     -42.297  57.756 -53.254  1.00  0.00    -0.347 N 
HETATM    2  C   UNL     1     -42.795  56.583 -53.783  1.00  0.00     0.272 C 
HETATM    3  O   UNL     1     -43.952  56.451 -54.172  1.00  0.00    -0.266 OA
HETATM    4  H   UNL     1     -41.300  57.752 -53.067  1.00  0.00     0.163 HD
ENDROOT
BRANCH   2   5
HETATM    5  C   UNL     1     -41.795  55.512 -53.904  1.00  0.00     0.146 A 
HETATM    6  N   UNL     1     -40.760  55.573 -54.765  1.00  0.00    -0.169 NA
HETATM    7  N   UNL     1     -40.145  54.384 -54.610  1.00  0.00    -0.277 N 
HETATM    8  H   UNL     1     -39.337  54.186 -55.190  1.00  0.00     0.189 HD
HETATM    9  C   UNL     1     -40.735  53.549 -53.696  1.00  0.00     0.063 A 
HETATM   10  C   UNL     1     -41.804  54.276 -53.210  1.00  0.00     0.071 A 
BRANCH   9  11
HETATM   11  C   UNL     1     -40.291  52.183 -53.413  1.00  0.00    -0.008 A 
HETATM   12  C   UNL     1     -40.254  51.199 -54.410  1.00  0.00     0.014 A 
HETATM   13  C   UNL     1     -39.838  49.897 -54.113  1.00  0.00     0.001 A 
HETATM   14  C   UNL     1     -39.453  49.563 -52.817  1.00  0.00     0.000 A 
HETATM   15  C   UNL     1     -39.478  50.530 -51.817  1.00  0.00     0.001 A 
HETATM   16  C   UNL     1     -39.893  51.831 -52.115  1.00  0.00     0.014 A 
ENDBRANCH   9  11
ENDBRANCH   2   5
BRANCH   1  17
HETATM   17  C   UNL     1     -43.016  59.002 -53.408  1.00  0.00     0.114 C 
HETATM   18  C   UNL     1     -42.074  60.116 -53.879  1.00  0.00     0.037 C 
BRANCH  17  19
HETATM   19  C   UNL     1     -43.734  59.412 -52.135  1.00  0.00    -0.036 A 
HETATM   20  C   UNL     1     -43.197  60.351 -51.243  1.00  0.00     0.012 A 
HETATM   21  C   UNL     1     -43.926  60.780 -50.124  1.00  0.00     0.037 A 
HETATM   22  C   UNL     1     -45.206  60.281 -49.888  1.00  0.00     0.068 A 
HETATM   23  C   UNL     1     -45.732  59.319 -50.751  1.00  0.00     0.037 A 
HETATM   24  C   UNL     1     -45.008  58.889 -51.864  1.00  0.00     0.012 A 
BRANCH  22  25
HETATM   25  O   UNL     1     -46.034  60.643 -48.863  1.00  0.00    -0.352 OA
BRANCH  25  26
HETATM   26  C   UNL     1     -45.445  61.373 -47.787  1.00  0.00     0.171 C 
HETATM   27  C   UNL     1     -45.688  60.596 -46.506  1.00  0.00     0.034 C 
ENDBRANCH  25  26
ENDBRANCH  22  25
ENDBRANCH  17  19
ENDBRANCH   1  17
TORSDOF 6
ENDMDL
MODEL 3
REMARK VINA RESULT:      -7.4      5.410      7.388
REMARK  6 active torsions:
REMARK  status: ('A' for Active; 'I' for Inactive)
REMARK    1  A    between atoms: C_2  and  O_3 
REMARK    2  A    between atoms: O_3  and  C_4 
REMARK    3  A    between atoms: C_7  and  C_8 
REMARK    4  A    between atoms: C_8  and  N_9 
REMARK       I    between atoms: N_9  and  C_10 
REMARK    5  A    between atoms: C_10  and  C_11 
REMARK    6  A    between atoms: C_15  and  C_16 
ROOT
HETATM    1  N   UNL     1     -41.971  57.731 -51.543  1.00  0.00    -0.347 N 
HETATM    2  C   UNL     1     -41.390  57.004 -52.562  1.00  0.00     0.272 C 
HETATM    3  O   UNL     1     -41.041  57.494 -53.632  1.00  0.00    -0.266 OA
HETATM    4  H   UNL     1     -42.117  57.218 -50.680  1.00  0.00     0.163 HD
ENDROOT
BRANCH   2   5
HETATM    5  C   UNL     1     -41.162  55.590 -52.229  1.00  0.00     0.146 A 
HETATM    6  N   UNL     1     -41.146  55.131 -50.962  1.00  0.00    -0.169 NA
HETATM    7  N   UNL     1     -40.838  53.826 -51.099  1.00  0.00    -0.277 N 
HETATM    8  H   UNL     1     -40.740  53.269 -50.258  1.00  0.00     0.189 HD
HETATM    9  C   UNL     1     -40.644  53.417 -52.393  1.00  0.00     0.063 A 
HETATM   10  C   UNL     1     -40.870  54.551 -53.148  1.00  0.00     0.071 A 
BRANCH   9  11
HETATM   11  C   UNL     1     -40.230  52.068 -52.782  1.00  0.00    -0.008 A 
HETATM   12  C   UNL     1     -39.710  51.159 -51.851  1.00  0.00     0.014 A 
HETATM   13  C   UNL     1     -39.310  49.879 -52.249  1.00  0.00     0.001 A 
HETATM   14  C   UNL     1     -39.426  49.492 -53.582  1.00  0.00     0.000 A 
HETATM   15  C   UNL     1     -39.946  50.379 -54.518  1.00  0.00     0.001 A 
HETATM   16  C   UNL     1     -40.347  51.658 -54.119  1.00  0.00     0.014 A 
ENDBRANCH   9  11
ENDBRANCH   2   5
BRANCH   1  17
HETATM   17  C   UNL     1     -41.925  59.177 -51.545  1.00  0.00     0.114 C 
HETATM   18  C   UNL     1     -40.654  59.680 -50.850  1.00  0.00     0.037 C 
BRANCH  17  19
HETATM   19  C   UNL     1     -43.159  59.793 -50.911  1.00  0.00    -0.036 A 
HETATM   20  C   UNL     1     -44.434  59.223 -51.049  1.00  0.00     0.012 A 
HETATM   21  C   UNL     1     -45.539  59.761 -50.375  1.00  0.00     0.037 A 
HETATM   22  C   UNL     1     -45.383  60.871 -49.546  1.00  0.00     0.068 A 
HETATM   23  C   UNL     1     -44.126  61.466 -49.434  1.00  0.00     0.037 A 
HETATM   24  C   UNL     1     -43.024  60.933 -50.105  1.00  0.00     0.012 A 
BRANCH  22  25
HETATM   25  O   UNL     1     -46.365  61.466 -48.805  1.00  0.00    -0.352 OA
BRANCH  25  26
HETATM   26  C   UNL     1     -45.987  61.972 -47.525  1.00  0.00     0.171 C 
HETATM   27  C   UNL     1     -46.375  60.940 -46.482  1.00  0.00     0.034 C 
ENDBRANCH  25  26
ENDBRANCH  22  25
ENDBRANCH  17  19
ENDBRANCH   1  17
TORSDOF 6
ENDMDL
MODEL 4
REMARK VINA RESULT:      -7.4      3.124      3.966
REMARK  6 active torsions:
REMARK  status: ('A' for Active; 'I' for Inactive)
REMARK    1  A    between atoms: C_2  and  O_3 
REMARK    2  A    between atoms: O_3  and  C_4 
REMARK    3  A    between atoms: C_7  and  C_8 
REMARK    4  A    between atoms: C_8  and  N_9 
REMARK       I    between atoms: N_9  and  C_10 
REMARK    5  A    between atoms: C_10  and  C_11 
REMARK    6  A    between atoms: C_15  and  C_16 
ROOT
HETATM    1  N   UNL     1     -42.686  56.666 -54.568  1.00  0.00    -0.347 N 
HETATM    2  C   UNL     1     -41.626  56.810 -53.697  1.00  0.00     0.272 C 
HETATM    3  O   UNL     1     -41.070  57.882 -53.474  1.00  0.00    -0.266 OA
HETATM    4  H   UNL     1     -43.110  55.744 -54.579  1.00  0.00     0.163 HD
ENDROOT
BRANCH   2   5
HETATM    5  C   UNL     1     -41.256  55.569 -53.000  1.00  0.00     0.146 A 
HETATM    6  N   UNL     1     -41.014  55.519 -51.675  1.00  0.00    -0.169 NA
HETATM    7  N   UNL     1     -40.645  54.240 -51.465  1.00  0.00    -0.277 N 
HETATM    8  H   UNL     1     -40.381  53.969 -50.525  1.00  0.00     0.189 HD
HETATM    9  C   UNL     1     -40.627  53.458 -52.591  1.00  0.00     0.063 A 
HETATM   10  C   UNL     1     -41.042  54.303 -53.601  1.00  0.00     0.071 A 
BRANCH   9  11
HETATM   11  C   UNL     1     -40.190  52.061 -52.622  1.00  0.00    -0.008 A 
HETATM   12  C   UNL     1     -40.104  51.343 -53.823  1.00  0.00     0.014 A 
HETATM   13  C   UNL     1     -39.696  50.005 -53.827  1.00  0.00     0.001 A 
HETATM   14  C   UNL     1     -39.369  49.369 -52.632  1.00  0.00     0.000 A 
HETATM   15  C   UNL     1     -39.443  50.070 -51.432  1.00  0.00     0.001 A 
HETATM   16  C   UNL     1     -39.850  51.407 -51.429  1.00  0.00     0.014 A 
ENDBRANCH   9  11
ENDBRANCH   2   5
BRANCH   1  17
HETATM   17  C   UNL     1     -43.416  57.822 -55.043  1.00  0.00     0.114 C 
HETATM   18  C   UNL     1     -44.512  58.218 -54.048  1.00  0.00     0.037 C 
BRANCH  17  19
HETATM   19  C   UNL     1     -44.005  57.601 -56.425  1.00  0.00    -0.036 A 
HETATM   20  C   UNL     1     -45.143  58.288 -56.872  1.00  0.00     0.012 A 
HETATM   21  C   UNL     1     -45.607  58.133 -58.186  1.00  0.00     0.037 A 
HETATM   22  C   UNL     1     -44.934  57.295 -59.073  1.00  0.00     0.068 A 
HETATM   23  C   UNL     1     -43.823  56.580 -58.626  1.00  0.00     0.037 A 
HETATM   24  C   UNL     1     -43.360  56.731 -57.318  1.00  0.00     0.012 A 
BRANCH  22  25
HETATM   25  O   UNL     1     -45.257  57.087 -60.385  1.00  0.00    -0.352 OA
BRANCH  25  26
HETATM   26  C   UNL     1     -46.070  55.950 -60.675  1.00  0.00     0.171 C 
HETATM   27  C   UNL     1     -47.454  56.449 -61.048  1.00  0.00     0.034 C 
ENDBRANCH  25  26
ENDBRANCH  22  25
ENDBRANCH  17  19
ENDBRANCH   1  17
TORSDOF 6
ENDMDL
MODEL 5
REMARK VINA RESULT:      -7.4      5.709      9.784
REMARK  6 active torsions:
REMARK  status: ('A' for Active; 'I' for Inactive)
REMARK    1  A    between atoms: C_2  and  O_3 
REMARK    2  A    between atoms: O_3  and  C_4 
REMARK    3  A    between atoms: C_7  and  C_8 
REMARK    4  A    between atoms: C_8  and  N_9 
REMARK       I    between atoms: N_9  and  C_10 
REMARK    5  A    between atoms: C_10  and  C_11 
REMARK    6  A    between atoms: C_15  and  C_16 
ROOT
HETATM    1  N   UNL     1     -41.417  57.335 -52.843  1.00  0.00    -0.347 N 
HETATM    2  C   UNL     1     -40.912  58.613 -52.725  1.00  0.00     0.272 C 
HETATM    3  O   UNL     1     -40.124  59.109 -53.525  1.00  0.00    -0.266 OA
HETATM    4  H   UNL     1     -42.133  57.093 -52.166  1.00  0.00     0.163 HD
ENDROOT
BRANCH   2   5
HETATM    5  C   UNL     1     -41.453  59.364 -51.583  1.00  0.00     0.146 A 
HETATM    6  N   UNL     1     -41.132  59.083 -50.304  1.00  0.00    -0.169 NA
HETATM    7  N   UNL     1     -41.886  59.940 -49.589  1.00  0.00    -0.277 N 
HETATM    8  H   UNL     1     -41.832  59.892 -48.578  1.00  0.00     0.189 HD
HETATM    9  C   UNL     1     -42.691  60.758 -50.339  1.00  0.00     0.063 A 
HETATM   10  C   UNL     1     -42.408  60.410 -51.646  1.00  0.00     0.071 A 
BRANCH   9  11
HETATM   11  C   UNL     1     -43.648  61.715 -49.784  1.00  0.00    -0.008 A 
HETATM   12  C   UNL     1     -43.456  63.099 -49.895  1.00  0.00     0.014 A 
HETATM   13  C   UNL     1     -44.379  63.995 -49.344  1.00  0.00     0.001 A 
HETATM   14  C   UNL     1     -45.505  63.518 -48.677  1.00  0.00     0.000 A 
HETATM   15  C   UNL     1     -45.714  62.147 -48.564  1.00  0.00     0.001 A 
HETATM   16  C   UNL     1     -44.792  61.253 -49.115  1.00  0.00     0.014 A 
ENDBRANCH   9  11
ENDBRANCH   2   5
BRANCH   1  17
HETATM   17  C   UNL     1     -41.294  56.601 -54.084  1.00  0.00     0.114 C 
HETATM   18  C   UNL     1     -42.566  56.746 -54.927  1.00  0.00     0.037 C 
BRANCH  17  19
HETATM   19  C   UNL     1     -40.968  55.137 -53.857  1.00  0.00    -0.036 A 
HETATM   20  C   UNL     1     -40.534  54.297 -54.893  1.00  0.00     0.012 A 
HETATM   21  C   UNL     1     -40.150  52.974 -54.634  1.00  0.00     0.037 A 
HETATM   22  C   UNL     1     -40.186  52.475 -53.333  1.00  0.00     0.068 A 
HETATM   23  C   UNL     1     -40.651  53.292 -52.303  1.00  0.00     0.037 A 
HETATM   24  C   UNL     1     -41.036  54.609 -52.558  1.00  0.00     0.012 A 
BRANCH  22  25
HETATM   25  O   UNL     1     -39.803  51.223 -52.941  1.00  0.00    -0.352 OA
BRANCH  25  26
HETATM   26  C   UNL     1     -39.411  51.068 -51.578  1.00  0.00     0.171 C 
HETATM   27  C   UNL     1     -39.742  49.648 -51.154  1.00  0.00     0.034 C 
ENDBRANCH  25  26
ENDBRANCH  22  25
ENDBRANCH  17  19
ENDBRANCH   1  17
TORSDOF 6
ENDMDL
MODEL 6
REMARK VINA RESULT:      -7.3     15.528     19.659
REMARK  6 active torsions:
REMARK  status: ('A' for Active; 'I' for Inactive)
REMARK    1  A    between atoms: C_2  and  O_3 
REMARK    2  A    between atoms: O_3  and  C_4 
REMARK    3  A    between atoms: C_7  and  C_8 
REMARK    4  A    between atoms: C_8  and  N_9 
REMARK       I    between atoms: N_9  and  C_10 
REMARK    5  A    between atoms: C_10  and  C_11 
REMARK    6  A    between atoms: C_15  and  C_16 
ROOT
HETATM    1  N   UNL     1     -34.391  40.799 -52.022  1.00  0.00    -0.347 N 
HETATM    2  C   UNL     1     -35.103  41.945 -52.306  1.00  0.00     0.272 C 
HETATM    3  O   UNL     1     -34.916  43.019 -51.742  1.00  0.00    -0.266 OA
HETATM    4  H   UNL     1     -34.583  40.012 -52.633  1.00  0.00     0.163 HD
ENDROOT
BRANCH   2   5
HETATM    5  C   UNL     1     -36.072  41.788 -53.401  1.00  0.00     0.146 A 
HETATM    6  N   UNL     1     -37.376  41.522 -53.190  1.00  0.00    -0.169 NA
HETATM    7  N   UNL     1     -37.880  41.386 -54.432  1.00  0.00    -0.277 N 
HETATM    8  H   UNL     1     -38.862  41.150 -54.525  1.00  0.00     0.189 HD
HETATM    9  C   UNL     1     -36.965  41.542 -55.441  1.00  0.00     0.063 A 
HETATM   10  C   UNL     1     -35.781  41.824 -54.788  1.00  0.00     0.071 A 
BRANCH   9  11
HETATM   11  C   UNL     1     -37.262  41.368 -56.864  1.00  0.00    -0.008 A 
HETATM   12  C   UNL     1     -36.798  42.272 -57.829  1.00  0.00     0.014 A 
HETATM   13  C   UNL     1     -37.106  42.091 -59.182  1.00  0.00     0.001 A 
HETATM   14  C   UNL     1     -37.879  41.005 -59.586  1.00  0.00     0.000 A 
HETATM   15  C   UNL     1     -38.341  40.095 -58.641  1.00  0.00     0.001 A 
HETATM   16  C   UNL     1     -38.033  40.276 -57.290  1.00  0.00     0.014 A 
ENDBRANCH   9  11
ENDBRANCH   2   5
BRANCH   1  17
HETATM   17  C   UNL     1     -33.163  40.860 -51.258  1.00  0.00     0.114 C 
HETATM   18  C   UNL     1     -31.960  40.494 -52.135  1.00  0.00     0.037 C 
BRANCH  17  19
HETATM   19  C   UNL     1     -33.211  39.979 -50.023  1.00  0.00    -0.036 A 
HETATM   20  C   UNL     1     -34.335  39.206 -49.698  1.00  0.00     0.012 A 
HETATM   21  C   UNL     1     -34.315  38.330 -48.603  1.00  0.00     0.037 A 
HETATM   22  C   UNL     1     -33.166  38.209 -47.823  1.00  0.00     0.068 A 
HETATM   23  C   UNL     1     -32.056  39.002 -48.117  1.00  0.00     0.037 A 
HETATM   24  C   UNL     1     -32.074  39.876 -49.206  1.00  0.00     0.012 A 
BRANCH  22  25
HETATM   25  O   UNL     1     -33.001  37.369 -46.758  1.00  0.00    -0.352 OA
BRANCH  25  26
HETATM   26  C   UNL     1     -33.749  37.670 -45.580  1.00  0.00     0.171 C 
HETATM   27  C   UNL     1     -32.772  38.132 -44.513  1.00  0.00     0.034 C 
ENDBRANCH  25  26
ENDBRANCH  22  25
ENDBRANCH  17  19
ENDBRANCH   1  17
TORSDOF 6
ENDMDL
MODEL 7
REMARK VINA RESULT:      -7.1      2.319      9.599
REMARK  6 active torsions:
REMARK  status: ('A' for Active; 'I' for Inactive)
REMARK    1  A    between atoms: C_2  and  O_3 
REMARK    2  A    between atoms: O_3  and  C_4 
REMARK    3  A    between atoms: C_7  and  C_8 
REMARK    4  A    between atoms: C_8  and  N_9 
REMARK       I    between atoms: N_9  and  C_10 
REMARK    5  A    between atoms: C_10  and  C_11 
REMARK    6  A    between atoms: C_15  and  C_16 
ROOT
HETATM    1  N   UNL     1     -42.452  57.455 -54.975  1.00  0.00    -0.347 N 
HETATM    2  C   UNL     1     -42.853  57.784 -56.254  1.00  0.00     0.272 C 
HETATM    3  O   UNL     1     -43.627  57.102 -56.919  1.00  0.00    -0.266 OA
HETATM    4  H   UNL     1     -41.890  58.159 -54.508  1.00  0.00     0.163 HD
ENDROOT
BRANCH   2   5
HETATM    5  C   UNL     1     -42.321  59.068 -56.733  1.00  0.00     0.146 A 
HETATM    6  N   UNL     1     -42.337  60.190 -55.987  1.00  0.00    -0.169 NA
HETATM    7  N   UNL     1     -41.834  61.130 -56.811  1.00  0.00    -0.277 N 
HETATM    8  H   UNL     1     -41.776  62.082 -56.468  1.00  0.00     0.189 HD
HETATM    9  C   UNL     1     -41.499  60.675 -58.061  1.00  0.00     0.063 A 
HETATM   10  C   UNL     1     -41.792  59.326 -58.022  1.00  0.00     0.071 A 
BRANCH   9  11
HETATM   11  C   UNL     1     -41.005  61.523 -59.146  1.00  0.00    -0.008 A 
HETATM   12  C   UNL     1     -41.514  61.424 -60.449  1.00  0.00     0.014 A 
HETATM   13  C   UNL     1     -41.017  62.237 -61.473  1.00  0.00     0.001 A 
HETATM   14  C   UNL     1     -40.006  63.158 -61.208  1.00  0.00     0.000 A 
HETATM   15  C   UNL     1     -39.495  63.274 -59.920  1.00  0.00     0.001 A 
HETATM   16  C   UNL     1     -39.993  62.462 -58.896  1.00  0.00     0.014 A 
ENDBRANCH   9  11
ENDBRANCH   2   5
BRANCH   1  17
HETATM   17  C   UNL     1     -43.158  56.447 -54.214  1.00  0.00     0.114 C 
HETATM   18  C   UNL     1     -43.854  57.073 -53.000  1.00  0.00     0.037 C 
BRANCH  17  19
HETATM   19  C   UNL     1     -42.247  55.312 -53.781  1.00  0.00    -0.036 A 
HETATM   20  C   UNL     1     -41.681  55.255 -52.499  1.00  0.00     0.012 A 
HETATM   21  C   UNL     1     -40.921  54.147 -52.097  1.00  0.00     0.037 A 
HETATM   22  C   UNL     1     -40.724  53.078 -52.969  1.00  0.00     0.068 A 
HETATM   23  C   UNL     1     -41.251  53.145 -54.259  1.00  0.00     0.037 A 
HETATM   24  C   UNL     1     -42.008  54.247 -54.662  1.00  0.00     0.012 A 
BRANCH  22  25
HETATM   25  O   UNL     1     -40.040  51.928 -52.690  1.00  0.00    -0.352 OA
BRANCH  25  26
HETATM   26  C   UNL     1     -39.399  51.279 -53.788  1.00  0.00     0.171 C 
HETATM   27  C   UNL     1     -39.740  49.801 -53.721  1.00  0.00     0.034 C 
ENDBRANCH  25  26
ENDBRANCH  22  25
ENDBRANCH  17  19
ENDBRANCH   1  17
TORSDOF 6
ENDMDL
MODEL 8
REMARK VINA RESULT:      -7.1     15.979     19.828
REMARK  6 active torsions:
REMARK  status: ('A' for Active; 'I' for Inactive)
REMARK    1  A    between atoms: C_2  and  O_3 
REMARK    2  A    between atoms: O_3  and  C_4 
REMARK    3  A    between atoms: C_7  and  C_8 
REMARK    4  A    between atoms: C_8  and  N_9 
REMARK       I    between atoms: N_9  and  C_10 
REMARK    5  A    between atoms: C_10  and  C_11 
REMARK    6  A    between atoms: C_15  and  C_16 
ROOT
HETATM    1  N   UNL     1     -35.800  39.580 -51.408  1.00  0.00    -0.347 N 
HETATM    2  C   UNL     1     -36.386  38.922 -52.470  1.00  0.00     0.272 C 
HETATM    3  O   UNL     1     -36.627  37.717 -52.473  1.00  0.00    -0.266 OA
HETATM    4  H   UNL     1     -35.752  40.588 -51.504  1.00  0.00     0.163 HD
ENDROOT
BRANCH   2   5
HETATM    5  C   UNL     1     -36.763  39.805 -53.583  1.00  0.00     0.146 A 
HETATM    6  N   UNL     1     -37.465  40.942 -53.408  1.00  0.00    -0.169 NA
HETATM    7  N   UNL     1     -37.654  41.397 -54.662  1.00  0.00    -0.277 N 
HETATM    8  H   UNL     1     -38.195  42.246 -54.784  1.00  0.00     0.189 HD
HETATM    9  C   UNL     1     -37.118  40.606 -55.645  1.00  0.00     0.063 A 
HETATM   10  C   UNL     1     -36.514  39.571 -54.959  1.00  0.00     0.071 A 
BRANCH   9  11
HETATM   11  C   UNL     1     -37.259  40.857 -57.080  1.00  0.00    -0.008 A 
HETATM   12  C   UNL     1     -36.916  42.091 -57.650  1.00  0.00     0.014 A 
HETATM   13  C   UNL     1     -37.072  42.311 -59.023  1.00  0.00     0.001 A 
HETATM   14  C   UNL     1     -37.571  41.301 -59.842  1.00  0.00     0.000 A 
HETATM   15  C   UNL     1     -37.909  40.068 -59.294  1.00  0.00     0.001 A 
HETATM   16  C   UNL     1     -37.753  39.849 -57.922  1.00  0.00     0.014 A 
ENDBRANCH   9  11
ENDBRANCH   2   5
BRANCH   1  17
HETATM   17  C   UNL     1     -35.712  38.954 -50.106  1.00  0.00     0.114 C 
HETATM   18  C   UNL     1     -36.806  39.487 -49.174  1.00  0.00     0.037 C 
BRANCH  17  19
HETATM   19  C   UNL     1     -34.342  39.129 -49.477  1.00  0.00    -0.036 A 
HETATM   20  C   UNL     1     -33.916  38.356 -48.387  1.00  0.00     0.012 A 
HETATM   21  C   UNL     1     -32.611  38.474 -47.887  1.00  0.00     0.037 A 
HETATM   22  C   UNL     1     -31.712  39.361 -48.476  1.00  0.00     0.068 A 
HETATM   23  C   UNL     1     -32.140  40.161 -49.537  1.00  0.00     0.037 A 
HETATM   24  C   UNL     1     -33.439  40.046 -50.035  1.00  0.00     0.012 A 
BRANCH  22  25
HETATM   25  O   UNL     1     -30.407  39.544 -48.114  1.00  0.00    -0.352 OA
BRANCH  25  26
HETATM   26  C   UNL     1     -30.100  39.404 -46.727  1.00  0.00     0.171 C 
HETATM   27  C   UNL     1     -29.902  40.794 -46.150  1.00  0.00     0.034 C 
ENDBRANCH  25  26
ENDBRANCH  22  25
ENDBRANCH  17  19
ENDBRANCH   1  17
TORSDOF 6
ENDMDL
MODEL 9
REMARK VINA RESULT:      -7.0     15.943     17.730
REMARK  6 active torsions:
REMARK  status: ('A' for Active; 'I' for Inactive)
REMARK    1  A    between atoms: C_2  and  O_3 
REMARK    2  A    between atoms: O_3  and  C_4 
REMARK    3  A    between atoms: C_7  and  C_8 
REMARK    4  A    between atoms: C_8  and  N_9 
REMARK       I    between atoms: N_9  and  C_10 
REMARK    5  A    between atoms: C_10  and  C_11 
REMARK    6  A    between atoms: C_15  and  C_16 
ROOT
HETATM    1  N   UNL     1     -36.368  40.876 -55.828  1.00  0.00    -0.347 N 
HETATM    2  C   UNL     1     -35.191  41.596 -55.816  1.00  0.00     0.272 C 
HETATM    3  O   UNL     1     -34.960  42.532 -56.577  1.00  0.00    -0.266 OA
HETATM    4  H   UNL     1     -36.462  40.197 -55.081  1.00  0.00     0.163 HD
ENDROOT
BRANCH   2   5
HETATM    5  C   UNL     1     -34.253  41.186 -54.760  1.00  0.00     0.146 A 
HETATM    6  N   UNL     1     -32.948  40.948 -54.995  1.00  0.00    -0.169 NA
HETATM    7  N   UNL     1     -32.478  40.537 -53.800  1.00  0.00    -0.277 N 
HETATM    8  H   UNL     1     -31.503  40.268 -53.739  1.00  0.00     0.189 HD
HETATM    9  C   UNL     1     -33.418  40.487 -52.803  1.00  0.00     0.063 A 
HETATM   10  C   UNL     1     -34.580  40.927 -53.406  1.00  0.00     0.071 A 
BRANCH   9  11
HETATM   11  C   UNL     1     -33.160  40.003 -51.445  1.00  0.00    -0.008 A 
HETATM   12  C   UNL     1     -34.177  39.450 -50.655  1.00  0.00     0.014 A 
HETATM   13  C   UNL     1     -33.909  39.005 -49.356  1.00  0.00     0.001 A 
HETATM   14  C   UNL     1     -32.623  39.108 -48.832  1.00  0.00     0.000 A 
HETATM   15  C   UNL     1     -31.601  39.649 -49.605  1.00  0.00     0.001 A 
HETATM   16  C   UNL     1     -31.869  40.092 -50.903  1.00  0.00     0.014 A 
ENDBRANCH   9  11
ENDBRANCH   2   5
BRANCH   1  17
HETATM   17  C   UNL     1     -37.533  41.371 -56.528  1.00  0.00     0.114 C 
HETATM   18  C   UNL     1     -38.799  41.161 -55.690  1.00  0.00     0.037 C 
BRANCH  17  19
HETATM   19  C   UNL     1     -37.690  40.742 -57.901  1.00  0.00    -0.036 A 
HETATM   20  C   UNL     1     -37.324  41.412 -59.077  1.00  0.00     0.012 A 
HETATM   21  C   UNL     1     -37.393  40.771 -60.322  1.00  0.00     0.037 A 
HETATM   22  C   UNL     1     -37.819  39.446 -60.406  1.00  0.00     0.068 A 
HETATM   23  C   UNL     1     -38.220  38.785 -59.245  1.00  0.00     0.037 A 
HETATM   24  C   UNL     1     -38.155  39.422 -58.004  1.00  0.00     0.012 A 
BRANCH  22  25
HETATM   25  O   UNL     1     -37.894  38.696 -61.545  1.00  0.00    -0.352 OA
BRANCH  25  26
HETATM   26  C   UNL     1     -36.696  38.566 -62.310  1.00  0.00     0.171 C 
HETATM   27  C   UNL     1     -37.083  38.164 -63.721  1.00  0.00     0.034 C 
ENDBRANCH  25  26
ENDBRANCH  22  25
ENDBRANCH  17  19
ENDBRANCH   1  17
TORSDOF 6
ENDMDL
MODEL 10
REMARK VINA RESULT:      -7.0     15.610     17.616
REMARK  6 active torsions:
REMARK  status: ('A' for Active; 'I' for Inactive)
REMARK    1  A    between atoms: C_2  and  O_3 
REMARK    2  A    between atoms: O_3  and  C_4 
REMARK    3  A    between atoms: C_7  and  C_8 
REMARK    4  A    between atoms: C_8  and  N_9 
REMARK       I    between atoms: N_9  and  C_10 
REMARK    5  A    between atoms: C_10  and  C_11 
REMARK    6  A    between atoms: C_15  and  C_16 
ROOT
HETATM    1  N   UNL     1     -36.293  41.044 -54.560  1.00  0.00    -0.347 N 
HETATM    2  C   UNL     1     -35.598  41.741 -53.594  1.00  0.00     0.272 C 
HETATM    3  O   UNL     1     -35.758  42.938 -53.372  1.00  0.00    -0.266 OA
HETATM    4  H   UNL     1     -36.132  40.043 -54.566  1.00  0.00     0.163 HD
ENDROOT
BRANCH   2   5
HETATM    5  C   UNL     1     -34.686  40.906 -52.798  1.00  0.00     0.146 A 
HETATM    6  N   UNL     1     -33.924  39.935 -53.340  1.00  0.00    -0.169 NA
HETATM    7  N   UNL     1     -33.309  39.380 -52.277  1.00  0.00    -0.277 N 
HETATM    8  H   UNL     1     -32.693  38.592 -52.441  1.00  0.00     0.189 HD
HETATM    9  C   UNL     1     -33.642  39.937 -51.069  1.00  0.00     0.063 A 
HETATM   10  C   UNL     1     -34.525  40.949 -51.391  1.00  0.00     0.071 A 
BRANCH   9  11
HETATM   11  C   UNL     1     -33.159  39.456 -49.773  1.00  0.00    -0.008 A 
HETATM   12  C   UNL     1     -33.890  38.533 -49.012  1.00  0.00     0.014 A 
HETATM   13  C   UNL     1     -33.414  38.097 -47.771  1.00  0.00     0.001 A 
HETATM   14  C   UNL     1     -32.204  38.577 -47.276  1.00  0.00     0.000 A 
HETATM   15  C   UNL     1     -31.464  39.488 -48.022  1.00  0.00     0.001 A 
HETATM   16  C   UNL     1     -31.939  39.923 -49.263  1.00  0.00     0.014 A 
ENDBRANCH   9  11
ENDBRANCH   2   5
BRANCH   1  17
HETATM   17  C   UNL     1     -37.480  41.606 -55.169  1.00  0.00     0.114 C 
HETATM   18  C   UNL     1     -38.745  41.053 -54.501  1.00  0.00     0.037 C 
BRANCH  17  19
HETATM   19  C   UNL     1     -37.523  41.373 -56.668  1.00  0.00    -0.036 A 
HETATM   20  C   UNL     1     -36.798  42.168 -57.569  1.00  0.00     0.012 A 
HETATM   21  C   UNL     1     -36.782  41.870 -58.939  1.00  0.00     0.037 A 
HETATM   22  C   UNL     1     -37.485  40.769 -59.426  1.00  0.00     0.068 A 
HETATM   23  C   UNL     1     -38.238  39.996 -58.542  1.00  0.00     0.037 A 
HETATM   24  C   UNL     1     -38.256  40.291 -57.177  1.00  0.00     0.012 A 
BRANCH  22  25
HETATM   25  O   UNL     1     -37.520  40.348 -60.725  1.00  0.00    -0.352 OA
BRANCH  25  26
HETATM   26  C   UNL     1     -37.402  38.943 -60.950  1.00  0.00     0.171 C 
HETATM   27  C   UNL     1     -35.924  38.599 -60.992  1.00  0.00     0.034 C 
ENDBRANCH  25  26
ENDBRANCH  22  25
ENDBRANCH  17  19
ENDBRANCH   1  17
TORSDOF 6
ENDMDL
