MODEL 1
REMARK VINA RESULT:      -8.7      0.000      0.000
REMARK  7 active torsions:
REMARK  status: ('A' for Active; 'I' for Inactive)
REMARK    1  A    between atoms: C_11  and  N_12 
REMARK       I    between atoms: N_12  and  C_13 
REMARK    2  A    between atoms: C_13  and  C_14 
REMARK    3  A    between atoms: C_14  and  S_15 
REMARK    4  A    between atoms: S_15  and  C_16 
REMARK    5  A    between atoms: N_17  and  C_18 
REMARK    6  A    between atoms: C_18  and  C_19 
REMARK    7  A    between atoms: C_25  and  C_26 
ROOT
HETATM    1  N   UNL     1     -42.153  57.837 -54.102  1.00  0.00    -0.326 N 
HETATM    2  C   UNL     1     -42.830  57.142 -55.088  1.00  0.00     0.231 C 
HETATM    3  O   UNL     1     -43.950  57.433 -55.511  1.00  0.00    -0.272 OA
HETATM    4  H   UNL     1     -41.187  57.564 -53.952  1.00  0.00     0.169 HD
ENDROOT
BRANCH   2   5
HETATM    5  C   UNL     1     -42.158  55.888 -55.622  1.00  0.00     0.185 C 
BRANCH   5   6
HETATM    6  S   UNL     1     -42.888  54.314 -55.067  1.00  0.00    -0.081 SA
BRANCH   6   7
HETATM    7  C   UNL     1     -42.693  54.519 -53.351  1.00  0.00     0.192 A 
HETATM    8  N   UNL     1     -41.634  54.057 -52.602  1.00  0.00    -0.307 N 
HETATM    9  C   UNL     1     -41.981  54.331 -51.294  1.00  0.00     0.135 A 
HETATM   10  N   UNL     1     -43.108  55.016 -51.290  1.00  0.00    -0.134 NA
HETATM   11  N   UNL     1     -43.558  55.122 -52.574  1.00  0.00    -0.123 NA
BRANCH   8  12
HETATM   12  C   UNL     1     -40.344  53.644 -53.121  1.00  0.00     0.171 C 
BRANCH  12  13
HETATM   13  C   UNL     1     -40.106  52.155 -53.147  1.00  0.00    -0.040 A 
HETATM   14  C   UNL     1     -40.219  51.387 -54.316  1.00  0.00     0.009 A 
HETATM   15  C   UNL     1     -39.949  50.016 -54.295  1.00  0.00     0.001 A 
HETATM   16  C   UNL     1     -39.546  49.397 -53.114  1.00  0.00     0.000 A 
HETATM   17  C   UNL     1     -39.408  50.147 -51.950  1.00  0.00     0.001 A 
HETATM   18  C   UNL     1     -39.678  51.517 -51.969  1.00  0.00     0.009 A 
ENDBRANCH  12  13
ENDBRANCH   8  12
BRANCH   9  19
HETATM   19  C   UNL     1     -41.354  53.984 -49.948  1.00  0.00     0.057 A 
HETATM   20  C   UNL     1     -39.946  54.449 -49.651  1.00  0.00     0.013 A 
HETATM   21  C   UNL     1     -41.085  54.965 -48.839  1.00  0.00     0.013 A 
ENDBRANCH   9  19
ENDBRANCH   6   7
ENDBRANCH   5   6
ENDBRANCH   2   5
BRANCH   1  22
HETATM   22  C   UNL     1     -42.639  58.937 -53.356  1.00  0.00     0.037 A 
HETATM   23  C   UNL     1     -42.351  60.269 -53.676  1.00  0.00     0.032 A 
HETATM   24  C   UNL     1     -42.872  61.321 -52.916  1.00  0.00     0.041 A 
HETATM   25  C   UNL     1     -43.703  61.051 -51.837  1.00  0.00     0.096 A 
HETATM   26  O   UNL     1     -44.142  62.128 -51.118  1.00  0.00    -0.335 OA
HETATM   27  C   UNL     1     -43.991  59.727 -51.500  1.00  0.00     0.070 A 
HETATM   28  C   UNL     1     -45.301  61.850 -50.336  1.00  0.00     0.217 C 
HETATM   29  C   UNL     1     -45.442  62.971 -49.314  1.00  0.00     0.050 C 
HETATM   30  C   UNL     1     -45.358  60.474 -49.652  1.00  0.00     0.251 C 
HETATM   31  N   UNL     1     -44.773  59.461 -50.373  1.00  0.00    -0.323 N 
HETATM   32  O   UNL     1     -45.958  60.239 -48.607  1.00  0.00    -0.270 OA
HETATM   33  H   UNL     1     -44.876  58.523 -50.011  1.00  0.00     0.169 HD
HETATM   34  C   UNL     1     -43.466  58.672 -52.255  1.00  0.00     0.062 A 
ENDBRANCH   1  22
TORSDOF 7
ENDMDL
MODEL 2
REMARK VINA RESULT:      -8.5      3.275      6.323
REMARK  7 active torsions:
REMARK  status: ('A' for Active; 'I' for Inactive)
REMARK    1  A    between atoms: C_11  and  N_12 
REMARK       I    between atoms: N_12  and  C_13 
REMARK    2  A    between atoms: C_13  and  C_14 
REMARK    3  A    between atoms: C_14  and  S_15 
REMARK    4  A    between atoms: S_15  and  C_16 
REMARK    5  A    between atoms: N_17  and  C_18 
REMARK    6  A    between atoms: C_18  and  C_19 
REMARK    7  A    between atoms: C_25  and  C_26 
ROOT
HETATM    1  N   UNL     1     -43.194  58.470 -54.815  1.00  0.00    -0.326 N 
HETATM    2  C   UNL     1     -42.232  59.420 -54.522  1.00  0.00     0.231 C 
HETATM    3  O   UNL     1     -41.408  59.859 -55.327  1.00  0.00    -0.272 OA
HETATM    4  H   UNL     1     -43.887  58.305 -54.093  1.00  0.00     0.169 HD
ENDROOT
BRANCH   2   5
HETATM    5  C   UNL     1     -42.154  59.890 -53.079  1.00  0.00     0.185 C 
BRANCH   5   6
HETATM    6  S   UNL     1     -43.363  59.134 -51.946  1.00  0.00    -0.081 SA
BRANCH   6   7
HETATM    7  C   UNL     1     -42.317  57.986 -51.164  1.00  0.00     0.192 A 
HETATM    8  N   UNL     1     -42.361  56.620 -51.324  1.00  0.00    -0.307 N 
HETATM    9  C   UNL     1     -41.447  56.128 -50.413  1.00  0.00     0.135 A 
HETATM   10  N   UNL     1     -40.826  57.144 -49.847  1.00  0.00    -0.134 NA
HETATM   11  N   UNL     1     -41.378  58.304 -50.307  1.00  0.00    -0.123 NA
BRANCH   8  12
HETATM   12  C   UNL     1     -43.017  55.913 -52.408  1.00  0.00     0.171 C 
BRANCH  12  13
HETATM   13  C   UNL     1     -42.098  55.153 -53.330  1.00  0.00    -0.040 A 
HETATM   14  C   UNL     1     -40.960  55.729 -53.915  1.00  0.00     0.009 A 
HETATM   15  C   UNL     1     -40.117  54.970 -54.732  1.00  0.00     0.001 A 
HETATM   16  C   UNL     1     -40.388  53.623 -54.960  1.00  0.00     0.000 A 
HETATM   17  C   UNL     1     -41.500  53.029 -54.370  1.00  0.00     0.001 A 
HETATM   18  C   UNL     1     -42.343  53.786 -53.555  1.00  0.00     0.009 A 
ENDBRANCH  12  13
ENDBRANCH   8  12
BRANCH   9  19
HETATM   19  C   UNL     1     -41.076  54.723 -49.955  1.00  0.00     0.057 A 
HETATM   20  C   UNL     1     -40.000  53.967 -50.702  1.00  0.00     0.013 A 
HETATM   21  C   UNL     1     -39.787  54.345 -49.275  1.00  0.00     0.013 A 
ENDBRANCH   9  19
ENDBRANCH   6   7
ENDBRANCH   5   6
ENDBRANCH   2   5
BRANCH   1  22
HETATM   22  C   UNL     1     -43.357  57.781 -56.040  1.00  0.00     0.037 A 
HETATM   23  C   UNL     1     -42.363  56.975 -56.608  1.00  0.00     0.032 A 
HETATM   24  C   UNL     1     -42.583  56.301 -57.813  1.00  0.00     0.041 A 
HETATM   25  C   UNL     1     -43.808  56.413 -58.456  1.00  0.00     0.096 A 
HETATM   26  O   UNL     1     -43.936  55.757 -59.649  1.00  0.00    -0.335 OA
HETATM   27  C   UNL     1     -44.806  57.220 -57.907  1.00  0.00     0.070 A 
HETATM   28  C   UNL     1     -45.291  55.536 -60.030  1.00  0.00     0.217 C 
HETATM   29  C   UNL     1     -45.297  55.174 -61.510  1.00  0.00     0.050 C 
HETATM   30  C   UNL     1     -46.283  56.676 -59.740  1.00  0.00     0.251 C 
HETATM   31  N   UNL     1     -46.013  57.382 -58.594  1.00  0.00    -0.323 N 
HETATM   32  O   UNL     1     -47.301  56.897 -60.392  1.00  0.00    -0.270 OA
HETATM   33  H   UNL     1     -46.694  58.072 -58.309  1.00  0.00     0.169 HD
HETATM   34  C   UNL     1     -44.587  57.902 -56.704  1.00  0.00     0.062 A 
ENDBRANCH   1  22
TORSDOF 7
ENDMDL
MODEL 3
REMARK VINA RESULT:      -8.4      2.950      8.633
REMARK  7 active torsions:
REMARK  status: ('A' for Active; 'I' for Inactive)
REMARK    1  A    between atoms: C_11  and  N_12 
REMARK       I    between atoms: N_12  and  C_13 
REMARK    2  A    between atoms: C_13  and  C_14 
REMARK    3  A    between atoms: C_14  and  S_15 
REMARK    4  A    between atoms: S_15  and  C_16 
REMARK    5  A    between atoms: N_17  and  C_18 
REMARK    6  A    between atoms: C_18  and  C_19 
REMARK    7  A    between atoms: C_25  and  C_26 
ROOT
HETATM    1  N   UNL     1     -41.772  55.829 -54.958  1.00  0.00    -0.326 N 
HETATM    2  C   UNL     1     -43.096  56.149 -55.194  1.00  0.00     0.231 C 
HETATM    3  O   UNL     1     -44.056  55.663 -54.592  1.00  0.00    -0.272 OA
HETATM    4  H   UNL     1     -41.085  56.405 -55.434  1.00  0.00     0.169 HD
ENDROOT
BRANCH   2   5
HETATM    5  C   UNL     1     -43.372  57.115 -56.335  1.00  0.00     0.185 C 
BRANCH   5   6
HETATM    6  S   UNL     1     -43.796  58.814 -55.833  1.00  0.00    -0.081 SA
BRANCH   6   7
HETATM    7  C   UNL     1     -42.608  59.028 -54.581  1.00  0.00     0.192 A 
HETATM    8  N   UNL     1     -42.863  59.058 -53.229  1.00  0.00    -0.307 N 
HETATM    9  C   UNL     1     -41.654  59.384 -52.648  1.00  0.00     0.135 A 
HETATM   10  N   UNL     1     -40.731  59.423 -53.589  1.00  0.00    -0.134 NA
HETATM   11  N   UNL     1     -41.330  59.213 -54.796  1.00  0.00    -0.123 NA
BRANCH   8  12
HETATM   12  C   UNL     1     -44.067  58.571 -52.581  1.00  0.00     0.171 C 
BRANCH  12  13
HETATM   13  C   UNL     1     -44.953  59.635 -51.983  1.00  0.00    -0.040 A 
HETATM   14  C   UNL     1     -44.897  59.998 -50.629  1.00  0.00     0.009 A 
HETATM   15  C   UNL     1     -45.712  61.020 -50.132  1.00  0.00     0.001 A 
HETATM   16  C   UNL     1     -46.578  61.702 -50.983  1.00  0.00     0.000 A 
HETATM   17  C   UNL     1     -46.630  61.370 -52.333  1.00  0.00     0.001 A 
HETATM   18  C   UNL     1     -45.818  60.350 -52.831  1.00  0.00     0.009 A 
ENDBRANCH  12  13
ENDBRANCH   8  12
BRANCH   9  19
HETATM   19  C   UNL     1     -41.231  59.714 -51.221  1.00  0.00     0.057 A 
HETATM   20  C   UNL     1     -41.013  58.584 -50.239  1.00  0.00     0.013 A 
HETATM   21  C   UNL     1     -39.867  59.451 -50.639  1.00  0.00     0.013 A 
ENDBRANCH   9  19
ENDBRANCH   6   7
ENDBRANCH   5   6
ENDBRANCH   2   5
BRANCH   1  22
HETATM   22  C   UNL     1     -41.285  54.851 -54.058  1.00  0.00     0.037 A 
HETATM   23  C   UNL     1     -41.136  55.076 -52.685  1.00  0.00     0.032 A 
HETATM   24  C   UNL     1     -40.667  54.070 -51.836  1.00  0.00     0.041 A 
HETATM   25  C   UNL     1     -40.358  52.818 -52.350  1.00  0.00     0.096 A 
HETATM   26  O   UNL     1     -39.868  51.896 -51.467  1.00  0.00    -0.335 OA
HETATM   27  C   UNL     1     -40.493  52.580 -53.719  1.00  0.00     0.070 A 
HETATM   28  C   UNL     1     -39.990  50.553 -51.927  1.00  0.00     0.217 C 
HETATM   29  C   UNL     1     -39.076  49.690 -51.065  1.00  0.00     0.050 C 
HETATM   30  C   UNL     1     -39.722  50.309 -53.422  1.00  0.00     0.251 C 
HETATM   31  N   UNL     1     -40.116  51.339 -54.241  1.00  0.00    -0.323 N 
HETATM   32  O   UNL     1     -39.297  49.257 -53.892  1.00  0.00    -0.270 OA
HETATM   33  H   UNL     1     -40.054  51.182 -55.237  1.00  0.00     0.169 HD
HETATM   34  C   UNL     1     -40.955  53.589 -54.573  1.00  0.00     0.062 A 
ENDBRANCH   1  22
TORSDOF 7
ENDMDL
MODEL 4
REMARK VINA RESULT:      -8.3      4.261      8.896
REMARK  7 active torsions:
REMARK  status: ('A' for Active; 'I' for Inactive)
REMARK    1  A    between atoms: C_11  and  N_12 
REMARK       I    between atoms: N_12  and  C_13 
REMARK    2  A    between atoms: C_13  and  C_14 
REMARK    3  A    between atoms: C_14  and  S_15 
REMARK    4  A    between atoms: S_15  and  C_16 
REMARK    5  A    between atoms: N_17  and  C_18 
REMARK    6  A    between atoms: C_18  and  C_19 
REMARK    7  A    between atoms: C_25  and  C_26 
ROOT
HETATM    1  N   UNL     1     -41.621  56.794 -54.305  1.00  0.00    -0.326 N 
HETATM    2  C   UNL     1     -41.081  57.971 -53.818  1.00  0.00     0.231 C 
HETATM    3  O   UNL     1     -40.082  58.042 -53.101  1.00  0.00    -0.272 OA
HETATM    4  H   UNL     1     -42.361  56.897 -54.991  1.00  0.00     0.169 HD
ENDROOT
BRANCH   2   5
HETATM    5  C   UNL     1     -41.833  59.251 -54.141  1.00  0.00     0.185 C 
BRANCH   5   6
HETATM    6  S   UNL     1     -43.329  59.042 -55.159  1.00  0.00    -0.081 SA
BRANCH   6   7
HETATM    7  C   UNL     1     -42.675  59.521 -56.698  1.00  0.00     0.192 A 
HETATM    8  N   UNL     1     -43.175  59.164 -57.929  1.00  0.00    -0.307 N 
HETATM    9  C   UNL     1     -42.261  59.657 -58.839  1.00  0.00     0.135 A 
HETATM   10  N   UNL     1     -41.354  60.359 -58.188  1.00  0.00    -0.134 NA
HETATM   11  N   UNL     1     -41.606  60.263 -56.850  1.00  0.00    -0.123 NA
BRANCH   8  12
HETATM   12  C   UNL     1     -44.504  58.643 -58.187  1.00  0.00     0.171 C 
BRANCH  12  13
HETATM   13  C   UNL     1     -44.549  57.317 -58.903  1.00  0.00    -0.040 A 
HETATM   14  C   UNL     1     -43.704  56.246 -58.574  1.00  0.00     0.009 A 
HETATM   15  C   UNL     1     -43.812  55.023 -59.241  1.00  0.00     0.001 A 
HETATM   16  C   UNL     1     -44.775  54.847 -60.232  1.00  0.00     0.000 A 
HETATM   17  C   UNL     1     -45.636  55.890 -60.556  1.00  0.00     0.001 A 
HETATM   18  C   UNL     1     -45.529  57.113 -59.891  1.00  0.00     0.009 A 
ENDBRANCH  12  13
ENDBRANCH   8  12
BRANCH   9  19
HETATM   19  C   UNL     1     -42.106  59.522 -60.349  1.00  0.00     0.057 A 
HETATM   20  C   UNL     1     -43.160  60.123 -61.253  1.00  0.00     0.013 A 
HETATM   21  C   UNL     1     -41.764  60.646 -61.290  1.00  0.00     0.013 A 
ENDBRANCH   9  19
ENDBRANCH   6   7
ENDBRANCH   5   6
ENDBRANCH   2   5
BRANCH   1  22
HETATM   22  C   UNL     1     -41.186  55.479 -54.014  1.00  0.00     0.037 A 
HETATM   23  C   UNL     1     -40.714  54.592 -54.989  1.00  0.00     0.032 A 
HETATM   24  C   UNL     1     -40.278  53.309 -54.645  1.00  0.00     0.041 A 
HETATM   25  C   UNL     1     -40.295  52.904 -53.318  1.00  0.00     0.096 A 
HETATM   26  O   UNL     1     -39.892  51.623 -53.062  1.00  0.00    -0.335 OA
HETATM   27  C   UNL     1     -40.772  53.774 -52.335  1.00  0.00     0.070 A 
HETATM   28  C   UNL     1     -39.510  51.410 -51.706  1.00  0.00     0.217 C 
HETATM   29  C   UNL     1     -39.471  49.905 -51.473  1.00  0.00     0.050 C 
HETATM   30  C   UNL     1     -40.361  52.109 -50.633  1.00  0.00     0.251 C 
HETATM   31  N   UNL     1     -40.849  53.336 -51.010  1.00  0.00    -0.323 N 
HETATM   32  O   UNL     1     -40.522  51.690 -49.489  1.00  0.00    -0.270 OA
HETATM   33  H   UNL     1     -41.327  53.877 -50.302  1.00  0.00     0.169 HD
HETATM   34  C   UNL     1     -41.215  55.057 -52.677  1.00  0.00     0.062 A 
ENDBRANCH   1  22
TORSDOF 7
ENDMDL
MODEL 5
REMARK VINA RESULT:      -8.1      3.374      7.109
REMARK  7 active torsions:
REMARK  status: ('A' for Active; 'I' for Inactive)
REMARK    1  A    between atoms: C_11  and  N_12 
REMARK       I    between atoms: N_12  and  C_13 
REMARK    2  A    between atoms: C_13  and  C_14 
REMARK    3  A    between atoms: C_14  and  S_15 
REMARK    4  A    between atoms: S_15  and  C_16 
REMARK    5  A    between atoms: N_17  and  C_18 
REMARK    6  A    between atoms: C_18  and  C_19 
REMARK    7  A    between atoms: C_25  and  C_26 
ROOT
HETATM    1  N   UNL     1     -41.190  56.077 -55.321  1.00  0.00    -0.326 N 
HETATM    2  C   UNL     1     -42.241  56.304 -56.191  1.00  0.00     0.231 C 
HETATM    3  O   UNL     1     -43.074  55.458 -56.524  1.00  0.00    -0.272 OA
HETATM    4  H   UNL     1     -40.667  56.898 -55.036  1.00  0.00     0.169 HD
ENDROOT
BRANCH   2   5
HETATM    5  C   UNL     1     -42.313  57.681 -56.830  1.00  0.00     0.185 C 
BRANCH   5   6
HETATM    6  S   UNL     1     -43.317  58.906 -55.931  1.00  0.00    -0.081 SA
BRANCH   6   7
HETATM    7  C   UNL     1     -42.323  59.080 -54.515  1.00  0.00     0.192 A 
HETATM    8  N   UNL     1     -42.769  59.056 -53.213  1.00  0.00    -0.307 N 
HETATM    9  C   UNL     1     -41.659  59.368 -52.453  1.00  0.00     0.135 A 
HETATM   10  N   UNL     1     -40.611  59.449 -53.250  1.00  0.00    -0.134 NA
HETATM   11  N   UNL     1     -41.029  59.282 -54.538  1.00  0.00    -0.123 NA
BRANCH   8  12
HETATM   12  C   UNL     1     -44.046  58.536 -52.763  1.00  0.00     0.171 C 
BRANCH  12  13
HETATM   13  C   UNL     1     -44.039  57.090 -52.333  1.00  0.00    -0.040 A 
HETATM   14  C   UNL     1     -44.075  56.026 -53.246  1.00  0.00     0.009 A 
HETATM   15  C   UNL     1     -44.026  54.702 -52.799  1.00  0.00     0.001 A 
HETATM   16  C   UNL     1     -43.921  54.425 -51.438  1.00  0.00     0.000 A 
HETATM   17  C   UNL     1     -43.862  55.469 -50.520  1.00  0.00     0.001 A 
HETATM   18  C   UNL     1     -43.912  56.791 -50.965  1.00  0.00     0.009 A 
ENDBRANCH  12  13
ENDBRANCH   8  12
BRANCH   9  19
HETATM   19  C   UNL     1     -41.447  59.645 -50.969  1.00  0.00     0.057 A 
HETATM   20  C   UNL     1     -40.943  58.531 -50.078  1.00  0.00     0.013 A 
HETATM   21  C   UNL     1     -40.108  59.749 -50.289  1.00  0.00     0.013 A 
ENDBRANCH   9  19
ENDBRANCH   6   7
ENDBRANCH   5   6
ENDBRANCH   2   5
BRANCH   1  22
HETATM   22  C   UNL     1     -40.834  54.843 -54.727  1.00  0.00     0.037 A 
HETATM   23  C   UNL     1     -40.420  53.726 -55.463  1.00  0.00     0.032 A 
HETATM   24  C   UNL     1     -40.062  52.535 -54.826  1.00  0.00     0.041 A 
HETATM   25  C   UNL     1     -40.098  52.453 -53.441  1.00  0.00     0.096 A 
HETATM   26  O   UNL     1     -39.773  51.244 -52.889  1.00  0.00    -0.335 OA
HETATM   27  C   UNL     1     -40.518  53.555 -52.693  1.00  0.00     0.070 A 
HETATM   28  C   UNL     1     -39.399  51.332 -51.517  1.00  0.00     0.217 C 
HETATM   29  C   UNL     1     -39.451  49.923 -50.939  1.00  0.00     0.050 C 
HETATM   30  C   UNL     1     -40.202  52.312 -50.645  1.00  0.00     0.251 C 
HETATM   31  N   UNL     1     -40.616  53.444 -51.303  1.00  0.00    -0.323 N 
HETATM   32  O   UNL     1     -40.385  52.182 -49.437  1.00  0.00    -0.270 OA
HETATM   33  H   UNL     1     -41.058  54.163 -50.746  1.00  0.00     0.169 HD
HETATM   34  C   UNL     1     -40.883  54.747 -53.329  1.00  0.00     0.062 A 
ENDBRANCH   1  22
TORSDOF 7
ENDMDL
MODEL 6
REMARK VINA RESULT:      -8.0      4.264      9.050
REMARK  7 active torsions:
REMARK  status: ('A' for Active; 'I' for Inactive)
REMARK    1  A    between atoms: C_11  and  N_12 
REMARK       I    between atoms: N_12  and  C_13 
REMARK    2  A    between atoms: C_13  and  C_14 
REMARK    3  A    between atoms: C_14  and  S_15 
REMARK    4  A    between atoms: S_15  and  C_16 
REMARK    5  A    between atoms: N_17  and  C_18 
REMARK    6  A    between atoms: C_18  and  C_19 
REMARK    7  A    between atoms: C_25  and  C_26 
ROOT
HETATM    1  N   UNL     1     -41.721  56.979 -53.458  1.00  0.00    -0.326 N 
HETATM    2  C   UNL     1     -41.037  58.179 -53.540  1.00  0.00     0.231 C 
HETATM    3  O   UNL     1     -39.895  58.368 -53.117  1.00  0.00    -0.272 OA
HETATM    4  H   UNL     1     -42.597  56.933 -53.967  1.00  0.00     0.169 HD
ENDROOT
BRANCH   2   5
HETATM    5  C   UNL     1     -41.795  59.357 -54.129  1.00  0.00     0.185 C 
BRANCH   5   6
HETATM    6  S   UNL     1     -43.285  58.927 -55.085  1.00  0.00    -0.081 SA
BRANCH   6   7
HETATM    7  C   UNL     1     -42.722  59.363 -56.671  1.00  0.00     0.192 A 
HETATM    8  N   UNL     1     -43.280  58.956 -57.861  1.00  0.00    -0.307 N 
HETATM    9  C   UNL     1     -42.423  59.432 -58.835  1.00  0.00     0.135 A 
HETATM   10  N   UNL     1     -41.496  60.170 -58.256  1.00  0.00    -0.134 NA
HETATM   11  N   UNL     1     -41.675  60.116 -56.905  1.00  0.00    -0.123 NA
BRANCH   8  12
HETATM   12  C   UNL     1     -44.611  58.405 -58.030  1.00  0.00     0.171 C 
BRANCH  12  13
HETATM   13  C   UNL     1     -44.694  57.173 -58.896  1.00  0.00    -0.040 A 
HETATM   14  C   UNL     1     -43.802  56.097 -58.774  1.00  0.00     0.009 A 
HETATM   15  C   UNL     1     -43.946  54.959 -59.573  1.00  0.00     0.001 A 
HETATM   16  C   UNL     1     -44.990  54.874 -60.491  1.00  0.00     0.000 A 
HETATM   17  C   UNL     1     -45.897  55.922 -60.609  1.00  0.00     0.001 A 
HETATM   18  C   UNL     1     -45.755  57.060 -59.812  1.00  0.00     0.009 A 
ENDBRANCH  12  13
ENDBRANCH   8  12
BRANCH   9  19
HETATM   19  C   UNL     1     -42.346  59.247 -60.345  1.00  0.00     0.057 A 
HETATM   20  C   UNL     1     -43.370  59.933 -61.223  1.00  0.00     0.013 A 
HETATM   21  C   UNL     1     -41.930  60.309 -61.329  1.00  0.00     0.013 A 
ENDBRANCH   9  19
ENDBRANCH   6   7
ENDBRANCH   5   6
ENDBRANCH   2   5
BRANCH   1  22
HETATM   22  C   UNL     1     -41.280  55.796 -52.819  1.00  0.00     0.037 A 
HETATM   23  C   UNL     1     -41.211  55.653 -51.428  1.00  0.00     0.032 A 
HETATM   24  C   UNL     1     -40.785  54.455 -50.847  1.00  0.00     0.041 A 
HETATM   25  C   UNL     1     -40.439  53.379 -51.652  1.00  0.00     0.096 A 
HETATM   26  O   UNL     1     -39.995  52.254 -51.015  1.00  0.00    -0.335 OA
HETATM   27  C   UNL     1     -40.494  53.509 -53.042  1.00  0.00     0.070 A 
HETATM   28  C   UNL     1     -40.081  51.079 -51.816  1.00  0.00     0.217 C 
HETATM   29  C   UNL     1     -39.213  50.013 -51.159  1.00  0.00     0.050 C 
HETATM   30  C   UNL     1     -39.728  51.232 -53.305  1.00  0.00     0.251 C 
HETATM   31  N   UNL     1     -40.080  52.444 -53.847  1.00  0.00    -0.323 N 
HETATM   32  O   UNL     1     -39.270  50.336 -54.009  1.00  0.00    -0.270 OA
HETATM   33  H   UNL     1     -39.961  52.552 -54.845  1.00  0.00     0.169 HD
HETATM   34  C   UNL     1     -40.914  54.709 -53.627  1.00  0.00     0.062 A 
ENDBRANCH   1  22
TORSDOF 7
ENDMDL
MODEL 7
REMARK VINA RESULT:      -8.0      4.988      7.108
REMARK  7 active torsions:
REMARK  status: ('A' for Active; 'I' for Inactive)
REMARK    1  A    between atoms: C_11  and  N_12 
REMARK       I    between atoms: N_12  and  C_13 
REMARK    2  A    between atoms: C_13  and  C_14 
REMARK    3  A    between atoms: C_14  and  S_15 
REMARK    4  A    between atoms: S_15  and  C_16 
REMARK    5  A    between atoms: N_17  and  C_18 
REMARK    6  A    between atoms: C_18  and  C_19 
REMARK    7  A    between atoms: C_25  and  C_26 
ROOT
HETATM    1  N   UNL     1     -44.619  57.221 -57.597  1.00  0.00    -0.326 N 
HETATM    2  C   UNL     1     -43.279  57.564 -57.582  1.00  0.00     0.231 C 
HETATM    3  O   UNL     1     -42.760  58.406 -58.317  1.00  0.00    -0.272 OA
HETATM    4  H   UNL     1     -44.928  56.613 -56.846  1.00  0.00     0.169 HD
ENDROOT
BRANCH   2   5
HETATM    5  C   UNL     1     -42.385  56.782 -56.634  1.00  0.00     0.185 C 
BRANCH   5   6
HETATM    6  S   UNL     1     -43.253  55.850 -55.332  1.00  0.00    -0.081 SA
BRANCH   6   7
HETATM    7  C   UNL     1     -42.291  56.336 -53.967  1.00  0.00     0.192 A 
HETATM    8  N   UNL     1     -42.165  55.641 -52.786  1.00  0.00    -0.307 N 
HETATM    9  C   UNL     1     -41.424  56.469 -51.966  1.00  0.00     0.135 A 
HETATM   10  N   UNL     1     -41.042  57.521 -52.664  1.00  0.00    -0.134 NA
HETATM   11  N   UNL     1     -41.594  57.443 -53.909  1.00  0.00    -0.123 NA
BRANCH   8  12
HETATM   12  C   UNL     1     -42.500  54.244 -52.582  1.00  0.00     0.171 C 
BRANCH  12  13
HETATM   13  C   UNL     1     -41.392  53.266 -52.878  1.00  0.00    -0.040 A 
HETATM   14  C   UNL     1     -40.539  52.760 -51.886  1.00  0.00     0.009 A 
HETATM   15  C   UNL     1     -39.551  51.824 -52.206  1.00  0.00     0.001 A 
HETATM   16  C   UNL     1     -39.415  51.366 -53.514  1.00  0.00     0.000 A 
HETATM   17  C   UNL     1     -40.268  51.840 -54.507  1.00  0.00     0.001 A 
HETATM   18  C   UNL     1     -41.254  52.776 -54.189  1.00  0.00     0.009 A 
ENDBRANCH  12  13
ENDBRANCH   8  12
BRANCH   9  19
HETATM   19  C   UNL     1     -41.023  56.405 -50.497  1.00  0.00     0.057 A 
HETATM   20  C   UNL     1     -41.740  55.438 -49.581  1.00  0.00     0.013 A 
HETATM   21  C   UNL     1     -40.283  55.265 -49.849  1.00  0.00     0.013 A 
ENDBRANCH   9  19
ENDBRANCH   6   7
ENDBRANCH   5   6
ENDBRANCH   2   5
BRANCH   1  22
HETATM   22  C   UNL     1     -45.605  57.701 -58.491  1.00  0.00     0.037 A 
HETATM   23  C   UNL     1     -46.194  58.966 -58.378  1.00  0.00     0.032 A 
HETATM   24  C   UNL     1     -47.152  59.400 -59.299  1.00  0.00     0.041 A 
HETATM   25  C   UNL     1     -47.520  58.578 -60.355  1.00  0.00     0.096 A 
HETATM   26  O   UNL     1     -48.491  59.052 -61.193  1.00  0.00    -0.335 OA
HETATM   27  C   UNL     1     -46.948  57.309 -60.476  1.00  0.00     0.070 A 
HETATM   28  C   UNL     1     -48.509  58.403 -62.461  1.00  0.00     0.217 C 
HETATM   29  C   UNL     1     -49.842  58.732 -63.123  1.00  0.00     0.050 C 
HETATM   30  C   UNL     1     -48.256  56.886 -62.463  1.00  0.00     0.251 C 
HETATM   31  N   UNL     1     -47.372  56.460 -61.502  1.00  0.00    -0.323 N 
HETATM   32  O   UNL     1     -48.701  56.106 -63.301  1.00  0.00    -0.270 OA
HETATM   33  H   UNL     1     -47.097  55.488 -61.531  1.00  0.00     0.169 HD
HETATM   34  C   UNL     1     -45.994  56.870 -59.551  1.00  0.00     0.062 A 
ENDBRANCH   1  22
TORSDOF 7
ENDMDL
MODEL 8
REMARK VINA RESULT:      -7.9      3.297      7.365
REMARK  7 active torsions:
REMARK  status: ('A' for Active; 'I' for Inactive)
REMARK    1  A    between atoms: C_11  and  N_12 
REMARK       I    between atoms: N_12  and  C_13 
REMARK    2  A    between atoms: C_13  and  C_14 
REMARK    3  A    between atoms: C_14  and  S_15 
REMARK    4  A    between atoms: S_15  and  C_16 
REMARK    5  A    between atoms: N_17  and  C_18 
REMARK    6  A    between atoms: C_18  and  C_19 
REMARK    7  A    between atoms: C_25  and  C_26 
ROOT
HETATM    1  N   UNL     1     -41.324  56.311 -55.099  1.00  0.00    -0.326 N 
HETATM    2  C   UNL     1     -42.171  56.549 -56.166  1.00  0.00     0.231 C 
HETATM    3  O   UNL     1     -42.797  55.680 -56.775  1.00  0.00    -0.272 OA
HETATM    4  H   UNL     1     -40.983  57.133 -54.611  1.00  0.00     0.169 HD
ENDROOT
BRANCH   2   5
HETATM    5  C   UNL     1     -42.264  57.985 -56.655  1.00  0.00     0.185 C 
BRANCH   5   6
HETATM    6  S   UNL     1     -43.818  58.847 -56.255  1.00  0.00    -0.081 SA
BRANCH   6   7
HETATM    7  C   UNL     1     -44.181  58.059 -54.748  1.00  0.00     0.192 A 
HETATM    8  N   UNL     1     -43.679  58.411 -53.516  1.00  0.00    -0.307 N 
HETATM    9  C   UNL     1     -44.133  57.430 -52.656  1.00  0.00     0.135 A 
HETATM   10  N   UNL     1     -44.944  56.630 -53.319  1.00  0.00    -0.134 NA
HETATM   11  N   UNL     1     -44.964  57.015 -54.628  1.00  0.00    -0.123 NA
BRANCH   8  12
HETATM   12  C   UNL     1     -43.061  59.680 -53.182  1.00  0.00     0.171 C 
BRANCH  12  13
HETATM   13  C   UNL     1     -41.789  59.586 -52.377  1.00  0.00    -0.040 A 
HETATM   14  C   UNL     1     -41.709  59.981 -51.033  1.00  0.00     0.009 A 
HETATM   15  C   UNL     1     -40.517  59.836 -50.318  1.00  0.00     0.001 A 
HETATM   16  C   UNL     1     -39.396  59.278 -50.929  1.00  0.00     0.000 A 
HETATM   17  C   UNL     1     -39.464  58.859 -52.254  1.00  0.00     0.001 A 
HETATM   18  C   UNL     1     -40.654  59.005 -52.970  1.00  0.00     0.009 A 
ENDBRANCH  12  13
ENDBRANCH   8  12
BRANCH   9  19
HETATM   19  C   UNL     1     -43.861  57.112 -51.190  1.00  0.00     0.057 A 
HETATM   20  C   UNL     1     -43.795  55.666 -50.752  1.00  0.00     0.013 A 
HETATM   21  C   UNL     1     -42.581  56.527 -50.654  1.00  0.00     0.013 A 
ENDBRANCH   9  19
ENDBRANCH   6   7
ENDBRANCH   5   6
ENDBRANCH   2   5
BRANCH   1  22
HETATM   22  C   UNL     1     -40.964  55.048 -54.570  1.00  0.00     0.037 A 
HETATM   23  C   UNL     1     -40.549  53.972 -55.363  1.00  0.00     0.032 A 
HETATM   24  C   UNL     1     -40.187  52.750 -54.789  1.00  0.00     0.041 A 
HETATM   25  C   UNL     1     -40.220  52.597 -53.409  1.00  0.00     0.096 A 
HETATM   26  O   UNL     1     -39.890  51.363 -52.922  1.00  0.00    -0.335 OA
HETATM   27  C   UNL     1     -40.640  53.658 -52.605  1.00  0.00     0.070 A 
HETATM   28  C   UNL     1     -39.514  51.380 -51.547  1.00  0.00     0.217 C 
HETATM   29  C   UNL     1     -39.561  49.943 -51.043  1.00  0.00     0.050 C 
HETATM   30  C   UNL     1     -40.317  52.312 -50.624  1.00  0.00     0.251 C 
HETATM   31  N   UNL     1     -40.735  53.475 -51.222  1.00  0.00    -0.323 N 
HETATM   32  O   UNL     1     -40.496  52.120 -49.424  1.00  0.00    -0.270 OA
HETATM   33  H   UNL     1     -41.177  54.163 -50.628  1.00  0.00     0.169 HD
HETATM   34  C   UNL     1     -41.010  54.881 -53.178  1.00  0.00     0.062 A 
ENDBRANCH   1  22
TORSDOF 7
ENDMDL
MODEL 9
REMARK VINA RESULT:      -7.9      2.244      3.317
REMARK  7 active torsions:
REMARK  status: ('A' for Active; 'I' for Inactive)
REMARK    1  A    between atoms: C_11  and  N_12 
REMARK       I    between atoms: N_12  and  C_13 
REMARK    2  A    between atoms: C_13  and  C_14 
REMARK    3  A    between atoms: C_14  and  S_15 
REMARK    4  A    between atoms: S_15  and  C_16 
REMARK    5  A    between atoms: N_17  and  C_18 
REMARK    6  A    between atoms: C_18  and  C_19 
REMARK    7  A    between atoms: C_25  and  C_26 
ROOT
HETATM    1  N   UNL     1     -43.075  60.784 -52.700  1.00  0.00    -0.326 N 
HETATM    2  C   UNL     1     -41.909  60.082 -52.945  1.00  0.00     0.231 C 
HETATM    3  O   UNL     1     -41.072  59.786 -52.090  1.00  0.00    -0.272 OA
HETATM    4  H   UNL     1     -43.731  60.836 -53.472  1.00  0.00     0.169 HD
ENDROOT
BRANCH   2   5
HETATM    5  C   UNL     1     -41.621  59.723 -54.393  1.00  0.00     0.185 C 
BRANCH   5   6
HETATM    6  S   UNL     1     -42.566  58.312 -55.051  1.00  0.00    -0.081 SA
BRANCH   6   7
HETATM    7  C   UNL     1     -43.266  57.741 -53.564  1.00  0.00     0.192 A 
HETATM    8  N   UNL     1     -42.688  56.841 -52.698  1.00  0.00    -0.307 N 
HETATM    9  C   UNL     1     -43.659  56.593 -51.747  1.00  0.00     0.135 A 
HETATM   10  N   UNL     1     -44.686  57.387 -51.976  1.00  0.00    -0.134 NA
HETATM   11  N   UNL     1     -44.446  58.094 -53.118  1.00  0.00    -0.123 NA
BRANCH   8  12
HETATM   12  C   UNL     1     -41.284  56.479 -52.662  1.00  0.00     0.171 C 
BRANCH  12  13
HETATM   13  C   UNL     1     -40.929  55.202 -53.380  1.00  0.00    -0.040 A 
HETATM   14  C   UNL     1     -40.664  55.152 -54.757  1.00  0.00     0.009 A 
HETATM   15  C   UNL     1     -40.300  53.950 -55.369  1.00  0.00     0.001 A 
HETATM   16  C   UNL     1     -40.177  52.787 -54.613  1.00  0.00     0.000 A 
HETATM   17  C   UNL     1     -40.414  52.822 -53.243  1.00  0.00     0.001 A 
HETATM   18  C   UNL     1     -40.779  54.022 -52.630  1.00  0.00     0.009 A 
ENDBRANCH  12  13
ENDBRANCH   8  12
BRANCH   9  19
HETATM   19  C   UNL     1     -43.760  55.615 -50.582  1.00  0.00     0.057 A 
HETATM   20  C   UNL     1     -43.752  54.130 -50.867  1.00  0.00     0.013 A 
HETATM   21  C   UNL     1     -42.640  54.741 -50.085  1.00  0.00     0.013 A 
ENDBRANCH   9  19
ENDBRANCH   6   7
ENDBRANCH   5   6
ENDBRANCH   2   5
BRANCH   1  22
HETATM   22  C   UNL     1     -43.478  61.350 -51.467  1.00  0.00     0.037 A 
HETATM   23  C   UNL     1     -43.164  62.659 -51.083  1.00  0.00     0.032 A 
HETATM   24  C   UNL     1     -43.602  63.177 -49.861  1.00  0.00     0.041 A 
HETATM   25  C   UNL     1     -44.377  62.395 -49.015  1.00  0.00     0.096 A 
HETATM   26  O   UNL     1     -44.737  62.954 -47.820  1.00  0.00    -0.335 OA
HETATM   27  C   UNL     1     -44.692  61.084 -49.380  1.00  0.00     0.070 A 
HETATM   28  C   UNL     1     -45.857  62.317 -47.212  1.00  0.00     0.217 C 
HETATM   29  C   UNL     1     -45.898  62.760 -45.755  1.00  0.00     0.050 C 
HETATM   30  C   UNL     1     -45.921  60.784 -47.322  1.00  0.00     0.251 C 
HETATM   31  N   UNL     1     -45.415  60.280 -48.495  1.00  0.00    -0.323 N 
HETATM   32  O   UNL     1     -46.467  60.049 -46.503  1.00  0.00    -0.270 OA
HETATM   33  H   UNL     1     -45.529  59.289 -48.655  1.00  0.00     0.169 HD
HETATM   34  C   UNL     1     -44.248  60.561 -50.600  1.00  0.00     0.062 A 
ENDBRANCH   1  22
TORSDOF 7
ENDMDL
MODEL 10
REMARK VINA RESULT:      -7.8      3.779      5.928
REMARK  7 active torsions:
REMARK  status: ('A' for Active; 'I' for Inactive)
REMARK    1  A    between atoms: C_11  and  N_12 
REMARK       I    between atoms: N_12  and  C_13 
REMARK    2  A    between atoms: C_13  and  C_14 
REMARK    3  A    between atoms: C_14  and  S_15 
REMARK    4  A    between atoms: S_15  and  C_16 
REMARK    5  A    between atoms: N_17  and  C_18 
REMARK    6  A    between atoms: C_18  and  C_19 
REMARK    7  A    between atoms: C_25  and  C_26 
ROOT
HETATM    1  N   UNL     1     -43.966  56.864 -56.932  1.00  0.00    -0.326 N 
HETATM    2  C   UNL     1     -43.562  56.909 -55.610  1.00  0.00     0.231 C 
HETATM    3  O   UNL     1     -42.679  57.648 -55.170  1.00  0.00    -0.272 OA
HETATM    4  H   UNL     1     -44.793  56.307 -57.123  1.00  0.00     0.169 HD
ENDROOT
BRANCH   2   5
HETATM    5  C   UNL     1     -44.212  55.915 -54.663  1.00  0.00     0.185 C 
BRANCH   5   6
HETATM    6  S   UNL     1     -43.209  54.449 -54.260  1.00  0.00    -0.081 SA
BRANCH   6   7
HETATM    7  C   UNL     1     -42.782  54.857 -52.624  1.00  0.00     0.192 A 
HETATM    8  N   UNL     1     -41.593  54.550 -52.004  1.00  0.00    -0.307 N 
HETATM    9  C   UNL     1     -41.765  54.947 -50.693  1.00  0.00     0.135 A 
HETATM   10  N   UNL     1     -42.930  55.555 -50.586  1.00  0.00    -0.134 NA
HETATM   11  N   UNL     1     -43.570  55.487 -51.789  1.00  0.00    -0.123 NA
BRANCH   8  12
HETATM   12  C   UNL     1     -40.363  54.163 -52.670  1.00  0.00     0.171 C 
BRANCH  12  13
HETATM   13  C   UNL     1     -40.199  52.684 -52.914  1.00  0.00    -0.040 A 
HETATM   14  C   UNL     1     -40.388  52.096 -54.173  1.00  0.00     0.009 A 
HETATM   15  C   UNL     1     -40.185  50.725 -54.356  1.00  0.00     0.001 A 
HETATM   16  C   UNL     1     -39.773  49.929 -53.290  1.00  0.00     0.000 A 
HETATM   17  C   UNL     1     -39.559  50.499 -52.039  1.00  0.00     0.001 A 
HETATM   18  C   UNL     1     -39.763  51.868 -51.855  1.00  0.00     0.009 A 
ENDBRANCH  12  13
ENDBRANCH   8  12
BRANCH   9  19
HETATM   19  C   UNL     1     -40.923  54.793 -49.432  1.00  0.00     0.057 A 
HETATM   20  C   UNL     1     -40.625  53.405 -48.912  1.00  0.00     0.013 A 
HETATM   21  C   UNL     1     -39.511  54.273 -49.390  1.00  0.00     0.013 A 
ENDBRANCH   9  19
ENDBRANCH   6   7
ENDBRANCH   5   6
ENDBRANCH   2   5
BRANCH   1  22
HETATM   22  C   UNL     1     -43.404  57.581 -58.015  1.00  0.00     0.037 A 
HETATM   23  C   UNL     1     -42.569  56.995 -58.974  1.00  0.00     0.032 A 
HETATM   24  C   UNL     1     -42.054  57.745 -60.035  1.00  0.00     0.041 A 
HETATM   25  C   UNL     1     -42.382  59.088 -60.158  1.00  0.00     0.096 A 
HETATM   26  O   UNL     1     -41.810  59.767 -61.198  1.00  0.00    -0.335 OA
HETATM   27  C   UNL     1     -43.207  59.689 -59.205  1.00  0.00     0.070 A 
HETATM   28  C   UNL     1     -42.499  60.967 -61.537  1.00  0.00     0.217 C 
HETATM   29  C   UNL     1     -41.565  61.800 -62.407  1.00  0.00     0.050 C 
HETATM   30  C   UNL     1     -43.047  61.801 -60.367  1.00  0.00     0.251 C 
HETATM   31  N   UNL     1     -43.479  61.057 -59.297  1.00  0.00    -0.323 N 
HETATM   32  O   UNL     1     -43.203  63.020 -60.392  1.00  0.00    -0.270 OA
HETATM   33  H   UNL     1     -43.941  61.555 -58.548  1.00  0.00     0.169 HD
HETATM   34  C   UNL     1     -43.719  58.942 -58.137  1.00  0.00     0.062 A 
ENDBRANCH   1  22
TORSDOF 7
ENDMDL
