MODEL 1
REMARK VINA RESULT:      -8.7      0.000      0.000
REMARK  10 active torsions:
REMARK  status: ('A' for Active; 'I' for Inactive)
REMARK    1  A    between atoms: C_2  and  C_3 
REMARK    2  A    between atoms: C_3  and  C_4 
REMARK    3  A    between atoms: C_4  and  O_5 
REMARK    4  A    between atoms: O_5  and  C_6 
REMARK    5  A    between atoms: C_9  and  C_10 
REMARK       I    between atoms: C_10  and  N_11 
REMARK    6  A    between atoms: N_11  and  C_12 
REMARK    7  A    between atoms: C_12  and  N_13 
REMARK    8  A    between atoms: N_13  and  C_14 
REMARK    9  A    between atoms: C_16  and  O_17 
REMARK   10  A    between atoms: C_18  and  C_19 
ROOT
HETATM    1  N   UNL     1     -40.969  58.035 -52.250  1.00  0.00    -0.333 N 
HETATM    2  H   UNL     1     -40.080  57.679 -51.913  1.00  0.00     0.168 HD
ENDROOT
BRANCH   1   3
HETATM    3  C   UNL     1     -41.806  58.566 -51.274  1.00  0.00     0.179 C 
HETATM    4  S   UNL     1     -41.246  59.803 -50.315  1.00  0.00    -0.040 SA
BRANCH   3   5
HETATM    5  N   UNL     1     -43.034  57.905 -51.163  1.00  0.00    -0.299 N 
HETATM    6  C   UNL     1     -43.541  56.650 -50.859  1.00  0.00     0.257 C 
HETATM    7  O   UNL     1     -44.734  56.560 -50.561  1.00  0.00    -0.267 OA
HETATM    8  H   UNL     1     -43.830  58.525 -51.219  1.00  0.00     0.171 HD
BRANCH   6   9
HETATM    9  C   UNL     1     -42.735  55.429 -50.841  1.00  0.00     0.032 A 
HETATM   10  C   UNL     1     -42.835  54.576 -51.948  1.00  0.00     0.020 A 
HETATM   11  C   UNL     1     -41.861  53.606 -52.161  1.00  0.00     0.038 A 
HETATM   12  C   UNL     1     -40.773  53.527 -51.291  1.00  0.00     0.068 A 
HETATM   13  C   UNL     1     -40.713  54.318 -50.143  1.00  0.00     0.038 A 
HETATM   14  C   UNL     1     -41.689  55.291 -49.922  1.00  0.00     0.020 A 
BRANCH  12  15
HETATM   15  O   UNL     1     -39.709  52.707 -51.560  1.00  0.00    -0.351 OA
BRANCH  15  16
HETATM   16  C   UNL     1     -39.894  51.407 -50.974  1.00  0.00     0.175 C 
BRANCH  16  17
HETATM   17  C   UNL     1     -39.619  50.339 -52.031  1.00  0.00     0.026 C 
BRANCH  17  18
HETATM   18  C   UNL     1     -39.515  50.953 -53.426  1.00  0.00    -0.002 C 
HETATM   19  C   UNL     1     -39.828  49.938 -54.512  1.00  0.00     0.005 C 
ENDBRANCH  17  18
ENDBRANCH  16  17
ENDBRANCH  15  16
ENDBRANCH  12  15
ENDBRANCH   6   9
ENDBRANCH   3   5
ENDBRANCH   1   3
BRANCH   1  20
HETATM   20  C   UNL     1     -41.280  57.866 -53.618  1.00  0.00     0.036 C 
HETATM   21  C   UNL     1     -41.184  56.601 -54.195  1.00  0.00     0.067 C 
HETATM   22  C   UNL     1     -41.750  56.379 -55.460  1.00  0.00     0.082 C 
HETATM   23  C   UNL     1     -42.370  57.419 -56.171  1.00  0.00     0.050 C 
HETATM   24  C   UNL     1     -42.295  58.715 -55.642  1.00  0.00     0.021 C 
HETATM   25  C   UNL     1     -41.752  58.938 -54.380  1.00  0.00     0.030 C 
BRANCH  22  26
HETATM   26  O   UNL     1     -41.722  55.116 -55.989  1.00  0.00    -0.360 OA
HETATM   27  H   UNL     1     -41.455  55.152 -56.921  1.00  0.00     0.217 HD
ENDBRANCH  22  26
BRANCH  23  28
HETATM   28  C   UNL     1     -43.186  57.238 -57.370  1.00  0.00     0.183 A 
HETATM   29  O   UNL     1     -42.830  56.210 -58.207  1.00  0.00    -0.289 OA
HETATM   30  C   UNL     1     -43.903  56.070 -59.036  1.00  0.00     0.106 A 
HETATM   31  C   UNL     1     -44.843  57.020 -58.676  1.00  0.00     0.093 A 
HETATM   32  C   UNL     1     -44.075  55.128 -60.042  1.00  0.00     0.040 A 
HETATM   33  N   UNL     1     -44.374  57.767 -57.627  1.00  0.00    -0.221 NA
HETATM   34  C   UNL     1     -46.067  57.056 -59.356  1.00  0.00     0.034 A 
HETATM   35  C   UNL     1     -46.286  56.114 -60.373  1.00  0.00     0.002 A 
HETATM   36  C   UNL     1     -45.306  55.169 -60.708  1.00  0.00     0.003 A 
ENDBRANCH  23  28
ENDBRANCH   1  20
TORSDOF 10
ENDMDL
MODEL 2
REMARK VINA RESULT:      -8.7      2.590      7.894
REMARK  10 active torsions:
REMARK  status: ('A' for Active; 'I' for Inactive)
REMARK    1  A    between atoms: C_2  and  C_3 
REMARK    2  A    between atoms: C_3  and  C_4 
REMARK    3  A    between atoms: C_4  and  O_5 
REMARK    4  A    between atoms: O_5  and  C_6 
REMARK    5  A    between atoms: C_9  and  C_10 
REMARK       I    between atoms: C_10  and  N_11 
REMARK    6  A    between atoms: N_11  and  C_12 
REMARK    7  A    between atoms: C_12  and  N_13 
REMARK    8  A    between atoms: N_13  and  C_14 
REMARK    9  A    between atoms: C_16  and  O_17 
REMARK   10  A    between atoms: C_18  and  C_19 
ROOT
HETATM    1  N   UNL     1     -44.127  59.316 -54.593  1.00  0.00    -0.333 N 
HETATM    2  H   UNL     1     -44.628  59.899 -53.929  1.00  0.00     0.168 HD
ENDROOT
BRANCH   1   3
HETATM    3  C   UNL     1     -44.144  59.764 -55.910  1.00  0.00     0.179 C 
HETATM    4  S   UNL     1     -45.572  59.718 -56.761  1.00  0.00    -0.040 SA
BRANCH   3   5
HETATM    5  N   UNL     1     -42.885  60.130 -56.398  1.00  0.00    -0.299 N 
HETATM    6  C   UNL     1     -41.990  59.779 -57.397  1.00  0.00     0.257 C 
HETATM    7  O   UNL     1     -41.099  60.579 -57.689  1.00  0.00    -0.267 OA
HETATM    8  H   UNL     1     -42.523  60.975 -55.979  1.00  0.00     0.171 HD
BRANCH   6   9
HETATM    9  C   UNL     1     -42.061  58.525 -58.149  1.00  0.00     0.032 A 
HETATM   10  C   UNL     1     -42.471  57.381 -57.452  1.00  0.00     0.020 A 
HETATM   11  C   UNL     1     -42.895  56.259 -58.158  1.00  0.00     0.038 A 
HETATM   12  C   UNL     1     -42.948  56.308 -59.552  1.00  0.00     0.068 A 
HETATM   13  C   UNL     1     -42.462  57.415 -60.250  1.00  0.00     0.038 A 
HETATM   14  C   UNL     1     -42.032  58.541 -59.547  1.00  0.00     0.020 A 
BRANCH  12  15
HETATM   15  O   UNL     1     -43.520  55.295 -60.275  1.00  0.00    -0.351 OA
BRANCH  15  16
HETATM   16  C   UNL     1     -44.846  55.004 -59.801  1.00  0.00     0.175 C 
BRANCH  16  17
HETATM   17  C   UNL     1     -45.863  55.706 -60.700  1.00  0.00     0.026 C 
BRANCH  17  18
HETATM   18  C   UNL     1     -46.694  56.717 -59.913  1.00  0.00    -0.002 C 
HETATM   19  C   UNL     1     -46.213  58.140 -60.142  1.00  0.00     0.005 C 
ENDBRANCH  17  18
ENDBRANCH  16  17
ENDBRANCH  15  16
ENDBRANCH  12  15
ENDBRANCH   6   9
ENDBRANCH   3   5
ENDBRANCH   1   3
BRANCH   1  20
HETATM   20  C   UNL     1     -43.568  58.105 -54.128  1.00  0.00     0.036 C 
HETATM   21  C   UNL     1     -44.258  56.909 -54.321  1.00  0.00     0.067 C 
HETATM   22  C   UNL     1     -43.592  55.691 -54.116  1.00  0.00     0.082 C 
HETATM   23  C   UNL     1     -42.258  55.658 -53.675  1.00  0.00     0.050 C 
HETATM   24  C   UNL     1     -41.651  56.871 -53.322  1.00  0.00     0.021 C 
HETATM   25  C   UNL     1     -42.300  58.083 -53.542  1.00  0.00     0.030 C 
BRANCH  22  26
HETATM   26  O   UNL     1     -44.249  54.520 -54.383  1.00  0.00    -0.360 OA
HETATM   27  H   UNL     1     -44.116  53.891 -53.655  1.00  0.00     0.217 HD
ENDBRANCH  22  26
BRANCH  23  28
HETATM   28  C   UNL     1     -41.415  54.465 -53.662  1.00  0.00     0.183 A 
HETATM   29  O   UNL     1     -40.826  54.142 -52.464  1.00  0.00    -0.289 OA
HETATM   30  C   UNL     1     -40.381  52.866 -52.647  1.00  0.00     0.106 A 
HETATM   31  C   UNL     1     -40.704  52.485 -53.938  1.00  0.00     0.093 A 
HETATM   32  C   UNL     1     -39.752  52.050 -51.716  1.00  0.00     0.040 A 
HETATM   33  N   UNL     1     -41.347  53.511 -54.580  1.00  0.00    -0.221 NA
HETATM   34  C   UNL     1     -40.389  51.188 -54.363  1.00  0.00     0.034 A 
HETATM   35  C   UNL     1     -39.763  50.327 -53.449  1.00  0.00     0.002 A 
HETATM   36  C   UNL     1     -39.450  50.753 -52.150  1.00  0.00     0.003 A 
ENDBRANCH  23  28
ENDBRANCH   1  20
TORSDOF 10
ENDMDL
MODEL 3
REMARK VINA RESULT:      -8.7      2.001      7.043
REMARK  10 active torsions:
REMARK  status: ('A' for Active; 'I' for Inactive)
REMARK    1  A    between atoms: C_2  and  C_3 
REMARK    2  A    between atoms: C_3  and  C_4 
REMARK    3  A    between atoms: C_4  and  O_5 
REMARK    4  A    between atoms: O_5  and  C_6 
REMARK    5  A    between atoms: C_9  and  C_10 
REMARK       I    between atoms: C_10  and  N_11 
REMARK    6  A    between atoms: N_11  and  C_12 
REMARK    7  A    between atoms: C_12  and  N_13 
REMARK    8  A    between atoms: N_13  and  C_14 
REMARK    9  A    between atoms: C_16  and  O_17 
REMARK   10  A    between atoms: C_18  and  C_19 
ROOT
HETATM    1  N   UNL     1     -43.286  58.736 -50.896  1.00  0.00    -0.333 N 
HETATM    2  H   UNL     1     -43.446  59.121 -49.970  1.00  0.00     0.168 HD
ENDROOT
BRANCH   1   3
HETATM    3  C   UNL     1     -43.671  59.551 -51.955  1.00  0.00     0.179 C 
HETATM    4  S   UNL     1     -45.261  60.026 -52.073  1.00  0.00    -0.040 SA
BRANCH   3   5
HETATM    5  N   UNL     1     -42.646  59.807 -52.872  1.00  0.00    -0.299 N 
HETATM    6  C   UNL     1     -42.197  59.375 -54.111  1.00  0.00     0.257 C 
HETATM    7  O   UNL     1     -41.411  60.097 -54.730  1.00  0.00    -0.267 OA
HETATM    8  H   UNL     1     -42.096  60.623 -52.640  1.00  0.00     0.171 HD
BRANCH   6   9
HETATM    9  C   UNL     1     -42.626  58.127 -54.742  1.00  0.00     0.032 A 
HETATM   10  C   UNL     1     -43.745  58.184 -55.584  1.00  0.00     0.020 A 
HETATM   11  C   UNL     1     -43.991  57.144 -56.475  1.00  0.00     0.038 A 
HETATM   12  C   UNL     1     -43.092  56.079 -56.548  1.00  0.00     0.068 A 
HETATM   13  C   UNL     1     -42.025  55.979 -55.654  1.00  0.00     0.038 A 
HETATM   14  C   UNL     1     -41.775  57.017 -54.756  1.00  0.00     0.020 A 
BRANCH  12  15
HETATM   15  O   UNL     1     -43.201  55.126 -57.525  1.00  0.00    -0.351 OA
BRANCH  15  16
HETATM   16  C   UNL     1     -43.679  55.697 -58.756  1.00  0.00     0.175 C 
BRANCH  16  17
HETATM   17  C   UNL     1     -42.485  56.058 -59.637  1.00  0.00     0.026 C 
BRANCH  17  18
HETATM   18  C   UNL     1     -42.596  57.487 -60.166  1.00  0.00    -0.002 C 
HETATM   19  C   UNL     1     -41.883  58.478 -59.262  1.00  0.00     0.005 C 
ENDBRANCH  17  18
ENDBRANCH  16  17
ENDBRANCH  15  16
ENDBRANCH  12  15
ENDBRANCH   6   9
ENDBRANCH   3   5
ENDBRANCH   1   3
BRANCH   1  20
HETATM   20  C   UNL     1     -42.791  57.416 -50.994  1.00  0.00     0.036 C 
HETATM   21  C   UNL     1     -43.596  56.418 -51.542  1.00  0.00     0.067 C 
HETATM   22  C   UNL     1     -43.019  55.187 -51.892  1.00  0.00     0.082 C 
HETATM   23  C   UNL     1     -41.658  54.930 -51.658  1.00  0.00     0.050 C 
HETATM   24  C   UNL     1     -40.919  55.886 -50.947  1.00  0.00     0.021 C 
HETATM   25  C   UNL     1     -41.480  57.115 -50.614  1.00  0.00     0.030 C 
BRANCH  22  26
HETATM   26  O   UNL     1     -43.795  54.238 -52.502  1.00  0.00    -0.360 OA
HETATM   27  H   UNL     1     -44.497  53.945 -51.899  1.00  0.00     0.217 HD
ENDBRANCH  22  26
BRANCH  23  28
HETATM   28  C   UNL     1     -40.921  53.788 -52.197  1.00  0.00     0.183 A 
HETATM   29  O   UNL     1     -40.416  52.896 -51.283  1.00  0.00    -0.289 OA
HETATM   30  C   UNL     1     -40.074  51.811 -52.034  1.00  0.00     0.106 A 
HETATM   31  C   UNL     1     -40.371  52.099 -53.355  1.00  0.00     0.093 A 
HETATM   32  C   UNL     1     -39.560  50.601 -51.584  1.00  0.00     0.040 A 
HETATM   33  N   UNL     1     -40.894  53.362 -53.451  1.00  0.00    -0.221 NA
HETATM   34  C   UNL     1     -40.150  51.118 -54.331  1.00  0.00     0.034 A 
HETATM   35  C   UNL     1     -39.641  49.877 -53.917  1.00  0.00     0.002 A 
HETATM   36  C   UNL     1     -39.351  49.627 -52.568  1.00  0.00     0.003 A 
ENDBRANCH  23  28
ENDBRANCH   1  20
TORSDOF 10
ENDMDL
MODEL 4
REMARK VINA RESULT:      -8.4      1.761      2.899
REMARK  10 active torsions:
REMARK  status: ('A' for Active; 'I' for Inactive)
REMARK    1  A    between atoms: C_2  and  C_3 
REMARK    2  A    between atoms: C_3  and  C_4 
REMARK    3  A    between atoms: C_4  and  O_5 
REMARK    4  A    between atoms: O_5  and  C_6 
REMARK    5  A    between atoms: C_9  and  C_10 
REMARK       I    between atoms: C_10  and  N_11 
REMARK    6  A    between atoms: N_11  and  C_12 
REMARK    7  A    between atoms: C_12  and  N_13 
REMARK    8  A    between atoms: N_13  and  C_14 
REMARK    9  A    between atoms: C_16  and  O_17 
REMARK   10  A    between atoms: C_18  and  C_19 
ROOT
HETATM    1  N   UNL     1     -43.205  60.515 -51.922  1.00  0.00    -0.333 N 
HETATM    2  H   UNL     1     -43.343  61.458 -51.572  1.00  0.00     0.168 HD
ENDROOT
BRANCH   1   3
HETATM    3  C   UNL     1     -42.683  59.610 -51.004  1.00  0.00     0.179 C 
HETATM    4  S   UNL     1     -41.204  59.924 -50.311  1.00  0.00    -0.040 SA
BRANCH   3   5
HETATM    5  N   UNL     1     -43.462  58.459 -50.840  1.00  0.00    -0.299 N 
HETATM    6  C   UNL     1     -43.620  57.196 -51.390  1.00  0.00     0.257 C 
HETATM    7  O   UNL     1     -44.226  56.346 -50.734  1.00  0.00    -0.267 OA
HETATM    8  H   UNL     1     -44.035  58.479 -50.008  1.00  0.00     0.171 HD
BRANCH   6   9
HETATM    9  C   UNL     1     -43.080  56.803 -52.692  1.00  0.00     0.032 A 
HETATM   10  C   UNL     1     -41.695  56.914 -52.874  1.00  0.00     0.020 A 
HETATM   11  C   UNL     1     -41.082  56.243 -53.927  1.00  0.00     0.038 A 
HETATM   12  C   UNL     1     -41.851  55.430 -54.761  1.00  0.00     0.068 A 
HETATM   13  C   UNL     1     -43.241  55.383 -54.634  1.00  0.00     0.038 A 
HETATM   14  C   UNL     1     -43.862  56.057 -53.581  1.00  0.00     0.020 A 
BRANCH  12  15
HETATM   15  O   UNL     1     -41.266  54.619 -55.696  1.00  0.00    -0.351 OA
BRANCH  15  16
HETATM   16  C   UNL     1     -40.198  53.847 -55.119  1.00  0.00     0.175 C 
BRANCH  16  17
HETATM   17  C   UNL     1     -40.788  52.628 -54.414  1.00  0.00     0.026 C 
BRANCH  17  18
HETATM   18  C   UNL     1     -40.097  52.374 -53.075  1.00  0.00    -0.002 C 
HETATM   19  C   UNL     1     -40.703  53.212 -51.961  1.00  0.00     0.005 C 
ENDBRANCH  17  18
ENDBRANCH  16  17
ENDBRANCH  15  16
ENDBRANCH  12  15
ENDBRANCH   6   9
ENDBRANCH   3   5
ENDBRANCH   1   3
BRANCH   1  20
HETATM   20  C   UNL     1     -43.465  60.266 -53.288  1.00  0.00     0.036 C 
HETATM   21  C   UNL     1     -42.418  60.311 -54.207  1.00  0.00     0.067 C 
HETATM   22  C   UNL     1     -42.617  59.799 -55.499  1.00  0.00     0.082 C 
HETATM   23  C   UNL     1     -43.864  59.284 -55.893  1.00  0.00     0.050 C 
HETATM   24  C   UNL     1     -44.940  59.414 -55.004  1.00  0.00     0.021 C 
HETATM   25  C   UNL     1     -44.745  59.903 -53.716  1.00  0.00     0.030 C 
BRANCH  22  26
HETATM   26  O   UNL     1     -41.564  59.773 -56.374  1.00  0.00    -0.360 OA
HETATM   27  H   UNL     1     -41.837  60.131 -57.234  1.00  0.00     0.217 HD
ENDBRANCH  22  26
BRANCH  23  28
HETATM   28  C   UNL     1     -44.101  58.521 -57.116  1.00  0.00     0.183 A 
HETATM   29  O   UNL     1     -43.200  57.526 -57.405  1.00  0.00    -0.289 OA
HETATM   30  C   UNL     1     -43.813  56.797 -58.380  1.00  0.00     0.106 A 
HETATM   31  C   UNL     1     -45.036  57.386 -58.645  1.00  0.00     0.093 A 
HETATM   32  C   UNL     1     -43.343  55.640 -58.989  1.00  0.00     0.040 A 
HETATM   33  N   UNL     1     -45.205  58.489 -57.849  1.00  0.00    -0.221 NA
HETATM   34  C   UNL     1     -45.885  56.795 -59.589  1.00  0.00     0.034 A 
HETATM   35  C   UNL     1     -45.454  55.619 -60.221  1.00  0.00     0.002 A 
HETATM   36  C   UNL     1     -44.205  55.054 -59.925  1.00  0.00     0.003 A 
ENDBRANCH  23  28
ENDBRANCH   1  20
TORSDOF 10
ENDMDL
MODEL 5
REMARK VINA RESULT:      -8.3      3.204      6.547
REMARK  10 active torsions:
REMARK  status: ('A' for Active; 'I' for Inactive)
REMARK    1  A    between atoms: C_2  and  C_3 
REMARK    2  A    between atoms: C_3  and  C_4 
REMARK    3  A    between atoms: C_4  and  O_5 
REMARK    4  A    between atoms: O_5  and  C_6 
REMARK    5  A    between atoms: C_9  and  C_10 
REMARK       I    between atoms: C_10  and  N_11 
REMARK    6  A    between atoms: N_11  and  C_12 
REMARK    7  A    between atoms: C_12  and  N_13 
REMARK    8  A    between atoms: N_13  and  C_14 
REMARK    9  A    between atoms: C_16  and  O_17 
REMARK   10  A    between atoms: C_18  and  C_19 
ROOT
HETATM    1  N   UNL     1     -44.496  57.556 -56.241  1.00  0.00    -0.333 N 
HETATM    2  H   UNL     1     -45.371  57.129 -56.528  1.00  0.00     0.168 HD
ENDROOT
BRANCH   1   3
HETATM    3  C   UNL     1     -44.285  58.850 -56.706  1.00  0.00     0.179 C 
HETATM    4  S   UNL     1     -43.482  59.070 -58.146  1.00  0.00    -0.040 SA
BRANCH   3   5
HETATM    5  N   UNL     1     -44.717  59.845 -55.823  1.00  0.00    -0.299 N 
HETATM    6  C   UNL     1     -44.333  60.454 -54.638  1.00  0.00     0.257 C 
HETATM    7  O   UNL     1     -44.845  61.536 -54.345  1.00  0.00    -0.267 OA
HETATM    8  H   UNL     1     -45.501  60.379 -56.174  1.00  0.00     0.171 HD
BRANCH   6   9
HETATM    9  C   UNL     1     -43.328  59.902 -53.729  1.00  0.00     0.032 A 
HETATM   10  C   UNL     1     -43.792  59.202 -52.607  1.00  0.00     0.020 A 
HETATM   11  C   UNL     1     -42.926  58.367 -51.908  1.00  0.00     0.038 A 
HETATM   12  C   UNL     1     -41.618  58.203 -52.365  1.00  0.00     0.068 A 
HETATM   13  C   UNL     1     -41.129  58.961 -53.430  1.00  0.00     0.038 A 
HETATM   14  C   UNL     1     -41.992  59.803 -54.132  1.00  0.00     0.020 A 
BRANCH  12  15
HETATM   15  O   UNL     1     -40.788  57.263 -51.814  1.00  0.00    -0.351 OA
BRANCH  15  16
HETATM   16  C   UNL     1     -41.171  56.961 -50.461  1.00  0.00     0.175 C 
BRANCH  16  17
HETATM   17  C   UNL     1     -40.455  55.688 -50.011  1.00  0.00     0.026 C 
BRANCH  17  18
HETATM   18  C   UNL     1     -41.211  54.999 -48.877  1.00  0.00    -0.002 C 
HETATM   19  C   UNL     1     -40.379  53.905 -48.230  1.00  0.00     0.005 C 
ENDBRANCH  17  18
ENDBRANCH  16  17
ENDBRANCH  15  16
ENDBRANCH  12  15
ENDBRANCH   6   9
ENDBRANCH   3   5
ENDBRANCH   1   3
BRANCH   1  20
HETATM   20  C   UNL     1     -43.581  56.774 -55.501  1.00  0.00     0.036 C 
HETATM   21  C   UNL     1     -44.022  56.080 -54.375  1.00  0.00     0.067 C 
HETATM   22  C   UNL     1     -43.196  55.096 -53.809  1.00  0.00     0.082 C 
HETATM   23  C   UNL     1     -41.918  54.833 -54.330  1.00  0.00     0.050 C 
HETATM   24  C   UNL     1     -41.437  55.667 -55.348  1.00  0.00     0.021 C 
HETATM   25  C   UNL     1     -42.258  56.631 -55.926  1.00  0.00     0.030 C 
BRANCH  22  26
HETATM   26  O   UNL     1     -43.664  54.362 -52.752  1.00  0.00    -0.360 OA
HETATM   27  H   UNL     1     -43.135  54.546 -51.959  1.00  0.00     0.217 HD
ENDBRANCH  22  26
BRANCH  23  28
HETATM   28  C   UNL     1     -41.092  53.683 -53.967  1.00  0.00     0.183 A 
HETATM   29  O   UNL     1     -40.719  53.585 -52.649  1.00  0.00    -0.289 OA
HETATM   30  C   UNL     1     -40.251  52.310 -52.531  1.00  0.00     0.106 A 
HETATM   31  C   UNL     1     -40.347  51.706 -53.772  1.00  0.00     0.093 A 
HETATM   32  C   UNL     1     -39.794  51.683 -51.379  1.00  0.00     0.040 A 
HETATM   33  N   UNL     1     -40.868  52.590 -54.681  1.00  0.00    -0.221 NA
HETATM   34  C   UNL     1     -39.966  50.365 -53.907  1.00  0.00     0.034 A 
HETATM   35  C   UNL     1     -39.508  49.691 -52.765  1.00  0.00     0.002 A 
HETATM   36  C   UNL     1     -39.424  50.340 -51.525  1.00  0.00     0.003 A 
ENDBRANCH  23  28
ENDBRANCH   1  20
TORSDOF 10
ENDMDL
MODEL 6
REMARK VINA RESULT:      -8.3      2.198      6.776
REMARK  10 active torsions:
REMARK  status: ('A' for Active; 'I' for Inactive)
REMARK    1  A    between atoms: C_2  and  C_3 
REMARK    2  A    between atoms: C_3  and  C_4 
REMARK    3  A    between atoms: C_4  and  O_5 
REMARK    4  A    between atoms: O_5  and  C_6 
REMARK    5  A    between atoms: C_9  and  C_10 
REMARK       I    between atoms: C_10  and  N_11 
REMARK    6  A    between atoms: N_11  and  C_12 
REMARK    7  A    between atoms: C_12  and  N_13 
REMARK    8  A    between atoms: N_13  and  C_14 
REMARK    9  A    between atoms: C_16  and  O_17 
REMARK   10  A    between atoms: C_18  and  C_19 
ROOT
HETATM    1  N   UNL     1     -41.856  58.857 -50.498  1.00  0.00    -0.333 N 
HETATM    2  H   UNL     1     -41.178  59.106 -49.785  1.00  0.00     0.168 HD
ENDROOT
BRANCH   1   3
HETATM    3  C   UNL     1     -42.868  59.788 -50.709  1.00  0.00     0.179 C 
HETATM    4  S   UNL     1     -42.462  61.383 -50.949  1.00  0.00    -0.040 SA
BRANCH   3   5
HETATM    5  N   UNL     1     -44.157  59.255 -50.600  1.00  0.00    -0.299 N 
HETATM    6  C   UNL     1     -45.060  58.499 -51.332  1.00  0.00     0.257 C 
HETATM    7  O   UNL     1     -45.998  57.969 -50.734  1.00  0.00    -0.267 OA
HETATM    8  H   UNL     1     -44.550  59.344 -49.673  1.00  0.00     0.171 HD
BRANCH   6   9
HETATM    9  C   UNL     1     -44.945  58.266 -52.772  1.00  0.00     0.032 A 
HETATM   10  C   UNL     1     -44.754  59.387 -53.591  1.00  0.00     0.020 A 
HETATM   11  C   UNL     1     -44.292  59.220 -54.893  1.00  0.00     0.038 A 
HETATM   12  C   UNL     1     -43.983  57.938 -55.349  1.00  0.00     0.068 A 
HETATM   13  C   UNL     1     -44.250  56.814 -54.566  1.00  0.00     0.038 A 
HETATM   14  C   UNL     1     -44.717  56.976 -53.261  1.00  0.00     0.020 A 
BRANCH  12  15
HETATM   15  O   UNL     1     -43.364  57.745 -56.555  1.00  0.00    -0.351 OA
BRANCH  15  16
HETATM   16  C   UNL     1     -43.067  56.354 -56.770  1.00  0.00     0.175 C 
BRANCH  16  17
HETATM   17  C   UNL     1     -43.036  56.076 -58.272  1.00  0.00     0.026 C 
BRANCH  17  18
HETATM   18  C   UNL     1     -43.083  57.373 -59.077  1.00  0.00    -0.002 C 
HETATM   19  C   UNL     1     -41.947  57.452 -60.083  1.00  0.00     0.005 C 
ENDBRANCH  17  18
ENDBRANCH  16  17
ENDBRANCH  15  16
ENDBRANCH  12  15
ENDBRANCH   6   9
ENDBRANCH   3   5
ENDBRANCH   1   3
BRANCH   1  20
HETATM   20  C   UNL     1     -41.747  57.588 -51.109  1.00  0.00     0.036 C 
HETATM   21  C   UNL     1     -41.360  57.497 -52.445  1.00  0.00     0.067 C 
HETATM   22  C   UNL     1     -40.986  56.249 -52.968  1.00  0.00     0.082 C 
HETATM   23  C   UNL     1     -41.039  55.087 -52.181  1.00  0.00     0.050 C 
HETATM   24  C   UNL     1     -41.599  55.183 -50.900  1.00  0.00     0.021 C 
HETATM   25  C   UNL     1     -41.953  56.420 -50.369  1.00  0.00     0.030 C 
BRANCH  22  26
HETATM   26  O   UNL     1     -40.531  56.178 -54.257  1.00  0.00    -0.360 OA
HETATM   27  H   UNL     1     -39.834  56.838 -54.401  1.00  0.00     0.217 HD
ENDBRANCH  22  26
BRANCH  23  28
HETATM   28  C   UNL     1     -40.452  53.801 -52.554  1.00  0.00     0.183 A 
HETATM   29  O   UNL     1     -40.103  52.963 -51.525  1.00  0.00    -0.289 OA
HETATM   30  C   UNL     1     -39.893  51.761 -52.133  1.00  0.00     0.106 A 
HETATM   31  C   UNL     1     -40.108  51.929 -53.490  1.00  0.00     0.093 A 
HETATM   32  C   UNL     1     -39.564  50.555 -51.527  1.00  0.00     0.040 A 
HETATM   33  N   UNL     1     -40.448  53.231 -53.751  1.00  0.00    -0.221 NA
HETATM   34  C   UNL     1     -39.996  50.820 -54.338  1.00  0.00     0.034 A 
HETATM   35  C   UNL     1     -39.676  49.579 -53.765  1.00  0.00     0.002 A 
HETATM   36  C   UNL     1     -39.464  49.452 -52.385  1.00  0.00     0.003 A 
ENDBRANCH  23  28
ENDBRANCH   1  20
TORSDOF 10
ENDMDL
MODEL 7
REMARK VINA RESULT:      -8.2      2.094      2.890
REMARK  10 active torsions:
REMARK  status: ('A' for Active; 'I' for Inactive)
REMARK    1  A    between atoms: C_2  and  C_3 
REMARK    2  A    between atoms: C_3  and  C_4 
REMARK    3  A    between atoms: C_4  and  O_5 
REMARK    4  A    between atoms: O_5  and  C_6 
REMARK    5  A    between atoms: C_9  and  C_10 
REMARK       I    between atoms: C_10  and  N_11 
REMARK    6  A    between atoms: N_11  and  C_12 
REMARK    7  A    between atoms: C_12  and  N_13 
REMARK    8  A    between atoms: N_13  and  C_14 
REMARK    9  A    between atoms: C_16  and  O_17 
REMARK   10  A    between atoms: C_18  and  C_19 
ROOT
HETATM    1  N   UNL     1     -43.855  60.491 -52.313  1.00  0.00    -0.333 N 
HETATM    2  H   UNL     1     -43.823  61.500 -52.427  1.00  0.00     0.168 HD
ENDROOT
BRANCH   1   3
HETATM    3  C   UNL     1     -43.864  60.041 -50.997  1.00  0.00     0.179 C 
HETATM    4  S   UNL     1     -45.323  59.805 -50.234  1.00  0.00    -0.040 SA
BRANCH   3   5
HETATM    5  N   UNL     1     -42.590  59.923 -50.432  1.00  0.00    -0.299 N 
HETATM    6  C   UNL     1     -41.409  59.219 -50.612  1.00  0.00     0.257 C 
HETATM    7  O   UNL     1     -40.386  59.647 -50.072  1.00  0.00    -0.267 OA
HETATM    8  H   UNL     1     -42.397  60.624 -49.730  1.00  0.00     0.171 HD
BRANCH   6   9
HETATM    9  C   UNL     1     -41.298  58.013 -51.433  1.00  0.00     0.032 A 
HETATM   10  C   UNL     1     -42.055  56.900 -51.046  1.00  0.00     0.020 A 
HETATM   11  C   UNL     1     -42.273  55.865 -51.950  1.00  0.00     0.038 A 
HETATM   12  C   UNL     1     -41.770  55.974 -53.247  1.00  0.00     0.068 A 
HETATM   13  C   UNL     1     -40.947  57.040 -53.611  1.00  0.00     0.038 A 
HETATM   14  C   UNL     1     -40.722  58.079 -52.706  1.00  0.00     0.020 A 
BRANCH  12  15
HETATM   15  O   UNL     1     -42.107  55.065 -54.215  1.00  0.00    -0.351 OA
BRANCH  15  16
HETATM   16  C   UNL     1     -40.967  54.280 -54.609  1.00  0.00     0.175 C 
BRANCH  16  17
HETATM   17  C   UNL     1     -41.254  52.807 -54.328  1.00  0.00     0.026 C 
BRANCH  17  18
HETATM   18  C   UNL     1     -39.990  52.069 -53.891  1.00  0.00    -0.002 C 
HETATM   19  C   UNL     1     -40.032  50.601 -54.281  1.00  0.00     0.005 C 
ENDBRANCH  17  18
ENDBRANCH  16  17
ENDBRANCH  15  16
ENDBRANCH  12  15
ENDBRANCH   6   9
ENDBRANCH   3   5
ENDBRANCH   1   3
BRANCH   1  20
HETATM   20  C   UNL     1     -43.792  59.687 -53.472  1.00  0.00     0.036 C 
HETATM   21  C   UNL     1     -44.470  58.469 -53.502  1.00  0.00     0.067 C 
HETATM   22  C   UNL     1     -44.638  57.808 -54.729  1.00  0.00     0.082 C 
HETATM   23  C   UNL     1     -44.096  58.329 -55.916  1.00  0.00     0.050 C 
HETATM   24  C   UNL     1     -43.272  59.460 -55.823  1.00  0.00     0.021 C 
HETATM   25  C   UNL     1     -43.118  60.130 -54.613  1.00  0.00     0.030 C 
BRANCH  22  26
HETATM   26  O   UNL     1     -45.372  56.653 -54.767  1.00  0.00    -0.360 OA
HETATM   27  H   UNL     1     -46.316  56.855 -54.667  1.00  0.00     0.217 HD
ENDBRANCH  22  26
BRANCH  23  28
HETATM   28  C   UNL     1     -44.415  57.848 -57.259  1.00  0.00     0.183 A 
HETATM   29  O   UNL     1     -43.538  56.951 -57.815  1.00  0.00    -0.289 OA
HETATM   30  C   UNL     1     -44.215  56.444 -58.884  1.00  0.00     0.106 A 
HETATM   31  C   UNL     1     -45.452  57.063 -58.934  1.00  0.00     0.093 A 
HETATM   32  C   UNL     1     -43.790  55.454 -59.760  1.00  0.00     0.040 A 
HETATM   33  N   UNL     1     -45.564  57.964 -57.908  1.00  0.00    -0.221 NA
HETATM   34  C   UNL     1     -46.363  56.682 -59.928  1.00  0.00     0.034 A 
HETATM   35  C   UNL     1     -45.977  55.677 -60.828  1.00  0.00     0.002 A 
HETATM   36  C   UNL     1     -44.713  55.076 -60.744  1.00  0.00     0.003 A 
ENDBRANCH  23  28
ENDBRANCH   1  20
TORSDOF 10
ENDMDL
MODEL 8
REMARK VINA RESULT:      -7.9      2.442      6.793
REMARK  10 active torsions:
REMARK  status: ('A' for Active; 'I' for Inactive)
REMARK    1  A    between atoms: C_2  and  C_3 
REMARK    2  A    between atoms: C_3  and  C_4 
REMARK    3  A    between atoms: C_4  and  O_5 
REMARK    4  A    between atoms: O_5  and  C_6 
REMARK    5  A    between atoms: C_9  and  C_10 
REMARK       I    between atoms: C_10  and  N_11 
REMARK    6  A    between atoms: N_11  and  C_12 
REMARK    7  A    between atoms: C_12  and  N_13 
REMARK    8  A    between atoms: N_13  and  C_14 
REMARK    9  A    between atoms: C_16  and  O_17 
REMARK   10  A    between atoms: C_18  and  C_19 
ROOT
HETATM    1  N   UNL     1     -42.106  60.285 -51.199  1.00  0.00    -0.333 N 
HETATM    2  H   UNL     1     -41.247  60.780 -50.981  1.00  0.00     0.168 HD
ENDROOT
BRANCH   1   3
HETATM    3  C   UNL     1     -43.211  61.092 -51.449  1.00  0.00     0.179 C 
HETATM    4  S   UNL     1     -44.548  60.960 -50.469  1.00  0.00    -0.040 SA
BRANCH   3   5
HETATM    5  N   UNL     1     -43.083  61.883 -52.596  1.00  0.00    -0.299 N 
HETATM    6  C   UNL     1     -43.230  61.790 -53.972  1.00  0.00     0.257 C 
HETATM    7  O   UNL     1     -43.324  62.835 -54.620  1.00  0.00    -0.267 OA
HETATM    8  H   UNL     1     -42.933  62.861 -52.393  1.00  0.00     0.171 HD
BRANCH   6   9
HETATM    9  C   UNL     1     -43.312  60.523 -54.698  1.00  0.00     0.032 A 
HETATM   10  C   UNL     1     -42.117  59.819 -54.899  1.00  0.00     0.020 A 
HETATM   11  C   UNL     1     -42.160  58.474 -55.255  1.00  0.00     0.038 A 
HETATM   12  C   UNL     1     -43.395  57.835 -55.362  1.00  0.00     0.068 A 
HETATM   13  C   UNL     1     -44.587  58.551 -55.245  1.00  0.00     0.038 A 
HETATM   14  C   UNL     1     -44.550  59.901 -54.891  1.00  0.00     0.020 A 
BRANCH  12  15
HETATM   15  O   UNL     1     -43.478  56.479 -55.538  1.00  0.00    -0.351 OA
BRANCH  15  16
HETATM   16  C   UNL     1     -42.779  56.066 -56.726  1.00  0.00     0.175 C 
BRANCH  16  17
HETATM   17  C   UNL     1     -43.508  56.614 -57.951  1.00  0.00     0.026 C 
BRANCH  17  18
HETATM   18  C   UNL     1     -43.137  55.834 -59.212  1.00  0.00    -0.002 C 
HETATM   19  C   UNL     1     -44.182  54.784 -59.551  1.00  0.00     0.005 C 
ENDBRANCH  17  18
ENDBRANCH  16  17
ENDBRANCH  15  16
ENDBRANCH  12  15
ENDBRANCH   6   9
ENDBRANCH   3   5
ENDBRANCH   1   3
BRANCH   1  20
HETATM   20  C   UNL     1     -42.098  58.874 -51.131  1.00  0.00     0.036 C 
HETATM   21  C   UNL     1     -43.137  58.151 -51.716  1.00  0.00     0.067 C 
HETATM   22  C   UNL     1     -42.994  56.766 -51.892  1.00  0.00     0.082 C 
HETATM   23  C   UNL     1     -41.845  56.091 -51.448  1.00  0.00     0.050 C 
HETATM   24  C   UNL     1     -40.900  56.817 -50.708  1.00  0.00     0.021 C 
HETATM   25  C   UNL     1     -41.027  58.193 -50.547  1.00  0.00     0.030 C 
BRANCH  22  26
HETATM   26  O   UNL     1     -43.982  56.072 -52.538  1.00  0.00    -0.360 OA
HETATM   27  H   UNL     1     -43.629  55.666 -53.346  1.00  0.00     0.217 HD
ENDBRANCH  22  26
BRANCH  23  28
HETATM   28  C   UNL     1     -41.502  54.713 -51.793  1.00  0.00     0.183 A 
HETATM   29  O   UNL     1     -41.773  54.316 -53.079  1.00  0.00    -0.289 OA
HETATM   30  C   UNL     1     -41.087  53.146 -53.216  1.00  0.00     0.106 A 
HETATM   31  C   UNL     1     -40.452  52.883 -52.015  1.00  0.00     0.093 A 
HETATM   32  C   UNL     1     -40.986  52.355 -54.354  1.00  0.00     0.040 A 
HETATM   33  N   UNL     1     -40.733  53.876 -51.112  1.00  0.00    -0.221 NA
HETATM   34  C   UNL     1     -39.640  51.747 -51.909  1.00  0.00     0.034 A 
HETATM   35  C   UNL     1     -39.501  50.927 -53.040  1.00  0.00     0.002 A 
HETATM   36  C   UNL     1     -40.164  51.227 -54.238  1.00  0.00     0.003 A 
ENDBRANCH  23  28
ENDBRANCH   1  20
TORSDOF 10
ENDMDL
MODEL 9
REMARK VINA RESULT:      -7.9      2.479      5.194
REMARK  10 active torsions:
REMARK  status: ('A' for Active; 'I' for Inactive)
REMARK    1  A    between atoms: C_2  and  C_3 
REMARK    2  A    between atoms: C_3  and  C_4 
REMARK    3  A    between atoms: C_4  and  O_5 
REMARK    4  A    between atoms: O_5  and  C_6 
REMARK    5  A    between atoms: C_9  and  C_10 
REMARK       I    between atoms: C_10  and  N_11 
REMARK    6  A    between atoms: N_11  and  C_12 
REMARK    7  A    between atoms: C_12  and  N_13 
REMARK    8  A    between atoms: N_13  and  C_14 
REMARK    9  A    between atoms: C_16  and  O_17 
REMARK   10  A    between atoms: C_18  and  C_19 
ROOT
HETATM    1  N   UNL     1     -42.502  56.255 -50.604  1.00  0.00    -0.333 N 
HETATM    2  H   UNL     1     -42.039  56.523 -49.741  1.00  0.00     0.168 HD
ENDROOT
BRANCH   1   3
HETATM    3  C   UNL     1     -42.819  54.905 -50.714  1.00  0.00     0.179 C 
HETATM    4  S   UNL     1     -44.311  54.380 -50.200  1.00  0.00    -0.040 SA
BRANCH   3   5
HETATM    5  N   UNL     1     -41.764  54.114 -51.182  1.00  0.00    -0.299 N 
HETATM    6  C   UNL     1     -41.051  53.876 -52.347  1.00  0.00     0.257 C 
HETATM    7  O   UNL     1     -39.960  53.309 -52.258  1.00  0.00    -0.267 OA
HETATM    8  H   UNL     1     -41.279  53.618 -50.447  1.00  0.00     0.171 HD
BRANCH   6   9
HETATM    9  C   UNL     1     -41.504  54.287 -53.676  1.00  0.00     0.032 A 
HETATM   10  C   UNL     1     -42.791  53.894 -54.067  1.00  0.00     0.020 A 
HETATM   11  C   UNL     1     -43.411  54.529 -55.139  1.00  0.00     0.038 A 
HETATM   12  C   UNL     1     -42.756  55.581 -55.781  1.00  0.00     0.068 A 
HETATM   13  C   UNL     1     -41.443  55.919 -55.449  1.00  0.00     0.038 A 
HETATM   14  C   UNL     1     -40.815  55.282 -54.377  1.00  0.00     0.020 A 
BRANCH  12  15
HETATM   15  O   UNL     1     -43.395  56.344 -56.722  1.00  0.00    -0.351 OA
BRANCH  15  16
HETATM   16  C   UNL     1     -42.819  56.152 -58.025  1.00  0.00     0.175 C 
BRANCH  16  17
HETATM   17  C   UNL     1     -43.924  56.231 -59.077  1.00  0.00     0.026 C 
BRANCH  17  18
HETATM   18  C   UNL     1     -44.269  54.847 -59.623  1.00  0.00    -0.002 C 
HETATM   19  C   UNL     1     -44.935  54.931 -60.986  1.00  0.00     0.005 C 
ENDBRANCH  17  18
ENDBRANCH  16  17
ENDBRANCH  15  16
ENDBRANCH  12  15
ENDBRANCH   6   9
ENDBRANCH   3   5
ENDBRANCH   1   3
BRANCH   1  20
HETATM   20  C   UNL     1     -42.680  57.240 -51.600  1.00  0.00     0.036 C 
HETATM   21  C   UNL     1     -41.599  58.032 -51.986  1.00  0.00     0.067 C 
HETATM   22  C   UNL     1     -41.699  58.808 -53.152  1.00  0.00     0.082 C 
HETATM   23  C   UNL     1     -42.882  58.834 -53.908  1.00  0.00     0.050 C 
HETATM   24  C   UNL     1     -44.005  58.166 -53.399  1.00  0.00     0.021 C 
HETATM   25  C   UNL     1     -43.907  57.381 -52.254  1.00  0.00     0.030 C 
BRANCH  22  26
HETATM   26  O   UNL     1     -40.609  59.523 -53.570  1.00  0.00    -0.360 OA
HETATM   27  H   UNL     1     -40.185  59.957 -52.813  1.00  0.00     0.217 HD
ENDBRANCH  22  26
BRANCH  23  28
HETATM   28  C   UNL     1     -43.004  59.412 -55.245  1.00  0.00     0.183 A 
HETATM   29  O   UNL     1     -41.850  59.501 -55.984  1.00  0.00    -0.289 OA
HETATM   30  C   UNL     1     -42.286  59.762 -57.249  1.00  0.00     0.106 A 
HETATM   31  C   UNL     1     -43.667  59.834 -57.215  1.00  0.00     0.093 A 
HETATM   32  C   UNL     1     -41.514  59.895 -58.396  1.00  0.00     0.040 A 
HETATM   33  N   UNL     1     -44.114  59.626 -55.936  1.00  0.00    -0.221 NA
HETATM   34  C   UNL     1     -44.366  60.053 -58.409  1.00  0.00     0.034 A 
HETATM   35  C   UNL     1     -43.625  60.183 -59.594  1.00  0.00     0.002 A 
HETATM   36  C   UNL     1     -42.225  60.105 -59.585  1.00  0.00     0.003 A 
ENDBRANCH  23  28
ENDBRANCH   1  20
TORSDOF 10
ENDMDL
MODEL 10
REMARK VINA RESULT:      -7.9      2.923      7.473
REMARK  10 active torsions:
REMARK  status: ('A' for Active; 'I' for Inactive)
REMARK    1  A    between atoms: C_2  and  C_3 
REMARK    2  A    between atoms: C_3  and  C_4 
REMARK    3  A    between atoms: C_4  and  O_5 
REMARK    4  A    between atoms: O_5  and  C_6 
REMARK    5  A    between atoms: C_9  and  C_10 
REMARK       I    between atoms: C_10  and  N_11 
REMARK    6  A    between atoms: N_11  and  C_12 
REMARK    7  A    between atoms: C_12  and  N_13 
REMARK    8  A    between atoms: N_13  and  C_14 
REMARK    9  A    between atoms: C_16  and  O_17 
REMARK   10  A    between atoms: C_18  and  C_19 
ROOT
HETATM    1  N   UNL     1     -41.929  53.830 -51.001  1.00  0.00    -0.333 N 
HETATM    2  H   UNL     1     -42.625  53.130 -50.764  1.00  0.00     0.168 HD
ENDROOT
BRANCH   1   3
HETATM    3  C   UNL     1     -40.606  53.408 -50.916  1.00  0.00     0.179 C 
HETATM    4  S   UNL     1     -39.623  54.062 -49.746  1.00  0.00    -0.040 SA
BRANCH   3   5
HETATM    5  N   UNL     1     -40.234  52.512 -51.924  1.00  0.00    -0.299 N 
HETATM    6  C   UNL     1     -40.147  52.446 -53.307  1.00  0.00     0.257 C 
HETATM    7  O   UNL     1     -39.454  51.556 -53.805  1.00  0.00    -0.267 OA
HETATM    8  H   UNL     1     -39.791  51.675 -51.573  1.00  0.00     0.171 HD
BRANCH   6   9
HETATM    9  C   UNL     1     -40.805  53.390 -54.210  1.00  0.00     0.032 A 
HETATM   10  C   UNL     1     -42.182  53.230 -54.415  1.00  0.00     0.020 A 
HETATM   11  C   UNL     1     -42.923  54.273 -54.962  1.00  0.00     0.038 A 
HETATM   12  C   UNL     1     -42.291  55.482 -55.254  1.00  0.00     0.068 A 
HETATM   13  C   UNL     1     -40.907  55.617 -55.128  1.00  0.00     0.038 A 
HETATM   14  C   UNL     1     -40.157  54.572 -54.585  1.00  0.00     0.020 A 
BRANCH  12  15
HETATM   15  O   UNL     1     -43.010  56.586 -55.627  1.00  0.00    -0.351 OA
BRANCH  15  16
HETATM   16  C   UNL     1     -42.636  57.029 -56.943  1.00  0.00     0.175 C 
BRANCH  16  17
HETATM   17  C   UNL     1     -43.682  56.551 -57.948  1.00  0.00     0.026 C 
BRANCH  17  18
HETATM   18  C   UNL     1     -43.031  55.810 -59.116  1.00  0.00    -0.002 C 
HETATM   19  C   UNL     1     -44.025  55.538 -60.232  1.00  0.00     0.005 C 
ENDBRANCH  17  18
ENDBRANCH  16  17
ENDBRANCH  15  16
ENDBRANCH  12  15
ENDBRANCH   6   9
ENDBRANCH   3   5
ENDBRANCH   1   3
BRANCH   1  20
HETATM   20  C   UNL     1     -42.372  55.140 -51.291  1.00  0.00     0.036 C 
HETATM   21  C   UNL     1     -43.720  55.460 -51.137  1.00  0.00     0.067 C 
HETATM   22  C   UNL     1     -44.111  56.809 -51.154  1.00  0.00     0.082 C 
HETATM   23  C   UNL     1     -43.175  57.834 -51.368  1.00  0.00     0.050 C 
HETATM   24  C   UNL     1     -41.861  57.469 -51.693  1.00  0.00     0.021 C 
HETATM   25  C   UNL     1     -41.464  56.135 -51.659  1.00  0.00     0.030 C 
BRANCH  22  26
HETATM   26  O   UNL     1     -45.423  57.124 -50.923  1.00  0.00    -0.360 OA
HETATM   27  H   UNL     1     -45.485  57.816 -50.246  1.00  0.00     0.217 HD
ENDBRANCH  22  26
BRANCH  23  28
HETATM   28  C   UNL     1     -43.438  59.257 -51.167  1.00  0.00     0.183 A 
HETATM   29  O   UNL     1     -44.583  59.580 -50.482  1.00  0.00    -0.289 OA
HETATM   30  C   UNL     1     -44.422  60.898 -50.170  1.00  0.00     0.106 A 
HETATM   31  C   UNL     1     -43.207  61.311 -50.689  1.00  0.00     0.093 A 
HETATM   32  C   UNL     1     -45.280  61.700 -49.429  1.00  0.00     0.040 A 
HETATM   33  N   UNL     1     -42.596  60.267 -51.334  1.00  0.00    -0.221 NA
HETATM   34  C   UNL     1     -42.785  62.628 -50.465  1.00  0.00     0.034 A 
HETATM   35  C   UNL     1     -43.618  63.469 -49.711  1.00  0.00     0.002 A 
HETATM   36  C   UNL     1     -44.842  63.012 -49.205  1.00  0.00     0.003 A 
ENDBRANCH  23  28
ENDBRANCH   1  20
TORSDOF 10
ENDMDL
