MODEL 1
REMARK VINA RESULT:      -7.9      0.000      0.000
REMARK  3 active torsions:
REMARK  status: ('A' for Active; 'I' for Inactive)
REMARK    1  A    between atoms: C_9  and  C_10 
REMARK       I    between atoms: C_10  and  N_11 
REMARK    2  A    between atoms: N_11  and  C_12 
REMARK    3  A    between atoms: C_12  and  C_13 
ROOT
HETATM    1  C   UNL     1     -41.107  55.905 -50.413  1.00  0.00     0.258 C 
HETATM    2  N   UNL     1     -41.306  56.663 -51.543  1.00  0.00    -0.342 N 
HETATM    3  O   UNL     1     -41.244  56.338 -49.276  1.00  0.00    -0.267 OA
HETATM    4  H   UNL     1     -41.304  56.143 -52.421  1.00  0.00     0.164 HD
ENDROOT
BRANCH   1   5
HETATM    5  C   UNL     1     -40.711  54.528 -50.664  1.00  0.00     0.105 A 
HETATM    6  C   UNL     1     -40.491  53.919 -51.887  1.00  0.00     0.169 A 
HETATM    7  N   UNL     1     -40.572  54.405 -53.168  1.00  0.00    -0.233 NA
HETATM    8  N   UNL     1     -40.165  52.586 -51.614  1.00  0.00    -0.219 N 
HETATM    9  C   UNL     1     -40.343  53.553 -54.126  1.00  0.00     0.035 A 
HETATM   10  C   UNL     1     -40.440  54.028 -55.553  1.00  0.00     0.070 C 
HETATM   11  C   UNL     1     -39.990  52.111 -53.927  1.00  0.00     0.053 A 
HETATM   12  C   UNL     1     -39.912  51.682 -52.655  1.00  0.00     0.036 A 
HETATM   13  C   UNL     1     -39.571  50.269 -52.294  1.00  0.00     0.070 C 
HETATM   14  N   UNL     1     -40.146  52.342 -50.282  1.00  0.00    -0.170 NA
HETATM   15  C   UNL     1     -40.486  53.502 -49.710  1.00  0.00     0.071 A 
HETATM   16  C   UNL     1     -40.580  53.597 -48.231  1.00  0.00     0.073 C 
ENDBRANCH   1   5
BRANCH   2  17
HETATM   17  C   UNL     1     -41.907  58.004 -51.563  1.00  0.00     0.079 C 
HETATM   18  C   UNL     1     -43.355  57.911 -51.044  1.00  0.00     0.046 C 
HETATM   19  C   UNL     1     -41.136  59.027 -50.700  1.00  0.00     0.046 C 
BRANCH  17  20
HETATM   20  C   UNL     1     -41.905  58.488 -53.012  1.00  0.00     0.128 A 
HETATM   21  S   UNL     1     -42.715  57.612 -54.264  1.00  0.00    -0.031 SA
HETATM   22  C   UNL     1     -42.124  58.777 -55.375  1.00  0.00     0.187 A 
HETATM   23  N   UNL     1     -42.364  58.678 -56.696  1.00  0.00    -0.377 N 
HETATM   24  N   UNL     1     -41.416  59.731 -54.817  1.00  0.00    -0.124 NA
HETATM   25  H   UNL     1     -42.584  57.760 -57.067  1.00  0.00     0.158 HD
HETATM   26  H   UNL     1     -41.755  59.227 -57.293  1.00  0.00     0.158 HD
HETATM   27  N   UNL     1     -41.288  59.568 -53.453  1.00  0.00    -0.142 NA
ENDBRANCH  17  20
ENDBRANCH   2  17
TORSDOF 3
ENDMDL
MODEL 2
REMARK VINA RESULT:      -7.5      1.959      3.290
REMARK  3 active torsions:
REMARK  status: ('A' for Active; 'I' for Inactive)
REMARK    1  A    between atoms: C_9  and  C_10 
REMARK       I    between atoms: C_10  and  N_11 
REMARK    2  A    between atoms: N_11  and  C_12 
REMARK    3  A    between atoms: C_12  and  C_13 
ROOT
HETATM    1  C   UNL     1     -42.845  56.468 -53.163  1.00  0.00     0.258 C 
HETATM    2  N   UNL     1     -42.064  57.404 -52.527  1.00  0.00    -0.342 N 
HETATM    3  O   UNL     1     -44.002  56.676 -53.510  1.00  0.00    -0.267 OA
HETATM    4  H   UNL     1     -41.080  57.154 -52.430  1.00  0.00     0.164 HD
ENDROOT
BRANCH   1   5
HETATM    5  C   UNL     1     -42.196  55.188 -53.398  1.00  0.00     0.105 A 
HETATM    6  C   UNL     1     -41.405  54.466 -52.521  1.00  0.00     0.169 A 
HETATM    7  N   UNL     1     -41.017  54.723 -51.230  1.00  0.00    -0.233 NA
HETATM    8  N   UNL     1     -40.985  53.325 -53.213  1.00  0.00    -0.219 N 
HETATM    9  C   UNL     1     -40.220  53.852 -50.681  1.00  0.00     0.035 A 
HETATM   10  C   UNL     1     -39.744  54.097 -49.271  1.00  0.00     0.070 C 
HETATM   11  C   UNL     1     -39.720  52.607 -51.344  1.00  0.00     0.053 A 
HETATM   12  C   UNL     1     -40.134  52.391 -52.605  1.00  0.00     0.036 A 
HETATM   13  C   UNL     1     -39.720  51.192 -53.402  1.00  0.00     0.070 C 
HETATM   14  N   UNL     1     -41.495  53.288 -54.467  1.00  0.00    -0.170 NA
HETATM   15  C   UNL     1     -42.211  54.411 -54.585  1.00  0.00     0.071 A 
HETATM   16  C   UNL     1     -42.912  54.710 -55.860  1.00  0.00     0.073 C 
ENDBRANCH   1   5
BRANCH   2  17
HETATM   17  C   UNL     1     -42.411  58.823 -52.368  1.00  0.00     0.079 C 
HETATM   18  C   UNL     1     -43.813  58.928 -51.735  1.00  0.00     0.046 C 
HETATM   19  C   UNL     1     -41.410  59.596 -51.483  1.00  0.00     0.046 C 
BRANCH  17  20
HETATM   20  C   UNL     1     -42.421  59.453 -53.760  1.00  0.00     0.128 A 
HETATM   21  S   UNL     1     -43.838  60.203 -54.408  1.00  0.00    -0.031 SA
HETATM   22  C   UNL     1     -42.955  60.481 -55.851  1.00  0.00     0.187 A 
HETATM   23  N   UNL     1     -43.524  61.057 -56.927  1.00  0.00    -0.377 N 
HETATM   24  N   UNL     1     -41.712  60.064 -55.800  1.00  0.00    -0.124 NA
HETATM   25  H   UNL     1     -44.533  61.007 -57.009  1.00  0.00     0.158 HD
HETATM   26  H   UNL     1     -43.032  60.923 -57.804  1.00  0.00     0.158 HD
HETATM   27  N   UNL     1     -41.399  59.471 -54.594  1.00  0.00    -0.142 NA
ENDBRANCH  17  20
ENDBRANCH   2  17
TORSDOF 3
ENDMDL
MODEL 3
REMARK VINA RESULT:      -7.5      2.437      6.589
REMARK  3 active torsions:
REMARK  status: ('A' for Active; 'I' for Inactive)
REMARK    1  A    between atoms: C_9  and  C_10 
REMARK       I    between atoms: C_10  and  N_11 
REMARK    2  A    between atoms: N_11  and  C_12 
REMARK    3  A    between atoms: C_12  and  C_13 
ROOT
HETATM    1  C   UNL     1     -42.740  56.667 -53.154  1.00  0.00     0.258 C 
HETATM    2  N   UNL     1     -41.889  55.588 -53.103  1.00  0.00    -0.342 N 
HETATM    3  O   UNL     1     -43.695  56.812 -52.401  1.00  0.00    -0.267 OA
HETATM    4  H   UNL     1     -41.054  55.666 -53.683  1.00  0.00     0.164 HD
ENDROOT
BRANCH   1   5
HETATM    5  C   UNL     1     -42.426  57.643 -54.185  1.00  0.00     0.105 A 
HETATM    6  C   UNL     1     -42.563  57.502 -55.555  1.00  0.00     0.169 A 
HETATM    7  N   UNL     1     -43.016  56.455 -56.316  1.00  0.00    -0.233 NA
HETATM    8  N   UNL     1     -42.100  58.694 -56.125  1.00  0.00    -0.219 N 
HETATM    9  C   UNL     1     -42.981  56.620 -57.608  1.00  0.00     0.035 A 
HETATM   10  C   UNL     1     -43.446  55.491 -58.493  1.00  0.00     0.070 C 
HETATM   11  C   UNL     1     -42.502  57.856 -58.303  1.00  0.00     0.053 A 
HETATM   12  C   UNL     1     -42.077  58.860 -57.517  1.00  0.00     0.036 A 
HETATM   13  C   UNL     1     -41.567  60.159 -58.062  1.00  0.00     0.070 C 
HETATM   14  N   UNL     1     -41.706  59.578 -55.178  1.00  0.00    -0.170 NA
HETATM   15  C   UNL     1     -41.888  58.946 -54.014  1.00  0.00     0.071 A 
HETATM   16  C   UNL     1     -41.540  59.627 -52.741  1.00  0.00     0.073 C 
ENDBRANCH   1   5
BRANCH   2  17
HETATM   17  C   UNL     1     -41.865  54.584 -52.029  1.00  0.00     0.079 C 
HETATM   18  C   UNL     1     -41.222  55.207 -50.775  1.00  0.00     0.046 C 
HETATM   19  C   UNL     1     -43.269  54.061 -51.658  1.00  0.00     0.046 C 
BRANCH  17  20
HETATM   20  C   UNL     1     -41.019  53.409 -52.518  1.00  0.00     0.128 A 
HETATM   21  S   UNL     1     -41.173  52.783 -54.122  1.00  0.00    -0.031 SA
HETATM   22  C   UNL     1     -40.013  51.593 -53.701  1.00  0.00     0.187 A 
HETATM   23  N   UNL     1     -39.644  50.629 -54.567  1.00  0.00    -0.377 N 
HETATM   24  N   UNL     1     -39.556  51.707 -52.477  1.00  0.00    -0.124 NA
HETATM   25  H   UNL     1     -40.287  50.399 -55.316  1.00  0.00     0.158 HD
HETATM   26  H   UNL     1     -39.188  49.823 -54.154  1.00  0.00     0.158 HD
HETATM   27  N   UNL     1     -40.134  52.755 -51.790  1.00  0.00    -0.142 NA
ENDBRANCH  17  20
ENDBRANCH   2  17
TORSDOF 3
ENDMDL
MODEL 4
REMARK VINA RESULT:      -7.4      2.364      4.141
REMARK  3 active torsions:
REMARK  status: ('A' for Active; 'I' for Inactive)
REMARK    1  A    between atoms: C_9  and  C_10 
REMARK       I    between atoms: C_10  and  N_11 
REMARK    2  A    between atoms: N_11  and  C_12 
REMARK    3  A    between atoms: C_12  and  C_13 
ROOT
HETATM    1  C   UNL     1     -42.866  56.446 -53.186  1.00  0.00     0.258 C 
HETATM    2  N   UNL     1     -42.243  57.533 -53.752  1.00  0.00    -0.342 N 
HETATM    3  O   UNL     1     -43.899  56.524 -52.531  1.00  0.00    -0.267 OA
HETATM    4  H   UNL     1     -41.480  57.311 -54.392  1.00  0.00     0.164 HD
ENDROOT
BRANCH   1   5
HETATM    5  C   UNL     1     -42.203  55.173 -53.417  1.00  0.00     0.105 A 
HETATM    6  C   UNL     1     -41.407  54.460 -52.537  1.00  0.00     0.169 A 
HETATM    7  N   UNL     1     -41.026  54.723 -51.245  1.00  0.00    -0.233 NA
HETATM    8  N   UNL     1     -40.974  53.322 -53.226  1.00  0.00    -0.219 N 
HETATM    9  C   UNL     1     -40.221  53.861 -50.693  1.00  0.00     0.035 A 
HETATM   10  C   UNL     1     -39.752  54.112 -49.282  1.00  0.00     0.070 C 
HETATM   11  C   UNL     1     -39.707  52.620 -51.354  1.00  0.00     0.053 A 
HETATM   12  C   UNL     1     -40.115  52.398 -52.615  1.00  0.00     0.036 A 
HETATM   13  C   UNL     1     -39.686  51.202 -53.409  1.00  0.00     0.070 C 
HETATM   14  N   UNL     1     -41.481  53.278 -54.481  1.00  0.00    -0.170 NA
HETATM   15  C   UNL     1     -42.207  54.394 -54.603  1.00  0.00     0.071 A 
HETATM   16  C   UNL     1     -42.908  54.684 -55.880  1.00  0.00     0.073 C 
ENDBRANCH   1   5
BRANCH   2  17
HETATM   17  C   UNL     1     -42.818  58.882 -53.842  1.00  0.00     0.079 C 
HETATM   18  C   UNL     1     -41.937  59.742 -54.769  1.00  0.00     0.046 C 
HETATM   19  C   UNL     1     -44.263  58.890 -54.385  1.00  0.00     0.046 C 
BRANCH  17  20
HETATM   20  C   UNL     1     -42.823  59.475 -52.433  1.00  0.00     0.128 A 
HETATM   21  S   UNL     1     -44.293  59.919 -51.639  1.00  0.00    -0.031 SA
HETATM   22  C   UNL     1     -43.341  60.481 -50.328  1.00  0.00     0.187 A 
HETATM   23  N   UNL     1     -43.899  61.065 -49.250  1.00  0.00    -0.377 N 
HETATM   24  N   UNL     1     -42.052  60.308 -50.497  1.00  0.00    -0.124 NA
HETATM   25  H   UNL     1     -44.817  61.480 -49.362  1.00  0.00     0.158 HD
HETATM   26  H   UNL     1     -43.268  61.612 -48.675  1.00  0.00     0.158 HD
HETATM   27  N   UNL     1     -41.748  59.726 -51.710  1.00  0.00    -0.142 NA
ENDBRANCH  17  20
ENDBRANCH   2  17
TORSDOF 3
ENDMDL
MODEL 5
REMARK VINA RESULT:      -7.4      4.209      6.452
REMARK  3 active torsions:
REMARK  status: ('A' for Active; 'I' for Inactive)
REMARK    1  A    between atoms: C_9  and  C_10 
REMARK       I    between atoms: C_10  and  N_11 
REMARK    2  A    between atoms: N_11  and  C_12 
REMARK    3  A    between atoms: C_12  and  C_13 
ROOT
HETATM    1  C   UNL     1     -43.071  56.517 -56.921  1.00  0.00     0.258 C 
HETATM    2  N   UNL     1     -43.736  55.651 -57.757  1.00  0.00    -0.342 N 
HETATM    3  O   UNL     1     -42.367  57.437 -57.321  1.00  0.00    -0.267 OA
HETATM    4  H   UNL     1     -44.401  55.029 -57.297  1.00  0.00     0.164 HD
ENDROOT
BRANCH   1   5
HETATM    5  C   UNL     1     -43.258  56.261 -55.502  1.00  0.00     0.105 A 
HETATM    6  C   UNL     1     -42.626  55.309 -54.722  1.00  0.00     0.169 A 
HETATM    7  N   UNL     1     -41.677  54.368 -55.033  1.00  0.00    -0.233 NA
HETATM    8  N   UNL     1     -43.164  55.429 -53.435  1.00  0.00    -0.219 N 
HETATM    9  C   UNL     1     -41.308  53.576 -54.068  1.00  0.00     0.035 A 
HETATM   10  C   UNL     1     -40.284  52.508 -54.360  1.00  0.00     0.070 C 
HETATM   11  C   UNL     1     -41.830  53.630 -52.665  1.00  0.00     0.053 A 
HETATM   12  C   UNL     1     -42.750  54.574 -52.403  1.00  0.00     0.036 A 
HETATM   13  C   UNL     1     -43.367  54.754 -51.050  1.00  0.00     0.070 C 
HETATM   14  N   UNL     1     -44.079  56.424 -53.370  1.00  0.00    -0.170 NA
HETATM   15  C   UNL     1     -44.148  56.917 -54.611  1.00  0.00     0.071 A 
HETATM   16  C   UNL     1     -45.080  58.032 -54.913  1.00  0.00     0.073 C 
ENDBRANCH   1   5
BRANCH   2  17
HETATM   17  C   UNL     1     -43.877  55.823 -59.209  1.00  0.00     0.079 C 
HETATM   18  C   UNL     1     -42.486  56.081 -59.821  1.00  0.00     0.046 C 
HETATM   19  C   UNL     1     -44.506  54.598 -59.907  1.00  0.00     0.046 C 
BRANCH  17  20
HETATM   20  C   UNL     1     -44.780  57.034 -59.443  1.00  0.00     0.128 A 
HETATM   21  S   UNL     1     -44.211  58.447 -60.262  1.00  0.00    -0.031 SA
HETATM   22  C   UNL     1     -45.745  59.156 -59.972  1.00  0.00     0.187 A 
HETATM   23  N   UNL     1     -46.021  60.420 -60.347  1.00  0.00    -0.377 N 
HETATM   24  N   UNL     1     -46.584  58.366 -59.345  1.00  0.00    -0.124 NA
HETATM   25  H   UNL     1     -45.241  61.053 -60.478  1.00  0.00     0.158 HD
HETATM   26  H   UNL     1     -46.823  60.844 -59.894  1.00  0.00     0.158 HD
HETATM   27  N   UNL     1     -46.031  57.140 -59.039  1.00  0.00    -0.142 NA
ENDBRANCH  17  20
ENDBRANCH   2  17
TORSDOF 3
ENDMDL
MODEL 6
REMARK VINA RESULT:      -7.2      3.874      6.041
REMARK  3 active torsions:
REMARK  status: ('A' for Active; 'I' for Inactive)
REMARK    1  A    between atoms: C_9  and  C_10 
REMARK       I    between atoms: C_10  and  N_11 
REMARK    2  A    between atoms: N_11  and  C_12 
REMARK    3  A    between atoms: C_12  and  C_13 
ROOT
HETATM    1  C   UNL     1     -42.070  56.887 -54.119  1.00  0.00     0.258 C 
HETATM    2  N   UNL     1     -42.424  58.172 -53.779  1.00  0.00    -0.342 N 
HETATM    3  O   UNL     1     -41.509  56.114 -53.352  1.00  0.00    -0.267 OA
HETATM    4  H   UNL     1     -43.015  58.653 -54.457  1.00  0.00     0.164 HD
ENDROOT
BRANCH   1   5
HETATM    5  C   UNL     1     -42.411  56.500 -55.479  1.00  0.00     0.105 A 
HETATM    6  C   UNL     1     -42.394  57.291 -56.614  1.00  0.00     0.169 A 
HETATM    7  N   UNL     1     -42.064  58.610 -56.793  1.00  0.00    -0.233 NA
HETATM    8  N   UNL     1     -42.833  56.482 -57.668  1.00  0.00    -0.219 N 
HETATM    9  C   UNL     1     -42.194  59.081 -58.001  1.00  0.00     0.035 A 
HETATM   10  C   UNL     1     -41.867  60.532 -58.250  1.00  0.00     0.070 C 
HETATM   11  C   UNL     1     -42.657  58.291 -59.185  1.00  0.00     0.053 A 
HETATM   12  C   UNL     1     -42.959  57.000 -58.965  1.00  0.00     0.036 A 
HETATM   13  C   UNL     1     -43.437  56.082 -60.047  1.00  0.00     0.070 C 
HETATM   14  N   UNL     1     -43.098  55.221 -57.251  1.00  0.00    -0.170 NA
HETATM   15  C   UNL     1     -42.858  55.233 -55.935  1.00  0.00     0.071 A 
HETATM   16  C   UNL     1     -43.062  53.997 -55.136  1.00  0.00     0.073 C 
ENDBRANCH   1   5
BRANCH   2  17
HETATM   17  C   UNL     1     -42.381  58.725 -52.418  1.00  0.00     0.079 C 
HETATM   18  C   UNL     1     -43.132  60.070 -52.400  1.00  0.00     0.046 C 
HETATM   19  C   UNL     1     -43.014  57.791 -51.364  1.00  0.00     0.046 C 
BRANCH  17  20
HETATM   20  C   UNL     1     -40.913  58.945 -52.056  1.00  0.00     0.128 A 
HETATM   21  S   UNL     1     -40.389  59.062 -50.412  1.00  0.00    -0.031 SA
HETATM   22  C   UNL     1     -38.805  59.350 -51.004  1.00  0.00     0.187 A 
HETATM   23  N   UNL     1     -37.776  59.602 -50.172  1.00  0.00    -0.377 N 
HETATM   24  N   UNL     1     -38.715  59.323 -52.312  1.00  0.00    -0.124 NA
HETATM   25  H   UNL     1     -37.994  59.960 -49.249  1.00  0.00     0.158 HD
HETATM   26  H   UNL     1     -36.965  60.034 -50.600  1.00  0.00     0.158 HD
HETATM   27  N   UNL     1     -39.929  59.088 -52.924  1.00  0.00    -0.142 NA
ENDBRANCH  17  20
ENDBRANCH   2  17
TORSDOF 3
ENDMDL
MODEL 7
REMARK VINA RESULT:      -7.2      3.103      5.339
REMARK  3 active torsions:
REMARK  status: ('A' for Active; 'I' for Inactive)
REMARK    1  A    between atoms: C_9  and  C_10 
REMARK       I    between atoms: C_10  and  N_11 
REMARK    2  A    between atoms: N_11  and  C_12 
REMARK    3  A    between atoms: C_12  and  C_13 
ROOT
HETATM    1  C   UNL     1     -42.153  58.446 -55.096  1.00  0.00     0.258 C 
HETATM    2  N   UNL     1     -42.824  57.803 -56.110  1.00  0.00    -0.342 N 
HETATM    3  O   UNL     1     -41.608  59.534 -55.229  1.00  0.00    -0.267 OA
HETATM    4  H   UNL     1     -43.355  56.980 -55.825  1.00  0.00     0.164 HD
ENDROOT
BRANCH   1   5
HETATM    5  C   UNL     1     -42.131  57.731 -53.829  1.00  0.00     0.105 A 
HETATM    6  C   UNL     1     -41.654  56.454 -53.586  1.00  0.00     0.169 A 
HETATM    7  N   UNL     1     -41.085  55.526 -54.420  1.00  0.00    -0.233 NA
HETATM    8  N   UNL     1     -41.881  56.199 -52.228  1.00  0.00    -0.219 N 
HETATM    9  C   UNL     1     -40.776  54.380 -53.885  1.00  0.00     0.035 A 
HETATM   10  C   UNL     1     -40.167  53.314 -54.761  1.00  0.00     0.070 C 
HETATM   11  C   UNL     1     -40.983  54.019 -52.447  1.00  0.00     0.053 A 
HETATM   12  C   UNL     1     -41.535  54.963 -51.664  1.00  0.00     0.036 A 
HETATM   13  C   UNL     1     -41.807  54.753 -50.207  1.00  0.00     0.070 C 
HETATM   14  N   UNL     1     -42.452  57.261 -51.611  1.00  0.00    -0.170 NA
HETATM   15  C   UNL     1     -42.615  58.176 -52.572  1.00  0.00     0.071 A 
HETATM   16  C   UNL     1     -43.237  59.485 -52.247  1.00  0.00     0.073 C 
ENDBRANCH   1   5
BRANCH   2  17
HETATM   17  C   UNL     1     -43.166  58.404 -57.406  1.00  0.00     0.079 C 
HETATM   18  C   UNL     1     -44.116  59.595 -57.172  1.00  0.00     0.046 C 
HETATM   19  C   UNL     1     -41.932  58.901 -58.189  1.00  0.00     0.046 C 
BRANCH  17  20
HETATM   20  C   UNL     1     -43.872  57.333 -58.237  1.00  0.00     0.128 A 
HETATM   21  S   UNL     1     -43.166  55.777 -58.503  1.00  0.00    -0.031 SA
HETATM   22  C   UNL     1     -44.519  55.401 -59.487  1.00  0.00     0.187 A 
HETATM   23  N   UNL     1     -44.618  54.222 -60.132  1.00  0.00    -0.377 N 
HETATM   24  N   UNL     1     -45.407  56.365 -59.559  1.00  0.00    -0.124 NA
HETATM   25  H   UNL     1     -43.761  53.714 -60.317  1.00  0.00     0.158 HD
HETATM   26  H   UNL     1     -45.283  54.198 -60.897  1.00  0.00     0.158 HD
HETATM   27  N   UNL     1     -45.038  57.482 -58.838  1.00  0.00    -0.142 NA
ENDBRANCH  17  20
ENDBRANCH   2  17
TORSDOF 3
ENDMDL
MODEL 8
REMARK VINA RESULT:      -7.2      2.478      3.287
REMARK  3 active torsions:
REMARK  status: ('A' for Active; 'I' for Inactive)
REMARK    1  A    between atoms: C_9  and  C_10 
REMARK       I    between atoms: C_10  and  N_11 
REMARK    2  A    between atoms: N_11  and  C_12 
REMARK    3  A    between atoms: C_12  and  C_13 
ROOT
HETATM    1  C   UNL     1     -41.124  55.433 -53.538  1.00  0.00     0.258 C 
HETATM    2  N   UNL     1     -42.424  55.854 -53.694  1.00  0.00    -0.342 N 
HETATM    3  O   UNL     1     -40.195  55.838 -54.226  1.00  0.00    -0.267 OA
HETATM    4  H   UNL     1     -43.069  55.552 -52.963  1.00  0.00     0.164 HD
ENDROOT
BRANCH   1   5
HETATM    5  C   UNL     1     -40.923  54.453 -52.482  1.00  0.00     0.105 A 
HETATM    6  C   UNL     1     -40.493  53.144 -52.613  1.00  0.00     0.169 A 
HETATM    7  N   UNL     1     -40.141  52.413 -53.719  1.00  0.00    -0.233 NA
HETATM    8  N   UNL     1     -40.490  52.597 -51.325  1.00  0.00    -0.219 N 
HETATM    9  C   UNL     1     -39.816  51.169 -53.511  1.00  0.00     0.035 A 
HETATM   10  C   UNL     1     -39.442  50.312 -54.695  1.00  0.00     0.070 C 
HETATM   11  C   UNL     1     -39.787  50.500 -52.172  1.00  0.00     0.053 A 
HETATM   12  C   UNL     1     -40.129  51.258 -51.115  1.00  0.00     0.036 A 
HETATM   13  C   UNL     1     -40.150  50.734 -49.712  1.00  0.00     0.070 C 
HETATM   14  N   UNL     1     -40.872  53.507 -50.397  1.00  0.00    -0.170 NA
HETATM   15  C   UNL     1     -41.145  54.617 -51.090  1.00  0.00     0.071 A 
HETATM   16  C   UNL     1     -41.615  55.834 -50.381  1.00  0.00     0.073 C 
ENDBRANCH   1   5
BRANCH   2  17
HETATM   17  C   UNL     1     -42.849  56.980 -54.537  1.00  0.00     0.079 C 
HETATM   18  C   UNL     1     -44.255  57.433 -54.096  1.00  0.00     0.046 C 
HETATM   19  C   UNL     1     -41.893  58.189 -54.462  1.00  0.00     0.046 C 
BRANCH  17  20
HETATM   20  C   UNL     1     -42.894  56.482 -55.982  1.00  0.00     0.128 A 
HETATM   21  S   UNL     1     -42.630  57.546 -57.319  1.00  0.00    -0.031 SA
HETATM   22  C   UNL     1     -42.934  56.216 -58.357  1.00  0.00     0.187 A 
HETATM   23  N   UNL     1     -42.939  56.353 -59.697  1.00  0.00    -0.377 N 
HETATM   24  N   UNL     1     -43.176  55.093 -57.723  1.00  0.00    -0.124 NA
HETATM   25  H   UNL     1     -43.108  57.278 -60.074  1.00  0.00     0.158 HD
HETATM   26  H   UNL     1     -43.399  55.608 -60.209  1.00  0.00     0.158 HD
HETATM   27  N   UNL     1     -43.153  55.242 -56.351  1.00  0.00    -0.142 NA
ENDBRANCH  17  20
ENDBRANCH   2  17
TORSDOF 3
ENDMDL
MODEL 9
REMARK VINA RESULT:      -7.1      1.876      6.109
REMARK  3 active torsions:
REMARK  status: ('A' for Active; 'I' for Inactive)
REMARK    1  A    between atoms: C_9  and  C_10 
REMARK       I    between atoms: C_10  and  N_11 
REMARK    2  A    between atoms: N_11  and  C_12 
REMARK    3  A    between atoms: C_12  and  C_13 
ROOT
HETATM    1  C   UNL     1     -41.235  56.518 -51.096  1.00  0.00     0.258 C 
HETATM    2  N   UNL     1     -40.981  55.245 -51.548  1.00  0.00    -0.342 N 
HETATM    3  O   UNL     1     -41.350  56.804 -49.910  1.00  0.00    -0.267 OA
HETATM    4  H   UNL     1     -40.761  55.173 -52.542  1.00  0.00     0.164 HD
ENDROOT
BRANCH   1   5
HETATM    5  C   UNL     1     -41.364  57.522 -52.140  1.00  0.00     0.105 A 
HETATM    6  C   UNL     1     -41.792  57.339 -53.443  1.00  0.00     0.169 A 
HETATM    7  N   UNL     1     -42.205  56.214 -54.110  1.00  0.00    -0.233 NA
HETATM    8  N   UNL     1     -41.712  58.589 -54.066  1.00  0.00    -0.219 N 
HETATM    9  C   UNL     1     -42.508  56.365 -55.368  1.00  0.00     0.035 A 
HETATM   10  C   UNL     1     -42.947  55.157 -56.156  1.00  0.00     0.070 C 
HETATM   11  C   UNL     1     -42.450  57.661 -56.116  1.00  0.00     0.053 A 
HETATM   12  C   UNL     1     -42.050  58.739 -55.419  1.00  0.00     0.036 A 
HETATM   13  C   UNL     1     -41.939  60.104 -56.026  1.00  0.00     0.070 C 
HETATM   14  N   UNL     1     -41.280  59.546 -53.210  1.00  0.00    -0.170 NA
HETATM   15  C   UNL     1     -41.059  58.906 -52.057  1.00  0.00     0.071 A 
HETATM   16  C   UNL     1     -40.556  59.658 -50.879  1.00  0.00     0.073 C 
ENDBRANCH   1   5
BRANCH   2  17
HETATM   17  C   UNL     1     -40.602  54.108 -50.697  1.00  0.00     0.079 C 
HETATM   18  C   UNL     1     -39.377  54.503 -49.850  1.00  0.00     0.046 C 
HETATM   19  C   UNL     1     -41.734  53.657 -49.749  1.00  0.00     0.046 C 
BRANCH  17  20
HETATM   20  C   UNL     1     -40.243  52.943 -51.618  1.00  0.00     0.128 A 
HETATM   21  S   UNL     1     -40.553  53.000 -53.319  1.00  0.00    -0.031 SA
HETATM   22  C   UNL     1     -39.948  51.399 -53.419  1.00  0.00     0.187 A 
HETATM   23  N   UNL     1     -39.935  50.721 -54.583  1.00  0.00    -0.377 N 
HETATM   24  N   UNL     1     -39.536  50.915 -52.271  1.00  0.00    -0.124 NA
HETATM   25  H   UNL     1     -40.584  51.012 -55.304  1.00  0.00     0.158 HD
HETATM   26  H   UNL     1     -39.836  49.715 -54.500  1.00  0.00     0.158 HD
HETATM   27  N   UNL     1     -39.703  51.804 -51.229  1.00  0.00    -0.142 NA
ENDBRANCH  17  20
ENDBRANCH   2  17
TORSDOF 3
ENDMDL
MODEL 10
REMARK VINA RESULT:      -7.0      2.362      3.946
REMARK  3 active torsions:
REMARK  status: ('A' for Active; 'I' for Inactive)
REMARK    1  A    between atoms: C_9  and  C_10 
REMARK       I    between atoms: C_10  and  N_11 
REMARK    2  A    between atoms: N_11  and  C_12 
REMARK    3  A    between atoms: C_12  and  C_13 
ROOT
HETATM    1  C   UNL     1     -41.800  57.416 -53.613  1.00  0.00     0.258 C 
HETATM    2  N   UNL     1     -43.104  57.269 -54.025  1.00  0.00    -0.342 N 
HETATM    3  O   UNL     1     -40.955  58.032 -54.250  1.00  0.00    -0.267 OA
HETATM    4  H   UNL     1     -43.735  56.865 -53.333  1.00  0.00     0.164 HD
ENDROOT
BRANCH   1   5
HETATM    5  C   UNL     1     -41.484  56.775 -52.346  1.00  0.00     0.105 A 
HETATM    6  C   UNL     1     -41.064  55.473 -52.137  1.00  0.00     0.169 A 
HETATM    7  N   UNL     1     -40.825  54.447 -53.016  1.00  0.00    -0.233 NA
HETATM    8  N   UNL     1     -40.924  55.319 -50.753  1.00  0.00    -0.219 N 
HETATM    9  C   UNL     1     -40.473  53.307 -52.493  1.00  0.00     0.035 A 
HETATM   10  C   UNL     1     -40.221  52.138 -53.411  1.00  0.00     0.070 C 
HETATM   11  C   UNL     1     -40.301  53.050 -51.028  1.00  0.00     0.053 A 
HETATM   12  C   UNL     1     -40.535  54.088 -50.205  1.00  0.00     0.036 A 
HETATM   13  C   UNL     1     -40.407  53.989 -48.716  1.00  0.00     0.070 C 
HETATM   14  N   UNL     1     -41.212  56.465 -50.093  1.00  0.00    -0.170 NA
HETATM   15  C   UNL     1     -41.561  57.337 -51.045  1.00  0.00     0.071 A 
HETATM   16  C   UNL     1     -41.961  58.718 -50.672  1.00  0.00     0.073 C 
ENDBRANCH   1   5
BRANCH   2  17
HETATM   17  C   UNL     1     -43.719  57.990 -55.148  1.00  0.00     0.079 C 
HETATM   18  C   UNL     1     -45.252  57.901 -55.021  1.00  0.00     0.046 C 
HETATM   19  C   UNL     1     -43.313  59.479 -55.207  1.00  0.00     0.046 C 
BRANCH  17  20
HETATM   20  C   UNL     1     -43.263  57.308 -56.437  1.00  0.00     0.128 A 
HETATM   21  S   UNL     1     -42.543  58.200 -57.732  1.00  0.00    -0.031 SA
HETATM   22  C   UNL     1     -42.478  56.735 -58.621  1.00  0.00     0.187 A 
HETATM   23  N   UNL     1     -42.016  56.697 -59.886  1.00  0.00    -0.377 N 
HETATM   24  N   UNL     1     -42.934  55.695 -57.963  1.00  0.00    -0.124 NA
HETATM   25  H   UNL     1     -42.037  57.558 -60.420  1.00  0.00     0.158 HD
HETATM   26  H   UNL     1     -42.275  55.875 -60.419  1.00  0.00     0.158 HD
HETATM   27  N   UNL     1     -43.387  56.022 -56.702  1.00  0.00    -0.142 NA
ENDBRANCH  17  20
ENDBRANCH   2  17
TORSDOF 3
ENDMDL
