MODEL 1
REMARK VINA RESULT:      -9.8      0.000      0.000
REMARK  5 active torsions:
REMARK  status: ('A' for Active; 'I' for Inactive)
REMARK    1  A    between atoms: C_4  and  C_5 
REMARK    2  A    between atoms: C_5  and  C_6 
REMARK    3  A    between atoms: N_15  and  N_16 
REMARK       I    between atoms: N_16  and  C_17 
REMARK    4  A    between atoms: C_17  and  C_18 
REMARK    5  A    between atoms: C_18  and  C_19 
ROOT
HETATM    1  C   UNL     1     -41.421  53.929 -53.180  1.00  0.00     0.173 A 
HETATM    2  N   UNL     1     -42.848  53.797 -53.440  1.00  0.00    -0.315 N 
HETATM    3  C   UNL     1     -43.251  54.467 -54.570  1.00  0.00     0.346 A 
HETATM    4  O   UNL     1     -44.389  54.454 -55.010  1.00  0.00    -0.245 OA
HETATM    5  N   UNL     1     -42.158  55.077 -55.114  1.00  0.00    -0.167 N 
HETATM    6  C   UNL     1     -41.002  54.759 -54.439  1.00  0.00     0.285 A 
HETATM    7  O   UNL     1     -39.857  55.051 -54.770  1.00  0.00    -0.267 OA
HETATM    8  H   UNL     1     -43.508  53.343 -52.826  1.00  0.00     0.166 HD
ENDROOT
BRANCH   5   9
HETATM    9  N   UNL     1     -42.186  55.727 -56.342  1.00  0.00    -0.256 N 
HETATM   10  C   UNL     1     -42.478  57.081 -56.342  1.00  0.00     0.242 C 
HETATM   11  O   UNL     1     -42.658  57.752 -55.328  1.00  0.00    -0.271 OA
HETATM   12  H   UNL     1     -42.605  55.180 -57.094  1.00  0.00     0.191 HD
BRANCH  10  13
HETATM   13  C   UNL     1     -42.416  57.707 -57.716  1.00  0.00     0.166 C 
BRANCH  13  14
HETATM   14  C   UNL     1     -43.278  57.063 -58.781  1.00  0.00     0.074 A 
HETATM   15  N   UNL     1     -42.816  56.014 -59.392  1.00  0.00    -0.175 NA
HETATM   16  N   UNL     1     -43.592  55.414 -60.331  1.00  0.00    -0.243 N 
HETATM   17  C   UNL     1     -44.855  55.803 -60.709  1.00  0.00     0.272 A 
HETATM   18  H   UNL     1     -43.215  54.574 -60.765  1.00  0.00     0.192 HD
HETATM   19  O   UNL     1     -45.510  55.192 -61.545  1.00  0.00    -0.266 OA
HETATM   20  C   UNL     1     -45.381  57.010 -60.052  1.00  0.00     0.046 A 
HETATM   21  C   UNL     1     -44.610  57.648 -59.082  1.00  0.00     0.006 A 
HETATM   22  C   UNL     1     -46.639  57.512 -60.405  1.00  0.00     0.018 A 
HETATM   23  C   UNL     1     -45.103  58.800 -58.457  1.00  0.00     0.014 A 
HETATM   24  C   UNL     1     -46.357  59.306 -58.816  1.00  0.00     0.001 A 
HETATM   25  C   UNL     1     -47.124  58.665 -59.788  1.00  0.00     0.001 A 
ENDBRANCH  13  14
ENDBRANCH  10  13
ENDBRANCH   5   9
BRANCH   1  26
HETATM   26  C   UNL     1     -41.269  54.675 -51.846  1.00  0.00    -0.016 A 
HETATM   27  C   UNL     1     -41.090  56.068 -51.778  1.00  0.00     0.010 A 
HETATM   28  C   UNL     1     -41.008  56.721 -50.544  1.00  0.00     0.001 A 
HETATM   29  C   UNL     1     -41.109  55.999 -49.357  1.00  0.00     0.000 A 
HETATM   30  C   UNL     1     -41.298  54.622 -49.400  1.00  0.00     0.001 A 
HETATM   31  C   UNL     1     -41.385  53.968 -50.631  1.00  0.00     0.010 A 
ENDBRANCH   1  26
BRANCH   1  32
HETATM   32  C   UNL     1     -40.687  52.577 -53.216  1.00  0.00    -0.016 A 
HETATM   33  C   UNL     1     -39.849  52.137 -52.175  1.00  0.00     0.010 A 
HETATM   34  C   UNL     1     -39.217  50.892 -52.241  1.00  0.00     0.001 A 
HETATM   35  C   UNL     1     -39.412  50.063 -53.343  1.00  0.00     0.000 A 
HETATM   36  C   UNL     1     -40.240  50.475 -54.381  1.00  0.00     0.001 A 
HETATM   37  C   UNL     1     -40.871  51.718 -54.319  1.00  0.00     0.010 A 
ENDBRANCH   1  32
TORSDOF 5
ENDMDL
MODEL 2
REMARK VINA RESULT:      -9.7      5.357      8.679
REMARK  5 active torsions:
REMARK  status: ('A' for Active; 'I' for Inactive)
REMARK    1  A    between atoms: C_4  and  C_5 
REMARK    2  A    between atoms: C_5  and  C_6 
REMARK    3  A    between atoms: N_15  and  N_16 
REMARK       I    between atoms: N_16  and  C_17 
REMARK    4  A    between atoms: C_17  and  C_18 
REMARK    5  A    between atoms: C_18  and  C_19 
ROOT
HETATM    1  C   UNL     1     -41.874  56.361 -51.952  1.00  0.00     0.173 A 
HETATM    2  N   UNL     1     -40.981  57.490 -52.183  1.00  0.00    -0.315 N 
HETATM    3  C   UNL     1     -41.545  58.697 -51.845  1.00  0.00     0.346 A 
HETATM    4  O   UNL     1     -40.965  59.769 -51.906  1.00  0.00    -0.245 OA
HETATM    5  N   UNL     1     -42.810  58.462 -51.390  1.00  0.00    -0.167 N 
HETATM    6  C   UNL     1     -43.089  57.116 -51.317  1.00  0.00     0.285 A 
HETATM    7  O   UNL     1     -44.089  56.602 -50.827  1.00  0.00    -0.267 OA
HETATM    8  H   UNL     1     -40.076  57.429 -52.626  1.00  0.00     0.166 HD
ENDROOT
BRANCH   5   9
HETATM    9  N   UNL     1     -43.612  59.452 -50.835  1.00  0.00    -0.256 N 
HETATM   10  C   UNL     1     -44.549  60.052 -51.659  1.00  0.00     0.242 C 
HETATM   11  O   UNL     1     -44.754  59.729 -52.827  1.00  0.00    -0.271 OA
HETATM   12  H   UNL     1     -43.121  60.073 -50.190  1.00  0.00     0.191 HD
BRANCH  10  13
HETATM   13  C   UNL     1     -45.414  61.065 -50.944  1.00  0.00     0.166 C 
BRANCH  13  14
HETATM   14  C   UNL     1     -45.549  60.887 -49.446  1.00  0.00     0.074 A 
HETATM   15  N   UNL     1     -45.892  59.718 -48.997  1.00  0.00    -0.175 NA
HETATM   16  N   UNL     1     -45.991  59.542 -47.654  1.00  0.00    -0.243 N 
HETATM   17  C   UNL     1     -45.750  60.492 -46.691  1.00  0.00     0.272 A 
HETATM   18  H   UNL     1     -46.228  58.605 -47.333  1.00  0.00     0.192 HD
HETATM   19  O   UNL     1     -45.830  60.251 -45.492  1.00  0.00    -0.266 OA
HETATM   20  C   UNL     1     -45.393  61.832 -47.183  1.00  0.00     0.046 A 
HETATM   21  C   UNL     1     -45.281  62.045 -48.557  1.00  0.00     0.006 A 
HETATM   22  C   UNL     1     -45.176  62.879 -46.280  1.00  0.00     0.018 A 
HETATM   23  C   UNL     1     -44.947  63.319 -49.032  1.00  0.00     0.014 A 
HETATM   24  C   UNL     1     -44.738  64.368 -48.129  1.00  0.00     0.001 A 
HETATM   25  C   UNL     1     -44.853  64.149 -46.756  1.00  0.00     0.001 A 
ENDBRANCH  13  14
ENDBRANCH  10  13
ENDBRANCH   5   9
BRANCH   1  26
HETATM   26  C   UNL     1     -42.164  55.724 -53.319  1.00  0.00    -0.016 A 
HETATM   27  C   UNL     1     -43.295  54.920 -53.550  1.00  0.00     0.010 A 
HETATM   28  C   UNL     1     -43.555  54.399 -54.822  1.00  0.00     0.001 A 
HETATM   29  C   UNL     1     -42.699  54.675 -55.886  1.00  0.00     0.000 A 
HETATM   30  C   UNL     1     -41.582  55.477 -55.683  1.00  0.00     0.001 A 
HETATM   31  C   UNL     1     -41.321  56.002 -54.415  1.00  0.00     0.010 A 
ENDBRANCH   1  26
BRANCH   1  32
HETATM   32  C   UNL     1     -41.315  55.370 -50.916  1.00  0.00    -0.016 A 
HETATM   33  C   UNL     1     -41.342  55.620 -49.532  1.00  0.00     0.010 A 
HETATM   34  C   UNL     1     -40.840  54.682 -48.625  1.00  0.00     0.001 A 
HETATM   35  C   UNL     1     -40.309  53.479 -49.080  1.00  0.00     0.000 A 
HETATM   36  C   UNL     1     -40.276  53.209 -50.444  1.00  0.00     0.001 A 
HETATM   37  C   UNL     1     -40.774  54.143 -51.353  1.00  0.00     0.010 A 
ENDBRANCH   1  32
TORSDOF 5
ENDMDL
MODEL 3
REMARK VINA RESULT:      -9.7      2.367      9.214
REMARK  5 active torsions:
REMARK  status: ('A' for Active; 'I' for Inactive)
REMARK    1  A    between atoms: C_4  and  C_5 
REMARK    2  A    between atoms: C_5  and  C_6 
REMARK    3  A    between atoms: N_15  and  N_16 
REMARK       I    between atoms: N_16  and  C_17 
REMARK    4  A    between atoms: C_17  and  C_18 
REMARK    5  A    between atoms: C_18  and  C_19 
ROOT
HETATM    1  C   UNL     1     -43.215  59.103 -57.417  1.00  0.00     0.173 A 
HETATM    2  N   UNL     1     -43.017  59.384 -56.001  1.00  0.00    -0.315 N 
HETATM    3  C   UNL     1     -42.410  58.351 -55.329  1.00  0.00     0.346 A 
HETATM    4  O   UNL     1     -42.099  58.385 -54.150  1.00  0.00    -0.245 OA
HETATM    5  N   UNL     1     -42.179  57.343 -56.220  1.00  0.00    -0.167 N 
HETATM    6  C   UNL     1     -42.524  57.701 -57.503  1.00  0.00     0.285 A 
HETATM    7  O   UNL     1     -42.312  57.056 -58.525  1.00  0.00    -0.267 OA
HETATM    8  H   UNL     1     -43.359  60.204 -55.522  1.00  0.00     0.166 HD
ENDROOT
BRANCH   5   9
HETATM    9  N   UNL     1     -41.453  56.202 -55.901  1.00  0.00    -0.256 N 
HETATM   10  C   UNL     1     -42.164  55.080 -55.510  1.00  0.00     0.242 C 
HETATM   11  O   UNL     1     -43.391  55.013 -55.480  1.00  0.00    -0.271 OA
HETATM   12  H   UNL     1     -40.591  56.386 -55.387  1.00  0.00     0.191 HD
BRANCH  10  13
HETATM   13  C   UNL     1     -41.288  53.875 -55.252  1.00  0.00     0.166 C 
BRANCH  13  14
HETATM   14  C   UNL     1     -40.876  53.647 -53.813  1.00  0.00     0.074 A 
HETATM   15  N   UNL     1     -40.951  54.648 -52.989  1.00  0.00    -0.175 NA
HETATM   16  N   UNL     1     -40.606  54.448 -51.690  1.00  0.00    -0.243 N 
HETATM   17  C   UNL     1     -40.187  53.263 -51.136  1.00  0.00     0.272 A 
HETATM   18  H   UNL     1     -40.710  55.243 -51.063  1.00  0.00     0.192 HD
HETATM   19  O   UNL     1     -39.921  53.149 -49.945  1.00  0.00    -0.266 OA
HETATM   20  C   UNL     1     -40.064  52.126 -52.062  1.00  0.00     0.046 A 
HETATM   21  C   UNL     1     -40.411  52.299 -53.402  1.00  0.00     0.006 A 
HETATM   22  C   UNL     1     -39.597  50.890 -51.601  1.00  0.00     0.018 A 
HETATM   23  C   UNL     1     -40.291  51.223 -54.289  1.00  0.00     0.014 A 
HETATM   24  C   UNL     1     -39.817  49.989 -53.830  1.00  0.00     0.001 A 
HETATM   25  C   UNL     1     -39.469  49.822 -52.489  1.00  0.00     0.001 A 
ENDBRANCH  13  14
ENDBRANCH  10  13
ENDBRANCH   5   9
BRANCH   1  26
HETATM   26  C   UNL     1     -44.730  59.082 -57.669  1.00  0.00    -0.016 A 
HETATM   27  C   UNL     1     -45.401  57.937 -58.133  1.00  0.00     0.010 A 
HETATM   28  C   UNL     1     -46.789  57.939 -58.301  1.00  0.00     0.001 A 
HETATM   29  C   UNL     1     -47.534  59.078 -58.005  1.00  0.00     0.000 A 
HETATM   30  C   UNL     1     -46.893  60.219 -57.534  1.00  0.00     0.001 A 
HETATM   31  C   UNL     1     -45.507  60.219 -57.360  1.00  0.00     0.010 A 
ENDBRANCH   1  26
BRANCH   1  32
HETATM   32  C   UNL     1     -42.453  60.083 -58.326  1.00  0.00    -0.016 A 
HETATM   33  C   UNL     1     -42.688  60.178 -59.710  1.00  0.00     0.010 A 
HETATM   34  C   UNL     1     -41.985  61.097 -60.494  1.00  0.00     0.001 A 
HETATM   35  C   UNL     1     -41.041  61.940 -59.914  1.00  0.00     0.000 A 
HETATM   36  C   UNL     1     -40.795  61.867 -58.547  1.00  0.00     0.001 A 
HETATM   37  C   UNL     1     -41.494  60.949 -57.761  1.00  0.00     0.010 A 
ENDBRANCH   1  32
TORSDOF 5
ENDMDL
MODEL 4
REMARK VINA RESULT:      -9.7      1.323      1.907
REMARK  5 active torsions:
REMARK  status: ('A' for Active; 'I' for Inactive)
REMARK    1  A    between atoms: C_4  and  C_5 
REMARK    2  A    between atoms: C_5  and  C_6 
REMARK    3  A    between atoms: N_15  and  N_16 
REMARK       I    between atoms: N_16  and  C_17 
REMARK    4  A    between atoms: C_17  and  C_18 
REMARK    5  A    between atoms: C_18  and  C_19 
ROOT
HETATM    1  C   UNL     1     -41.424  53.919 -53.185  1.00  0.00     0.173 A 
HETATM    2  N   UNL     1     -42.848  53.809 -53.475  1.00  0.00    -0.315 N 
HETATM    3  C   UNL     1     -43.223  54.513 -54.593  1.00  0.00     0.346 A 
HETATM    4  O   UNL     1     -44.353  54.523 -55.054  1.00  0.00    -0.245 OA
HETATM    5  N   UNL     1     -42.113  55.125 -55.102  1.00  0.00    -0.167 N 
HETATM    6  C   UNL     1     -40.973  54.777 -54.414  1.00  0.00     0.285 A 
HETATM    7  O   UNL     1     -39.820  55.064 -54.717  1.00  0.00    -0.267 OA
HETATM    8  H   UNL     1     -43.524  53.347 -52.885  1.00  0.00     0.166 HD
ENDROOT
BRANCH   5   9
HETATM    9  N   UNL     1     -42.112  55.807 -56.312  1.00  0.00    -0.256 N 
HETATM   10  C   UNL     1     -42.393  57.163 -56.283  1.00  0.00     0.242 C 
HETATM   11  O   UNL     1     -42.587  57.808 -55.255  1.00  0.00    -0.271 OA
HETATM   12  H   UNL     1     -42.522  55.283 -57.087  1.00  0.00     0.191 HD
BRANCH  10  13
HETATM   13  C   UNL     1     -42.299  57.824 -57.639  1.00  0.00     0.166 C 
BRANCH  13  14
HETATM   14  C   UNL     1     -43.611  58.068 -58.353  1.00  0.00     0.074 A 
HETATM   15  N   UNL     1     -44.182  59.225 -58.207  1.00  0.00    -0.175 NA
HETATM   16  N   UNL     1     -45.348  59.462 -58.864  1.00  0.00    -0.243 N 
HETATM   17  C   UNL     1     -46.000  58.589 -59.699  1.00  0.00     0.272 A 
HETATM   18  H   UNL     1     -45.751  60.390 -58.755  1.00  0.00     0.192 HD
HETATM   19  O   UNL     1     -47.035  58.884 -60.284  1.00  0.00    -0.266 OA
HETATM   20  C   UNL     1     -45.385  57.260 -59.851  1.00  0.00     0.046 A 
HETATM   21  C   UNL     1     -44.188  56.986 -59.191  1.00  0.00     0.006 A 
HETATM   22  C   UNL     1     -46.001  56.285 -60.643  1.00  0.00     0.018 A 
HETATM   23  C   UNL     1     -43.600  55.723 -59.327  1.00  0.00     0.014 A 
HETATM   24  C   UNL     1     -44.221  54.745 -60.113  1.00  0.00     0.001 A 
HETATM   25  C   UNL     1     -45.419  55.024 -60.769  1.00  0.00     0.001 A 
ENDBRANCH  13  14
ENDBRANCH  10  13
ENDBRANCH   5   9
BRANCH   1  26
HETATM   26  C   UNL     1     -41.289  54.628 -51.830  1.00  0.00    -0.016 A 
HETATM   27  C   UNL     1     -41.064  56.012 -51.723  1.00  0.00     0.010 A 
HETATM   28  C   UNL     1     -40.999  56.633 -50.471  1.00  0.00     0.001 A 
HETATM   29  C   UNL     1     -41.163  55.889 -49.306  1.00  0.00     0.000 A 
HETATM   30  C   UNL     1     -41.399  54.521 -49.388  1.00  0.00     0.001 A 
HETATM   31  C   UNL     1     -41.469  53.898 -50.636  1.00  0.00     0.010 A 
ENDBRANCH   1  26
BRANCH   1  32
HETATM   32  C   UNL     1     -40.704  52.560 -53.244  1.00  0.00    -0.016 A 
HETATM   33  C   UNL     1     -39.852  52.106 -52.220  1.00  0.00     0.010 A 
HETATM   34  C   UNL     1     -39.233  50.855 -52.306  1.00  0.00     0.001 A 
HETATM   35  C   UNL     1     -39.456  50.035 -53.409  1.00  0.00     0.000 A 
HETATM   36  C   UNL     1     -40.299  50.462 -54.430  1.00  0.00     0.001 A 
HETATM   37  C   UNL     1     -40.917  51.711 -54.348  1.00  0.00     0.010 A 
ENDBRANCH   1  32
TORSDOF 5
ENDMDL
MODEL 5
REMARK VINA RESULT:      -9.6      2.071      9.382
REMARK  5 active torsions:
REMARK  status: ('A' for Active; 'I' for Inactive)
REMARK    1  A    between atoms: C_4  and  C_5 
REMARK    2  A    between atoms: C_5  and  C_6 
REMARK    3  A    between atoms: N_15  and  N_16 
REMARK       I    between atoms: N_16  and  C_17 
REMARK    4  A    between atoms: C_17  and  C_18 
REMARK    5  A    between atoms: C_18  and  C_19 
ROOT
HETATM    1  C   UNL     1     -44.236  57.971 -57.699  1.00  0.00     0.173 A 
HETATM    2  N   UNL     1     -44.781  57.699 -56.376  1.00  0.00    -0.315 N 
HETATM    3  C   UNL     1     -43.953  56.921 -55.604  1.00  0.00     0.346 A 
HETATM    4  O   UNL     1     -44.180  56.611 -54.446  1.00  0.00    -0.245 OA
HETATM    5  N   UNL     1     -42.842  56.625 -56.340  1.00  0.00    -0.167 N 
HETATM    6  C   UNL     1     -42.847  57.262 -57.559  1.00  0.00     0.285 A 
HETATM    7  O   UNL     1     -41.931  57.291 -58.374  1.00  0.00    -0.267 OA
HETATM    8  H   UNL     1     -45.704  57.967 -56.065  1.00  0.00     0.166 HD
ENDROOT
BRANCH   5   9
HETATM    9  N   UNL     1     -41.737  55.967 -55.813  1.00  0.00    -0.256 N 
HETATM   10  C   UNL     1     -41.849  54.604 -55.595  1.00  0.00     0.242 C 
HETATM   11  O   UNL     1     -42.836  53.933 -55.888  1.00  0.00    -0.271 OA
HETATM   12  H   UNL     1     -41.242  56.495 -55.094  1.00  0.00     0.191 HD
BRANCH  10  13
HETATM   13  C   UNL     1     -40.573  53.972 -55.086  1.00  0.00     0.166 C 
BRANCH  13  14
HETATM   14  C   UNL     1     -40.504  53.720 -53.594  1.00  0.00     0.074 A 
HETATM   15  N   UNL     1     -40.739  54.715 -52.794  1.00  0.00    -0.175 NA
HETATM   16  N   UNL     1     -40.704  54.494 -51.454  1.00  0.00    -0.243 N 
HETATM   17  C   UNL     1     -40.451  53.293 -50.837  1.00  0.00     0.272 A 
HETATM   18  H   UNL     1     -40.926  55.286 -50.855  1.00  0.00     0.192 HD
HETATM   19  O   UNL     1     -40.466  53.161 -49.619  1.00  0.00    -0.266 OA
HETATM   20  C   UNL     1     -40.150  52.161 -51.728  1.00  0.00     0.046 A 
HETATM   21  C   UNL     1     -40.179  52.355 -53.108  1.00  0.00     0.006 A 
HETATM   22  C   UNL     1     -39.831  50.908 -51.192  1.00  0.00     0.018 A 
HETATM   23  C   UNL     1     -39.888  51.284 -53.961  1.00  0.00     0.014 A 
HETATM   24  C   UNL     1     -39.562  50.033 -53.425  1.00  0.00     0.001 A 
HETATM   25  C   UNL     1     -39.532  49.845 -52.044  1.00  0.00     0.001 A 
ENDBRANCH  13  14
ENDBRANCH  10  13
ENDBRANCH   5   9
BRANCH   1  26
HETATM   26  C   UNL     1     -45.181  57.323 -58.722  1.00  0.00    -0.016 A 
HETATM   27  C   UNL     1     -46.515  57.737 -58.884  1.00  0.00     0.010 A 
HETATM   28  C   UNL     1     -47.331  57.160 -59.862  1.00  0.00     0.001 A 
HETATM   29  C   UNL     1     -46.832  56.164 -60.699  1.00  0.00     0.000 A 
HETATM   30  C   UNL     1     -45.512  55.747 -60.564  1.00  0.00     0.001 A 
HETATM   31  C   UNL     1     -44.693  56.325 -59.592  1.00  0.00     0.010 A 
ENDBRANCH   1  26
BRANCH   1  32
HETATM   32  C   UNL     1     -44.000  59.472 -57.943  1.00  0.00    -0.016 A 
HETATM   33  C   UNL     1     -43.693  59.998 -59.212  1.00  0.00     0.010 A 
HETATM   34  C   UNL     1     -43.505  61.371 -59.392  1.00  0.00     0.001 A 
HETATM   35  C   UNL     1     -43.624  62.244 -58.313  1.00  0.00     0.000 A 
HETATM   36  C   UNL     1     -43.931  61.746 -57.051  1.00  0.00     0.001 A 
HETATM   37  C   UNL     1     -44.118  60.375 -56.868  1.00  0.00     0.010 A 
ENDBRANCH   1  32
TORSDOF 5
ENDMDL
MODEL 6
REMARK VINA RESULT:      -9.2      2.155      8.966
REMARK  5 active torsions:
REMARK  status: ('A' for Active; 'I' for Inactive)
REMARK    1  A    between atoms: C_4  and  C_5 
REMARK    2  A    between atoms: C_5  and  C_6 
REMARK    3  A    between atoms: N_15  and  N_16 
REMARK       I    between atoms: N_16  and  C_17 
REMARK    4  A    between atoms: C_17  and  C_18 
REMARK    5  A    between atoms: C_18  and  C_19 
ROOT
HETATM    1  C   UNL     1     -44.256  58.216 -58.266  1.00  0.00     0.173 A 
HETATM    2  N   UNL     1     -45.023  58.879 -57.219  1.00  0.00    -0.315 N 
HETATM    3  C   UNL     1     -44.764  58.378 -55.966  1.00  0.00     0.346 A 
HETATM    4  O   UNL     1     -45.252  58.815 -54.936  1.00  0.00    -0.245 OA
HETATM    5  N   UNL     1     -43.845  57.377 -56.091  1.00  0.00    -0.167 N 
HETATM    6  C   UNL     1     -43.398  57.247 -57.385  1.00  0.00     0.285 A 
HETATM    7  O   UNL     1     -42.485  56.526 -57.775  1.00  0.00    -0.267 OA
HETATM    8  H   UNL     1     -45.739  59.573 -57.379  1.00  0.00     0.166 HD
ENDROOT
BRANCH   5   9
HETATM    9  N   UNL     1     -43.259  56.747 -54.999  1.00  0.00    -0.256 N 
HETATM   10  C   UNL     1     -42.163  57.363 -54.418  1.00  0.00     0.242 C 
HETATM   11  O   UNL     1     -41.713  58.452 -54.769  1.00  0.00    -0.271 OA
HETATM   12  H   UNL     1     -43.208  55.731 -55.082  1.00  0.00     0.191 HD
BRANCH  10  13
HETATM   13  C   UNL     1     -41.643  56.636 -53.200  1.00  0.00     0.166 C 
BRANCH  13  14
HETATM   14  C   UNL     1     -41.129  55.230 -53.432  1.00  0.00     0.074 A 
HETATM   15  N   UNL     1     -40.933  54.845 -54.657  1.00  0.00    -0.175 NA
HETATM   16  N   UNL     1     -40.449  53.595 -54.875  1.00  0.00    -0.243 N 
HETATM   17  C   UNL     1     -40.125  52.671 -53.911  1.00  0.00     0.272 A 
HETATM   18  H   UNL     1     -40.273  53.336 -55.844  1.00  0.00     0.192 HD
HETATM   19  O   UNL     1     -39.662  51.569 -54.183  1.00  0.00    -0.266 OA
HETATM   20  C   UNL     1     -40.373  53.078 -52.519  1.00  0.00     0.046 A 
HETATM   21  C   UNL     1     -40.868  54.356 -52.262  1.00  0.00     0.006 A 
HETATM   22  C   UNL     1     -40.121  52.187 -51.469  1.00  0.00     0.018 A 
HETATM   23  C   UNL     1     -41.111  54.747 -50.940  1.00  0.00     0.014 A 
HETATM   24  C   UNL     1     -40.866  53.853 -49.891  1.00  0.00     0.001 A 
HETATM   25  C   UNL     1     -40.373  52.576 -50.154  1.00  0.00     0.001 A 
ENDBRANCH  13  14
ENDBRANCH  10  13
ENDBRANCH   5   9
BRANCH   1  26
HETATM   26  C   UNL     1     -45.260  57.514 -59.191  1.00  0.00    -0.016 A 
HETATM   27  C   UNL     1     -46.408  58.159 -59.685  1.00  0.00     0.010 A 
HETATM   28  C   UNL     1     -47.274  57.505 -60.568  1.00  0.00     0.001 A 
HETATM   29  C   UNL     1     -47.008  56.200 -60.978  1.00  0.00     0.000 A 
HETATM   30  C   UNL     1     -45.873  55.547 -60.511  1.00  0.00     0.001 A 
HETATM   31  C   UNL     1     -45.004  56.199 -59.634  1.00  0.00     0.010 A 
ENDBRANCH   1  26
BRANCH   1  32
HETATM   32  C   UNL     1     -43.308  59.179 -59.003  1.00  0.00    -0.016 A 
HETATM   33  C   UNL     1     -42.935  58.999 -60.347  1.00  0.00     0.010 A 
HETATM   34  C   UNL     1     -42.086  59.910 -60.983  1.00  0.00     0.001 A 
HETATM   35  C   UNL     1     -41.599  61.017 -60.293  1.00  0.00     0.000 A 
HETATM   36  C   UNL     1     -41.959  61.217 -58.965  1.00  0.00     0.001 A 
HETATM   37  C   UNL     1     -42.805  60.309 -58.326  1.00  0.00     0.010 A 
ENDBRANCH   1  32
TORSDOF 5
ENDMDL
MODEL 7
REMARK VINA RESULT:      -9.2      1.609      1.936
REMARK  5 active torsions:
REMARK  status: ('A' for Active; 'I' for Inactive)
REMARK    1  A    between atoms: C_4  and  C_5 
REMARK    2  A    between atoms: C_5  and  C_6 
REMARK    3  A    between atoms: N_15  and  N_16 
REMARK       I    between atoms: N_16  and  C_17 
REMARK    4  A    between atoms: C_17  and  C_18 
REMARK    5  A    between atoms: C_18  and  C_19 
ROOT
HETATM    1  C   UNL     1     -41.473  53.940 -53.224  1.00  0.00     0.173 A 
HETATM    2  N   UNL     1     -42.897  53.870 -53.527  1.00  0.00    -0.315 N 
HETATM    3  C   UNL     1     -43.245  54.603 -54.636  1.00  0.00     0.346 A 
HETATM    4  O   UNL     1     -44.371  54.648 -55.105  1.00  0.00    -0.245 OA
HETATM    5  N   UNL     1     -42.117  55.197 -55.124  1.00  0.00    -0.167 N 
HETATM    6  C   UNL     1     -40.992  54.809 -54.434  1.00  0.00     0.285 A 
HETATM    7  O   UNL     1     -39.829  55.074 -54.722  1.00  0.00    -0.267 OA
HETATM    8  H   UNL     1     -43.588  53.413 -52.951  1.00  0.00     0.166 HD
ENDROOT
BRANCH   5   9
HETATM    9  N   UNL     1     -42.089  55.900 -56.322  1.00  0.00    -0.256 N 
HETATM   10  C   UNL     1     -42.309  57.267 -56.266  1.00  0.00     0.242 C 
HETATM   11  O   UNL     1     -42.471  57.901 -55.225  1.00  0.00    -0.271 OA
HETATM   12  H   UNL     1     -42.524  55.410 -57.104  1.00  0.00     0.191 HD
BRANCH  10  13
HETATM   13  C   UNL     1     -42.191  57.948 -57.610  1.00  0.00     0.166 C 
BRANCH  13  14
HETATM   14  C   UNL     1     -43.459  58.021 -58.434  1.00  0.00     0.074 A 
HETATM   15  N   UNL     1     -44.438  57.228 -58.121  1.00  0.00    -0.175 NA
HETATM   16  N   UNL     1     -45.590  57.303 -58.839  1.00  0.00    -0.243 N 
HETATM   17  C   UNL     1     -45.840  58.160 -59.883  1.00  0.00     0.272 A 
HETATM   18  H   UNL     1     -46.350  56.693 -58.546  1.00  0.00     0.192 HD
HETATM   19  O   UNL     1     -46.917  58.192 -60.466  1.00  0.00    -0.266 OA
HETATM   20  C   UNL     1     -44.728  59.042 -60.273  1.00  0.00     0.046 A 
HETATM   21  C   UNL     1     -43.534  58.991 -59.556  1.00  0.00     0.006 A 
HETATM   22  C   UNL     1     -44.871  59.916 -61.358  1.00  0.00     0.018 A 
HETATM   23  C   UNL     1     -42.472  59.824 -59.925  1.00  0.00     0.014 A 
HETATM   24  C   UNL     1     -42.611  60.692 -61.014  1.00  0.00     0.001 A 
HETATM   25  C   UNL     1     -43.807  60.738 -61.730  1.00  0.00     0.001 A 
ENDBRANCH  13  14
ENDBRANCH  10  13
ENDBRANCH   5   9
BRANCH   1  26
HETATM   26  C   UNL     1     -41.333  54.621 -51.855  1.00  0.00    -0.016 A 
HETATM   27  C   UNL     1     -41.066  55.995 -51.721  1.00  0.00     0.010 A 
HETATM   28  C   UNL     1     -40.997  56.592 -50.458  1.00  0.00     0.001 A 
HETATM   29  C   UNL     1     -41.198  55.833 -49.308  1.00  0.00     0.000 A 
HETATM   30  C   UNL     1     -41.474  54.474 -49.417  1.00  0.00     0.001 A 
HETATM   31  C   UNL     1     -41.549  53.876 -50.676  1.00  0.00     0.010 A 
ENDBRANCH   1  26
BRANCH   1  32
HETATM   32  C   UNL     1     -40.785  52.566 -53.302  1.00  0.00    -0.016 A 
HETATM   33  C   UNL     1     -40.955  51.690 -54.390  1.00  0.00     0.010 A 
HETATM   34  C   UNL     1     -40.294  50.459 -54.429  1.00  0.00     0.001 A 
HETATM   35  C   UNL     1     -39.451  50.081 -53.387  1.00  0.00     0.000 A 
HETATM   36  C   UNL     1     -39.265  50.932 -52.304  1.00  0.00     0.001 A 
HETATM   37  C   UNL     1     -39.924  52.162 -52.261  1.00  0.00     0.010 A 
ENDBRANCH   1  32
TORSDOF 5
ENDMDL
MODEL 8
REMARK VINA RESULT:      -9.0      1.375      2.005
REMARK  5 active torsions:
REMARK  status: ('A' for Active; 'I' for Inactive)
REMARK    1  A    between atoms: C_4  and  C_5 
REMARK    2  A    between atoms: C_5  and  C_6 
REMARK    3  A    between atoms: N_15  and  N_16 
REMARK       I    between atoms: N_16  and  C_17 
REMARK    4  A    between atoms: C_17  and  C_18 
REMARK    5  A    between atoms: C_18  and  C_19 
ROOT
HETATM    1  C   UNL     1     -41.492  55.162 -53.023  1.00  0.00     0.173 A 
HETATM    2  N   UNL     1     -42.943  55.042 -53.081  1.00  0.00    -0.315 N 
HETATM    3  C   UNL     1     -43.436  55.106 -54.361  1.00  0.00     0.346 A 
HETATM    4  O   UNL     1     -44.615  54.977 -54.653  1.00  0.00    -0.245 OA
HETATM    5  N   UNL     1     -42.384  55.276 -55.213  1.00  0.00    -0.167 N 
HETATM    6  C   UNL     1     -41.176  55.231 -54.555  1.00  0.00     0.285 A 
HETATM    7  O   UNL     1     -40.063  55.224 -55.069  1.00  0.00    -0.267 OA
HETATM    8  H   UNL     1     -43.552  55.004 -52.276  1.00  0.00     0.166 HD
ENDROOT
BRANCH   5   9
HETATM    9  N   UNL     1     -42.516  55.243 -56.596  1.00  0.00    -0.256 N 
HETATM   10  C   UNL     1     -42.790  56.438 -57.241  1.00  0.00     0.242 C 
HETATM   11  O   UNL     1     -42.869  57.527 -56.678  1.00  0.00    -0.271 OA
HETATM   12  H   UNL     1     -43.009  54.422 -56.949  1.00  0.00     0.191 HD
BRANCH  10  13
HETATM   13  C   UNL     1     -42.846  56.307 -58.746  1.00  0.00     0.166 C 
BRANCH  13  14
HETATM   14  C   UNL     1     -44.229  56.314 -59.365  1.00  0.00     0.074 A 
HETATM   15  N   UNL     1     -44.843  55.178 -59.504  1.00  0.00    -0.175 NA
HETATM   16  N   UNL     1     -46.093  55.177 -60.035  1.00  0.00    -0.243 N 
HETATM   17  C   UNL     1     -46.803  56.280 -60.442  1.00  0.00     0.272 A 
HETATM   18  H   UNL     1     -46.561  54.275 -60.098  1.00  0.00     0.192 HD
HETATM   19  O   UNL     1     -47.943  56.205 -60.884  1.00  0.00    -0.266 OA
HETATM   20  C   UNL     1     -46.109  57.573 -60.323  1.00  0.00     0.046 A 
HETATM   21  C   UNL     1     -44.825  57.608 -59.780  1.00  0.00     0.006 A 
HETATM   22  C   UNL     1     -46.732  58.749 -60.757  1.00  0.00     0.018 A 
HETATM   23  C   UNL     1     -44.158  58.834 -59.669  1.00  0.00     0.014 A 
HETATM   24  C   UNL     1     -44.778  60.009 -60.110  1.00  0.00     0.001 A 
HETATM   25  C   UNL     1     -46.061  59.967 -60.654  1.00  0.00     0.001 A 
ENDBRANCH  13  14
ENDBRANCH  10  13
ENDBRANCH   5   9
BRANCH   1  26
HETATM   26  C   UNL     1     -41.172  56.448 -52.249  1.00  0.00    -0.016 A 
HETATM   27  C   UNL     1     -41.277  56.531 -50.849  1.00  0.00     0.010 A 
HETATM   28  C   UNL     1     -40.927  57.704 -50.172  1.00  0.00     0.001 A 
HETATM   29  C   UNL     1     -40.461  58.812 -50.876  1.00  0.00     0.000 A 
HETATM   30  C   UNL     1     -40.338  58.749 -52.260  1.00  0.00     0.001 A 
HETATM   31  C   UNL     1     -40.682  57.578 -52.938  1.00  0.00     0.010 A 
ENDBRANCH   1  26
BRANCH   1  32
HETATM   32  C   UNL     1     -40.819  53.907 -52.440  1.00  0.00    -0.016 A 
HETATM   33  C   UNL     1     -40.671  53.697 -51.056  1.00  0.00     0.010 A 
HETATM   34  C   UNL     1     -40.071  52.532 -50.569  1.00  0.00     0.001 A 
HETATM   35  C   UNL     1     -39.612  51.557 -51.450  1.00  0.00     0.000 A 
HETATM   36  C   UNL     1     -39.752  51.742 -52.821  1.00  0.00     0.001 A 
HETATM   37  C   UNL     1     -40.350  52.904 -53.311  1.00  0.00     0.010 A 
ENDBRANCH   1  32
TORSDOF 5
ENDMDL
MODEL 9
REMARK VINA RESULT:      -8.8      2.622      8.839
REMARK  5 active torsions:
REMARK  status: ('A' for Active; 'I' for Inactive)
REMARK    1  A    between atoms: C_4  and  C_5 
REMARK    2  A    between atoms: C_5  and  C_6 
REMARK    3  A    between atoms: N_15  and  N_16 
REMARK       I    between atoms: N_16  and  C_17 
REMARK    4  A    between atoms: C_17  and  C_18 
REMARK    5  A    between atoms: C_18  and  C_19 
ROOT
HETATM    1  C   UNL     1     -44.114  58.972 -58.449  1.00  0.00     0.173 A 
HETATM    2  N   UNL     1     -44.868  59.763 -57.486  1.00  0.00    -0.315 N 
HETATM    3  C   UNL     1     -44.552  59.464 -56.183  1.00  0.00     0.346 A 
HETATM    4  O   UNL     1     -45.020  60.037 -55.212  1.00  0.00    -0.245 OA
HETATM    5  N   UNL     1     -43.605  58.482 -56.190  1.00  0.00    -0.167 N 
HETATM    6  C   UNL     1     -43.195  58.171 -57.466  1.00  0.00     0.285 A 
HETATM    7  O   UNL     1     -42.272  57.426 -57.778  1.00  0.00    -0.267 OA
HETATM    8  H   UNL     1     -45.612  60.404 -57.721  1.00  0.00     0.166 HD
ENDROOT
BRANCH   5   9
HETATM    9  N   UNL     1     -42.962  58.041 -55.040  1.00  0.00    -0.256 N 
HETATM   10  C   UNL     1     -41.841  58.741 -54.625  1.00  0.00     0.242 C 
HETATM   11  O   UNL     1     -41.414  59.754 -55.174  1.00  0.00    -0.271 OA
HETATM   12  H   UNL     1     -42.911  57.025 -54.954  1.00  0.00     0.191 HD
BRANCH  10  13
HETATM   13  C   UNL     1     -41.258  58.225 -53.330  1.00  0.00     0.166 C 
BRANCH  13  14
HETATM   14  C   UNL     1     -41.847  56.934 -52.801  1.00  0.00     0.074 A 
HETATM   15  N   UNL     1     -42.713  57.007 -51.836  1.00  0.00    -0.175 NA
HETATM   16  N   UNL     1     -43.266  55.857 -51.371  1.00  0.00    -0.243 N 
HETATM   17  C   UNL     1     -43.008  54.589 -51.833  1.00  0.00     0.272 A 
HETATM   18  H   UNL     1     -43.966  55.951 -50.639  1.00  0.00     0.192 HD
HETATM   19  O   UNL     1     -43.570  53.596 -51.384  1.00  0.00    -0.266 OA
HETATM   20  C   UNL     1     -42.004  54.484 -52.903  1.00  0.00     0.046 A 
HETATM   21  C   UNL     1     -41.419  55.647 -53.403  1.00  0.00     0.006 A 
HETATM   22  C   UNL     1     -41.639  53.230 -53.406  1.00  0.00     0.018 A 
HETATM   23  C   UNL     1     -40.459  55.553 -54.418  1.00  0.00     0.014 A 
HETATM   24  C   UNL     1     -40.088  54.299 -54.915  1.00  0.00     0.001 A 
HETATM   25  C   UNL     1     -40.676  53.139 -54.410  1.00  0.00     0.001 A 
ENDBRANCH  13  14
ENDBRANCH  10  13
ENDBRANCH   5   9
BRANCH   1  26
HETATM   26  C   UNL     1     -45.124  58.110 -59.221  1.00  0.00    -0.016 A 
HETATM   27  C   UNL     1     -46.296  58.645 -59.784  1.00  0.00     0.010 A 
HETATM   28  C   UNL     1     -47.167  57.840 -60.525  1.00  0.00     0.001 A 
HETATM   29  C   UNL     1     -46.883  56.490 -60.723  1.00  0.00     0.000 A 
HETATM   30  C   UNL     1     -45.725  55.942 -60.185  1.00  0.00     0.001 A 
HETATM   31  C   UNL     1     -44.850  56.744 -59.448  1.00  0.00     0.010 A 
ENDBRANCH   1  26
BRANCH   1  32
HETATM   32  C   UNL     1     -43.224  59.839 -59.357  1.00  0.00    -0.016 A 
HETATM   33  C   UNL     1     -42.534  60.972 -58.888  1.00  0.00     0.010 A 
HETATM   34  C   UNL     1     -41.720  61.720 -59.744  1.00  0.00     0.001 A 
HETATM   35  C   UNL     1     -41.576  61.350 -61.079  1.00  0.00     0.000 A 
HETATM   36  C   UNL     1     -42.245  60.231 -61.562  1.00  0.00     0.001 A 
HETATM   37  C   UNL     1     -43.059  59.482 -60.711  1.00  0.00     0.010 A 
ENDBRANCH   1  32
TORSDOF 5
ENDMDL
MODEL 10
REMARK VINA RESULT:      -8.7      2.114      3.308
REMARK  5 active torsions:
REMARK  status: ('A' for Active; 'I' for Inactive)
REMARK    1  A    between atoms: C_4  and  C_5 
REMARK    2  A    between atoms: C_5  and  C_6 
REMARK    3  A    between atoms: N_15  and  N_16 
REMARK       I    between atoms: N_16  and  C_17 
REMARK    4  A    between atoms: C_17  and  C_18 
REMARK    5  A    between atoms: C_18  and  C_19 
ROOT
HETATM    1  C   UNL     1     -41.919  56.715 -52.418  1.00  0.00     0.173 A 
HETATM    2  N   UNL     1     -43.359  56.719 -52.637  1.00  0.00    -0.315 N 
HETATM    3  C   UNL     1     -43.699  56.851 -53.962  1.00  0.00     0.346 A 
HETATM    4  O   UNL     1     -44.845  56.827 -54.385  1.00  0.00    -0.245 OA
HETATM    5  N   UNL     1     -42.548  56.948 -54.689  1.00  0.00    -0.167 N 
HETATM    6  C   UNL     1     -41.429  56.789 -53.904  1.00  0.00     0.285 A 
HETATM    7  O   UNL     1     -40.270  56.698 -54.293  1.00  0.00    -0.267 OA
HETATM    8  H   UNL     1     -44.055  56.717 -51.906  1.00  0.00     0.166 HD
ENDROOT
BRANCH   5   9
HETATM    9  N   UNL     1     -42.527  56.954 -56.078  1.00  0.00    -0.256 N 
HETATM   10  C   UNL     1     -42.343  58.173 -56.710  1.00  0.00     0.242 C 
HETATM   11  O   UNL     1     -42.144  59.235 -56.123  1.00  0.00    -0.271 OA
HETATM   12  H   UNL     1     -43.208  56.327 -56.508  1.00  0.00     0.191 HD
BRANCH  10  13
HETATM   13  C   UNL     1     -42.268  58.062 -58.215  1.00  0.00     0.166 C 
BRANCH  13  14
HETATM   14  C   UNL     1     -43.586  58.139 -58.956  1.00  0.00     0.074 A 
HETATM   15  N   UNL     1     -44.118  59.310 -59.138  1.00  0.00    -0.175 NA
HETATM   16  N   UNL     1     -45.288  59.393 -59.823  1.00  0.00    -0.243 N 
HETATM   17  C   UNL     1     -45.984  58.342 -60.370  1.00  0.00     0.272 A 
HETATM   18  H   UNL     1     -45.661  60.327 -59.979  1.00  0.00     0.192 HD
HETATM   19  O   UNL     1     -47.021  58.496 -61.004  1.00  0.00    -0.266 OA
HETATM   20  C   UNL     1     -45.413  57.004 -60.145  1.00  0.00     0.046 A 
HETATM   21  C   UNL     1     -44.212  56.886 -59.446  1.00  0.00     0.006 A 
HETATM   22  C   UNL     1     -46.075  55.867 -60.621  1.00  0.00     0.018 A 
HETATM   23  C   UNL     1     -43.666  55.616 -59.224  1.00  0.00     0.014 A 
HETATM   24  C   UNL     1     -44.332  54.478 -59.694  1.00  0.00     0.001 A 
HETATM   25  C   UNL     1     -45.534  54.602 -60.390  1.00  0.00     0.001 A 
ENDBRANCH  13  14
ENDBRANCH  10  13
ENDBRANCH   5   9
BRANCH   1  26
HETATM   26  C   UNL     1     -41.583  57.954 -51.576  1.00  0.00    -0.016 A 
HETATM   27  C   UNL     1     -40.263  58.302 -51.241  1.00  0.00     0.010 A 
HETATM   28  C   UNL     1     -39.991  59.468 -50.516  1.00  0.00     0.001 A 
HETATM   29  C   UNL     1     -41.027  60.309 -50.119  1.00  0.00     0.000 A 
HETATM   30  C   UNL     1     -42.340  59.990 -50.449  1.00  0.00     0.001 A 
HETATM   31  C   UNL     1     -42.615  58.830 -51.176  1.00  0.00     0.010 A 
ENDBRANCH   1  26
BRANCH   1  32
HETATM   32  C   UNL     1     -41.420  55.397 -51.801  1.00  0.00    -0.016 A 
HETATM   33  C   UNL     1     -41.035  54.290 -52.580  1.00  0.00     0.010 A 
HETATM   34  C   UNL     1     -40.569  53.118 -51.978  1.00  0.00     0.001 A 
HETATM   35  C   UNL     1     -40.473  53.030 -50.591  1.00  0.00     0.000 A 
HETATM   36  C   UNL     1     -40.843  54.114 -49.802  1.00  0.00     0.001 A 
HETATM   37  C   UNL     1     -41.311  55.285 -50.400  1.00  0.00     0.010 A 
ENDBRANCH   1  32
TORSDOF 5
ENDMDL
