MODEL 1
REMARK VINA RESULT:      -8.2      0.000      0.000
REMARK  3 active torsions:
REMARK  status: ('A' for Active; 'I' for Inactive)
REMARK    1  A    between atoms: N_3  and  C_4 
REMARK    2  A    between atoms: C_8  and  C_9 
REMARK       I    between atoms: C_9  and  N_10 
REMARK    3  A    between atoms: C_17  and  O_18 
ROOT
HETATM    1  C   UNL     1     -41.226  57.607 -53.117  1.00  0.00     0.254 C 
HETATM    2  N   UNL     1     -42.428  58.113 -52.631  1.00  0.00    -0.343 N 
HETATM    3  C   UNL     1     -42.478  59.541 -52.346  1.00  0.00     0.165 C 
HETATM    4  C   UNL     1     -43.593  59.915 -51.394  1.00  0.00    -0.031 A 
HETATM    5  C   UNL     1     -44.640  59.018 -51.099  1.00  0.00    -0.049 A 
HETATM    6  C   UNL     1     -44.639  57.621 -51.671  1.00  0.00     0.059 C 
HETATM    7  C   UNL     1     -43.729  57.497 -52.892  1.00  0.00     0.131 C 
HETATM    8  C   UNL     1     -43.597  61.193 -50.815  1.00  0.00     0.046 A 
HETATM    9  C   UNL     1     -44.615  61.556 -49.938  1.00  0.00     0.066 A 
HETATM   10  C   UNL     1     -45.641  60.671 -49.631  1.00  0.00     0.037 A 
HETATM   11  C   UNL     1     -45.654  59.402 -50.209  1.00  0.00     0.010 A 
HETATM   12  O   UNL     1     -40.277  58.321 -53.434  1.00  0.00    -0.267 OA
ENDROOT
BRANCH   1  13
HETATM   13  C   UNL     1     -41.040  56.138 -53.195  1.00  0.00     0.035 A 
HETATM   14  C   UNL     1     -40.675  55.568 -54.415  1.00  0.00     0.061 A 
HETATM   15  C   UNL     1     -40.416  54.200 -54.495  1.00  0.00     0.146 A 
HETATM   16  C   UNL     1     -40.506  53.383 -53.363  1.00  0.00     0.096 A 
HETATM   17  F   UNL     1     -40.081  53.713 -55.697  1.00  0.00    -0.204 F 
HETATM   18  C   UNL     1     -40.863  53.968 -52.135  1.00  0.00     0.036 A 
HETATM   19  C   UNL     1     -41.115  55.341 -52.048  1.00  0.00     0.019 A 
BRANCH  16  20
HETATM   20  N   UNL     1     -40.229  51.990 -53.409  1.00  0.00    -0.242 N 
HETATM   21  C   UNL     1     -40.442  51.089 -54.431  1.00  0.00     0.120 A 
HETATM   22  C   UNL     1     -39.996  49.862 -54.000  1.00  0.00     0.040 A 
HETATM   23  C   UNL     1     -39.529  50.097 -52.702  1.00  0.00     0.140 A 
HETATM   24  N   UNL     1     -39.661  51.371 -52.335  1.00  0.00    -0.180 NA
ENDBRANCH  16  20
ENDBRANCH   1  13
BRANCH   9  25
HETATM   25  O   UNL     1     -44.639  62.784 -49.346  1.00  0.00    -0.361 OA
HETATM   26  H   UNL     1     -45.127  62.715 -48.509  1.00  0.00     0.217 HD
ENDBRANCH   9  25
TORSDOF 3
ENDMDL
MODEL 2
REMARK VINA RESULT:      -8.2      3.061      8.656
REMARK  3 active torsions:
REMARK  status: ('A' for Active; 'I' for Inactive)
REMARK    1  A    between atoms: N_3  and  C_4 
REMARK    2  A    between atoms: C_8  and  C_9 
REMARK       I    between atoms: C_9  and  N_10 
REMARK    3  A    between atoms: C_17  and  O_18 
ROOT
HETATM    1  C   UNL     1     -41.341  55.599 -53.419  1.00  0.00     0.254 C 
HETATM    2  N   UNL     1     -40.834  54.612 -52.579  1.00  0.00    -0.343 N 
HETATM    3  C   UNL     1     -40.146  53.494 -53.212  1.00  0.00     0.165 C 
HETATM    4  C   UNL     1     -40.068  52.270 -52.325  1.00  0.00    -0.031 A 
HETATM    5  C   UNL     1     -40.342  52.343 -50.945  1.00  0.00    -0.049 A 
HETATM    6  C   UNL     1     -40.798  53.640 -50.319  1.00  0.00     0.059 C 
HETATM    7  C   UNL     1     -40.457  54.850 -51.186  1.00  0.00     0.131 C 
HETATM    8  C   UNL     1     -39.687  51.042 -52.888  1.00  0.00     0.046 A 
HETATM    9  C   UNL     1     -39.608  49.906 -52.089  1.00  0.00     0.066 A 
HETATM   10  C   UNL     1     -39.892  49.969 -50.731  1.00  0.00     0.037 A 
HETATM   11  C   UNL     1     -40.261  51.185 -50.158  1.00  0.00     0.010 A 
HETATM   12  O   UNL     1     -41.119  55.631 -54.627  1.00  0.00    -0.267 OA
ENDROOT
BRANCH   1  13
HETATM   13  C   UNL     1     -42.252  56.626 -52.858  1.00  0.00     0.035 A 
HETATM   14  C   UNL     1     -41.811  57.947 -52.778  1.00  0.00     0.061 A 
HETATM   15  C   UNL     1     -42.676  58.945 -52.329  1.00  0.00     0.146 A 
HETATM   16  C   UNL     1     -43.992  58.645 -51.964  1.00  0.00     0.096 A 
HETATM   17  F   UNL     1     -42.189  60.191 -52.265  1.00  0.00    -0.204 F 
HETATM   18  C   UNL     1     -44.433  57.312 -52.059  1.00  0.00     0.036 A 
HETATM   19  C   UNL     1     -43.571  56.310 -52.517  1.00  0.00     0.019 A 
BRANCH  16  20
HETATM   20  N   UNL     1     -44.903  59.642 -51.522  1.00  0.00    -0.242 N 
HETATM   21  C   UNL     1     -44.969  60.290 -50.306  1.00  0.00     0.120 A 
HETATM   22  C   UNL     1     -46.015  61.179 -50.368  1.00  0.00     0.040 A 
HETATM   23  C   UNL     1     -46.542  61.010 -51.653  1.00  0.00     0.140 A 
HETATM   24  N   UNL     1     -45.883  60.091 -52.358  1.00  0.00    -0.180 NA
ENDBRANCH  16  20
ENDBRANCH   1  13
BRANCH   9  25
HETATM   25  O   UNL     1     -39.257  48.695 -52.607  1.00  0.00    -0.361 OA
HETATM   26  H   UNL     1     -38.287  48.642 -52.642  1.00  0.00     0.217 HD
ENDBRANCH   9  25
TORSDOF 3
ENDMDL
MODEL 3
REMARK VINA RESULT:      -8.1      4.918      7.132
REMARK  3 active torsions:
REMARK  status: ('A' for Active; 'I' for Inactive)
REMARK    1  A    between atoms: N_3  and  C_4 
REMARK    2  A    between atoms: C_8  and  C_9 
REMARK       I    between atoms: C_9  and  N_10 
REMARK    3  A    between atoms: C_17  and  O_18 
ROOT
HETATM    1  C   UNL     1     -44.171  57.774 -55.343  1.00  0.00     0.254 C 
HETATM    2  N   UNL     1     -43.981  57.229 -56.609  1.00  0.00    -0.343 N 
HETATM    3  C   UNL     1     -44.855  57.706 -57.673  1.00  0.00     0.165 C 
HETATM    4  C   UNL     1     -44.929  56.754 -58.848  1.00  0.00    -0.031 A 
HETATM    5  C   UNL     1     -43.999  55.707 -59.006  1.00  0.00    -0.049 A 
HETATM    6  C   UNL     1     -42.939  55.456 -57.960  1.00  0.00     0.059 C 
HETATM    7  C   UNL     1     -42.707  56.675 -57.069  1.00  0.00     0.131 C 
HETATM    8  C   UNL     1     -45.930  56.938 -59.814  1.00  0.00     0.046 A 
HETATM    9  C   UNL     1     -46.013  56.075 -60.902  1.00  0.00     0.066 A 
HETATM   10  C   UNL     1     -45.109  55.031 -61.055  1.00  0.00     0.037 A 
HETATM   11  C   UNL     1     -44.103  54.845 -60.107  1.00  0.00     0.010 A 
HETATM   12  O   UNL     1     -44.933  58.713 -55.125  1.00  0.00    -0.267 OA
ENDROOT
BRANCH   1  13
HETATM   13  C   UNL     1     -43.483  57.160 -54.182  1.00  0.00     0.035 A 
HETATM   14  C   UNL     1     -43.868  55.884 -53.767  1.00  0.00     0.061 A 
HETATM   15  C   UNL     1     -43.182  55.253 -52.729  1.00  0.00     0.146 A 
HETATM   16  C   UNL     1     -42.101  55.876 -52.098  1.00  0.00     0.096 A 
HETATM   17  F   UNL     1     -43.607  54.034 -52.371  1.00  0.00    -0.204 F 
HETATM   18  C   UNL     1     -41.713  57.157 -52.530  1.00  0.00     0.036 A 
HETATM   19  C   UNL     1     -42.391  57.790 -53.576  1.00  0.00     0.019 A 
BRANCH  16  20
HETATM   20  N   UNL     1     -41.371  55.251 -51.051  1.00  0.00    -0.242 N 
HETATM   21  C   UNL     1     -41.338  55.553 -49.705  1.00  0.00     0.120 A 
HETATM   22  C   UNL     1     -40.494  54.653 -49.101  1.00  0.00     0.040 A 
HETATM   23  C   UNL     1     -40.048  53.835 -50.145  1.00  0.00     0.140 A 
HETATM   24  N   UNL     1     -40.567  54.182 -51.322  1.00  0.00    -0.180 NA
ENDBRANCH  16  20
ENDBRANCH   1  13
BRANCH   9  25
HETATM   25  O   UNL     1     -46.983  56.216 -61.850  1.00  0.00    -0.361 OA
HETATM   26  H   UNL     1     -46.582  56.093 -62.725  1.00  0.00     0.217 HD
ENDBRANCH   9  25
TORSDOF 3
ENDMDL
MODEL 4
REMARK VINA RESULT:      -8.0      3.236      8.671
REMARK  3 active torsions:
REMARK  status: ('A' for Active; 'I' for Inactive)
REMARK    1  A    between atoms: N_3  and  C_4 
REMARK    2  A    between atoms: C_8  and  C_9 
REMARK       I    between atoms: C_9  and  N_10 
REMARK    3  A    between atoms: C_17  and  O_18 
ROOT
HETATM    1  C   UNL     1     -42.625  55.836 -54.941  1.00  0.00     0.254 C 
HETATM    2  N   UNL     1     -41.717  55.065 -54.222  1.00  0.00    -0.343 N 
HETATM    3  C   UNL     1     -41.191  53.877 -54.882  1.00  0.00     0.165 C 
HETATM    4  C   UNL     1     -40.628  52.863 -53.909  1.00  0.00    -0.031 A 
HETATM    5  C   UNL     1     -40.360  53.200 -52.567  1.00  0.00    -0.049 A 
HETATM    6  C   UNL     1     -40.699  54.573 -52.037  1.00  0.00     0.059 C 
HETATM    7  C   UNL     1     -40.869  55.598 -53.156  1.00  0.00     0.131 C 
HETATM    8  C   UNL     1     -40.342  51.566 -54.364  1.00  0.00     0.046 A 
HETATM    9  C   UNL     1     -39.823  50.620 -53.486  1.00  0.00     0.066 A 
HETATM   10  C   UNL     1     -39.571  50.942 -52.159  1.00  0.00     0.037 A 
HETATM   11  C   UNL     1     -39.841  52.230 -51.697  1.00  0.00     0.010 A 
HETATM   12  O   UNL     1     -42.888  55.635 -56.125  1.00  0.00    -0.267 OA
ENDROOT
BRANCH   1  13
HETATM   13  C   UNL     1     -43.372  56.910 -54.243  1.00  0.00     0.035 A 
HETATM   14  C   UNL     1     -44.024  56.610 -53.046  1.00  0.00     0.061 A 
HETATM   15  C   UNL     1     -44.665  57.621 -52.330  1.00  0.00     0.146 A 
HETATM   16  C   UNL     1     -44.658  58.942 -52.787  1.00  0.00     0.096 A 
HETATM   17  F   UNL     1     -45.282  57.266 -51.195  1.00  0.00    -0.204 F 
HETATM   18  C   UNL     1     -43.989  59.238 -53.988  1.00  0.00     0.036 A 
HETATM   19  C   UNL     1     -43.337  58.230 -54.705  1.00  0.00     0.019 A 
BRANCH  16  20
HETATM   20  N   UNL     1     -45.286  59.997 -52.070  1.00  0.00    -0.242 N 
HETATM   21  C   UNL     1     -46.430  60.703 -52.376  1.00  0.00     0.120 A 
HETATM   22  C   UNL     1     -46.637  61.612 -51.365  1.00  0.00     0.040 A 
HETATM   23  C   UNL     1     -45.573  61.401 -50.482  1.00  0.00     0.140 A 
HETATM   24  N   UNL     1     -44.754  60.433 -50.892  1.00  0.00    -0.180 NA
ENDBRANCH  16  20
ENDBRANCH   1  13
BRANCH   9  25
HETATM   25  O   UNL     1     -39.549  49.348 -53.892  1.00  0.00    -0.361 OA
HETATM   26  H   UNL     1     -38.842  48.989 -53.332  1.00  0.00     0.217 HD
ENDBRANCH   9  25
TORSDOF 3
ENDMDL
MODEL 5
REMARK VINA RESULT:      -7.9      3.383      8.904
REMARK  3 active torsions:
REMARK  status: ('A' for Active; 'I' for Inactive)
REMARK    1  A    between atoms: N_3  and  C_4 
REMARK    2  A    between atoms: C_8  and  C_9 
REMARK       I    between atoms: C_9  and  N_10 
REMARK    3  A    between atoms: C_17  and  O_18 
ROOT
HETATM    1  C   UNL     1     -42.764  57.743 -52.661  1.00  0.00     0.254 C 
HETATM    2  N   UNL     1     -41.908  56.769 -52.156  1.00  0.00    -0.343 N 
HETATM    3  C   UNL     1     -41.373  55.803 -53.108  1.00  0.00     0.165 C 
HETATM    4  C   UNL     1     -40.879  54.535 -52.445  1.00  0.00    -0.031 A 
HETATM    5  C   UNL     1     -40.671  54.465 -51.053  1.00  0.00    -0.049 A 
HETATM    6  C   UNL     1     -41.009  55.638 -50.165  1.00  0.00     0.059 C 
HETATM    7  C   UNL     1     -41.103  56.946 -50.948  1.00  0.00     0.131 C 
HETATM    8  C   UNL     1     -40.596  53.414 -53.242  1.00  0.00     0.046 A 
HETATM    9  C   UNL     1     -40.139  52.240 -52.652  1.00  0.00     0.066 A 
HETATM   10  C   UNL     1     -39.947  52.159 -51.279  1.00  0.00     0.037 A 
HETATM   11  C   UNL     1     -40.215  53.270 -50.478  1.00  0.00     0.010 A 
HETATM   12  O   UNL     1     -42.972  57.898 -53.862  1.00  0.00    -0.267 OA
ENDROOT
BRANCH   1  13
HETATM   13  C   UNL     1     -43.524  58.596 -51.715  1.00  0.00     0.035 A 
HETATM   14  C   UNL     1     -42.980  59.821 -51.326  1.00  0.00     0.061 A 
HETATM   15  C   UNL     1     -43.711  60.677 -50.501  1.00  0.00     0.146 A 
HETATM   16  C   UNL     1     -44.993  60.331 -50.061  1.00  0.00     0.096 A 
HETATM   17  F   UNL     1     -43.129  61.832 -50.155  1.00  0.00    -0.204 F 
HETATM   18  C   UNL     1     -45.538  59.100 -50.468  1.00  0.00     0.036 A 
HETATM   19  C   UNL     1     -44.813  58.243 -51.302  1.00  0.00     0.019 A 
BRANCH  16  20
HETATM   20  N   UNL     1     -45.769  61.190 -49.237  1.00  0.00    -0.242 N 
HETATM   21  C   UNL     1     -46.471  62.328 -49.574  1.00  0.00     0.120 A 
HETATM   22  C   UNL     1     -47.072  62.797 -48.430  1.00  0.00     0.040 A 
HETATM   23  C   UNL     1     -46.685  61.893 -47.436  1.00  0.00     0.140 A 
HETATM   24  N   UNL     1     -45.903  60.922 -47.906  1.00  0.00    -0.180 NA
ENDBRANCH  16  20
ENDBRANCH   1  13
BRANCH   9  25
HETATM   25  O   UNL     1     -39.870  51.129 -53.395  1.00  0.00    -0.361 OA
HETATM   26  H   UNL     1     -38.907  51.013 -53.442  1.00  0.00     0.217 HD
ENDBRANCH   9  25
TORSDOF 3
ENDMDL
MODEL 6
REMARK VINA RESULT:      -7.8      5.174      6.621
REMARK  3 active torsions:
REMARK  status: ('A' for Active; 'I' for Inactive)
REMARK    1  A    between atoms: N_3  and  C_4 
REMARK    2  A    between atoms: C_8  and  C_9 
REMARK       I    between atoms: C_9  and  N_10 
REMARK    3  A    between atoms: C_17  and  O_18 
ROOT
HETATM    1  C   UNL     1     -43.452  56.993 -56.033  1.00  0.00     0.254 C 
HETATM    2  N   UNL     1     -43.844  56.770 -57.349  1.00  0.00    -0.343 N 
HETATM    3  C   UNL     1     -44.715  57.767 -57.957  1.00  0.00     0.165 C 
HETATM    4  C   UNL     1     -45.474  57.236 -59.155  1.00  0.00    -0.031 A 
HETATM    5  C   UNL     1     -45.111  56.025 -59.778  1.00  0.00    -0.049 A 
HETATM    6  C   UNL     1     -43.993  55.178 -59.219  1.00  0.00     0.059 C 
HETATM    7  C   UNL     1     -43.068  55.975 -58.301  1.00  0.00     0.131 C 
HETATM    8  C   UNL     1     -46.545  57.982 -59.671  1.00  0.00     0.046 A 
HETATM    9  C   UNL     1     -47.253  57.512 -60.772  1.00  0.00     0.066 A 
HETATM   10  C   UNL     1     -46.910  56.312 -61.380  1.00  0.00     0.037 A 
HETATM   11  C   UNL     1     -45.841  55.566 -60.884  1.00  0.00     0.010 A 
HETATM   12  O   UNL     1     -43.693  58.036 -55.428  1.00  0.00    -0.267 OA
ENDROOT
BRANCH   1  13
HETATM   13  C   UNL     1     -42.772  55.906 -55.288  1.00  0.00     0.035 A 
HETATM   14  C   UNL     1     -41.430  55.638 -55.561  1.00  0.00     0.061 A 
HETATM   15  C   UNL     1     -40.746  54.676 -54.818  1.00  0.00     0.146 A 
HETATM   16  C   UNL     1     -41.383  53.975 -53.789  1.00  0.00     0.096 A 
HETATM   17  F   UNL     1     -39.463  54.458 -55.137  1.00  0.00    -0.204 F 
HETATM   18  C   UNL     1     -42.733  54.259 -53.513  1.00  0.00     0.036 A 
HETATM   19  C   UNL     1     -43.419  55.230 -54.249  1.00  0.00     0.019 A 
BRANCH  16  20
HETATM   20  N   UNL     1     -40.708  53.003 -53.002  1.00  0.00    -0.242 N 
HETATM   21  C   UNL     1     -40.019  51.877 -53.403  1.00  0.00     0.120 A 
HETATM   22  C   UNL     1     -39.532  51.266 -52.273  1.00  0.00     0.040 A 
HETATM   23  C   UNL     1     -39.971  52.078 -51.221  1.00  0.00     0.140 A 
HETATM   24  N   UNL     1     -40.677  53.125 -51.644  1.00  0.00    -0.180 NA
ENDBRANCH  16  20
ENDBRANCH   1  13
BRANCH   9  25
HETATM   25  O   UNL     1     -48.308  58.205 -61.287  1.00  0.00    -0.361 OA
HETATM   26  H   UNL     1     -49.114  57.943 -60.812  1.00  0.00     0.217 HD
ENDBRANCH   9  25
TORSDOF 3
ENDMDL
MODEL 7
REMARK VINA RESULT:      -7.6      3.440      8.532
REMARK  3 active torsions:
REMARK  status: ('A' for Active; 'I' for Inactive)
REMARK    1  A    between atoms: N_3  and  C_4 
REMARK    2  A    between atoms: C_8  and  C_9 
REMARK       I    between atoms: C_9  and  N_10 
REMARK    3  A    between atoms: C_17  and  O_18 
ROOT
HETATM    1  C   UNL     1     -42.071  56.238 -51.785  1.00  0.00     0.254 C 
HETATM    2  N   UNL     1     -41.861  54.968 -52.314  1.00  0.00    -0.343 N 
HETATM    3  C   UNL     1     -41.446  53.925 -51.385  1.00  0.00     0.165 C 
HETATM    4  C   UNL     1     -40.780  52.753 -52.073  1.00  0.00    -0.031 A 
HETATM    5  C   UNL     1     -40.865  52.573 -53.468  1.00  0.00    -0.049 A 
HETATM    6  C   UNL     1     -41.565  53.594 -54.333  1.00  0.00     0.059 C 
HETATM    7  C   UNL     1     -42.514  54.479 -53.528  1.00  0.00     0.131 C 
HETATM    8  C   UNL     1     -40.086  51.810 -51.298  1.00  0.00     0.046 A 
HETATM    9  C   UNL     1     -39.469  50.725 -51.912  1.00  0.00     0.066 A 
HETATM   10  C   UNL     1     -39.536  50.551 -53.288  1.00  0.00     0.037 A 
HETATM   11  C   UNL     1     -40.231  51.475 -54.068  1.00  0.00     0.010 A 
HETATM   12  O   UNL     1     -42.052  56.474 -50.579  1.00  0.00    -0.267 OA
ENDROOT
BRANCH   1  13
HETATM   13  C   UNL     1     -42.256  57.383 -52.708  1.00  0.00     0.035 A 
HETATM   14  C   UNL     1     -43.550  57.837 -52.968  1.00  0.00     0.061 A 
HETATM   15  C   UNL     1     -43.746  58.962 -53.770  1.00  0.00     0.146 A 
HETATM   16  C   UNL     1     -42.660  59.655 -54.313  1.00  0.00     0.096 A 
HETATM   17  F   UNL     1     -45.012  59.340 -53.990  1.00  0.00    -0.204 F 
HETATM   18  C   UNL     1     -41.359  59.198 -54.036  1.00  0.00     0.036 A 
HETATM   19  C   UNL     1     -41.158  58.076 -53.227  1.00  0.00     0.019 A 
BRANCH  16  20
HETATM   20  N   UNL     1     -42.826  60.816 -55.117  1.00  0.00    -0.242 N 
HETATM   21  C   UNL     1     -42.610  60.982 -56.469  1.00  0.00     0.120 A 
HETATM   22  C   UNL     1     -42.927  62.283 -56.781  1.00  0.00     0.040 A 
HETATM   23  C   UNL     1     -43.324  62.847 -55.564  1.00  0.00     0.140 A 
HETATM   24  N   UNL     1     -43.270  61.977 -54.556  1.00  0.00    -0.180 NA
ENDBRANCH  16  20
ENDBRANCH   1  13
BRANCH   9  25
HETATM   25  O   UNL     1     -38.774  49.800 -51.190  1.00  0.00    -0.361 OA
HETATM   26  H   UNL     1     -38.518  50.197 -50.342  1.00  0.00     0.217 HD
ENDBRANCH   9  25
TORSDOF 3
ENDMDL
MODEL 8
REMARK VINA RESULT:      -7.6     16.495     18.174
REMARK  3 active torsions:
REMARK  status: ('A' for Active; 'I' for Inactive)
REMARK    1  A    between atoms: N_3  and  C_4 
REMARK    2  A    between atoms: C_8  and  C_9 
REMARK       I    between atoms: C_9  and  N_10 
REMARK    3  A    between atoms: C_17  and  O_18 
ROOT
HETATM    1  C   UNL     1     -36.023  41.813 -53.647  1.00  0.00     0.254 C 
HETATM    2  N   UNL     1     -36.089  41.239 -54.913  1.00  0.00    -0.343 N 
HETATM    3  C   UNL     1     -35.964  42.138 -56.053  1.00  0.00     0.165 C 
HETATM    4  C   UNL     1     -36.522  41.550 -57.331  1.00  0.00    -0.031 A 
HETATM    5  C   UNL     1     -36.817  40.176 -57.442  1.00  0.00    -0.049 A 
HETATM    6  C   UNL     1     -36.653  39.257 -56.255  1.00  0.00     0.059 C 
HETATM    7  C   UNL     1     -35.732  39.848 -55.190  1.00  0.00     0.131 C 
HETATM    8  C   UNL     1     -36.724  42.389 -58.438  1.00  0.00     0.046 A 
HETATM    9  C   UNL     1     -37.235  41.867 -59.622  1.00  0.00     0.066 A 
HETATM   10  C   UNL     1     -37.542  40.517 -59.732  1.00  0.00     0.037 A 
HETATM   11  C   UNL     1     -37.336  39.671 -58.643  1.00  0.00     0.010 A 
HETATM   12  O   UNL     1     -35.734  42.993 -53.459  1.00  0.00    -0.267 OA
ENDROOT
BRANCH   1  13
HETATM   13  C   UNL     1     -36.382  40.995 -52.464  1.00  0.00     0.035 A 
HETATM   14  C   UNL     1     -37.652  40.421 -52.401  1.00  0.00     0.061 A 
HETATM   15  C   UNL     1     -37.986  39.582 -51.337  1.00  0.00     0.146 A 
HETATM   16  C   UNL     1     -37.060  39.294 -50.330  1.00  0.00     0.096 A 
HETATM   17  F   UNL     1     -39.224  39.071 -51.330  1.00  0.00    -0.204 F 
HETATM   18  C   UNL     1     -35.778  39.868 -50.407  1.00  0.00     0.036 A 
HETATM   19  C   UNL     1     -35.436  40.703 -51.475  1.00  0.00     0.019 A 
BRANCH  16  20
HETATM   20  N   UNL     1     -37.363  38.428 -49.245  1.00  0.00    -0.242 N 
HETATM   21  C   UNL     1     -37.673  37.084 -49.258  1.00  0.00     0.120 A 
HETATM   22  C   UNL     1     -37.872  36.694 -47.955  1.00  0.00     0.040 A 
HETATM   23  C   UNL     1     -37.670  37.858 -47.206  1.00  0.00     0.140 A 
HETATM   24  N   UNL     1     -37.363  38.908 -47.967  1.00  0.00    -0.180 NA
ENDBRANCH  16  20
ENDBRANCH   1  13
BRANCH   9  25
HETATM   25  O   UNL     1     -37.458  42.658 -60.710  1.00  0.00    -0.361 OA
HETATM   26  H   UNL     1     -37.777  42.101 -61.439  1.00  0.00     0.217 HD
ENDBRANCH   9  25
TORSDOF 3
ENDMDL
MODEL 9
REMARK VINA RESULT:      -7.5     17.867     19.176
REMARK  3 active torsions:
REMARK  status: ('A' for Active; 'I' for Inactive)
REMARK    1  A    between atoms: N_3  and  C_4 
REMARK    2  A    between atoms: C_8  and  C_9 
REMARK       I    between atoms: C_9  and  N_10 
REMARK    3  A    between atoms: C_17  and  O_18 
ROOT
HETATM    1  C   UNL     1     -33.172  40.569 -55.458  1.00  0.00     0.254 C 
HETATM    2  N   UNL     1     -33.462  40.589 -54.097  1.00  0.00    -0.343 N 
HETATM    3  C   UNL     1     -32.333  40.707 -53.183  1.00  0.00     0.165 C 
HETATM    4  C   UNL     1     -32.657  40.238 -51.781  1.00  0.00    -0.031 A 
HETATM    5  C   UNL     1     -33.988  40.030 -51.364  1.00  0.00    -0.049 A 
HETATM    6  C   UNL     1     -35.133  40.200 -52.334  1.00  0.00     0.059 C 
HETATM    7  C   UNL     1     -34.741  41.039 -53.549  1.00  0.00     0.131 C 
HETATM    8  C   UNL     1     -31.610  40.032 -50.870  1.00  0.00     0.046 A 
HETATM    9  C   UNL     1     -31.888  39.603 -49.576  1.00  0.00     0.066 A 
HETATM   10  C   UNL     1     -33.195  39.382 -49.164  1.00  0.00     0.037 A 
HETATM   11  C   UNL     1     -34.246  39.593 -50.057  1.00  0.00     0.010 A 
HETATM   12  O   UNL     1     -32.048  40.778 -55.909  1.00  0.00    -0.267 OA
ENDROOT
BRANCH   1  13
HETATM   13  C   UNL     1     -34.244  40.210 -56.418  1.00  0.00     0.035 A 
HETATM   14  C   UNL     1     -34.933  41.232 -57.072  1.00  0.00     0.061 A 
HETATM   15  C   UNL     1     -35.890  40.920 -58.039  1.00  0.00     0.146 A 
HETATM   16  C   UNL     1     -36.165  39.591 -58.375  1.00  0.00     0.096 A 
HETATM   17  F   UNL     1     -36.524  41.946 -58.622  1.00  0.00    -0.204 F 
HETATM   18  C   UNL     1     -35.458  38.567 -57.719  1.00  0.00     0.036 A 
HETATM   19  C   UNL     1     -34.492  38.876 -56.757  1.00  0.00     0.019 A 
BRANCH  16  20
HETATM   20  N   UNL     1     -37.120  39.242 -59.369  1.00  0.00    -0.242 N 
HETATM   21  C   UNL     1     -38.357  38.650 -59.224  1.00  0.00     0.120 A 
HETATM   22  C   UNL     1     -38.907  38.532 -60.478  1.00  0.00     0.040 A 
HETATM   23  C   UNL     1     -37.942  39.071 -61.336  1.00  0.00     0.140 A 
HETATM   24  N   UNL     1     -36.863  39.502 -60.683  1.00  0.00    -0.180 NA
ENDBRANCH  16  20
ENDBRANCH   1  13
BRANCH   9  25
HETATM   25  O   UNL     1     -30.892  39.379 -48.672  1.00  0.00    -0.361 OA
HETATM   26  H   UNL     1     -31.048  38.521 -48.245  1.00  0.00     0.217 HD
ENDBRANCH   9  25
TORSDOF 3
ENDMDL
MODEL 10
REMARK VINA RESULT:      -7.4      4.369      7.336
REMARK  3 active torsions:
REMARK  status: ('A' for Active; 'I' for Inactive)
REMARK    1  A    between atoms: N_3  and  C_4 
REMARK    2  A    between atoms: C_8  and  C_9 
REMARK       I    between atoms: C_9  and  N_10 
REMARK    3  A    between atoms: C_17  and  O_18 
ROOT
HETATM    1  C   UNL     1     -43.747  57.158 -53.388  1.00  0.00     0.254 C 
HETATM    2  N   UNL     1     -43.035  56.086 -52.858  1.00  0.00    -0.343 N 
HETATM    3  C   UNL     1     -43.165  55.850 -51.426  1.00  0.00     0.165 C 
HETATM    4  C   UNL     1     -42.028  55.028 -50.858  1.00  0.00    -0.031 A 
HETATM    5  C   UNL     1     -41.146  54.315 -51.695  1.00  0.00    -0.049 A 
HETATM    6  C   UNL     1     -41.265  54.412 -53.197  1.00  0.00     0.059 C 
HETATM    7  C   UNL     1     -42.639  54.913 -53.637  1.00  0.00     0.131 C 
HETATM    8  C   UNL     1     -41.869  54.953 -49.466  1.00  0.00     0.046 A 
HETATM    9  C   UNL     1     -40.831  54.200 -48.925  1.00  0.00     0.066 A 
HETATM   10  C   UNL     1     -39.949  53.508 -49.745  1.00  0.00     0.037 A 
HETATM   11  C   UNL     1     -40.104  53.566 -51.129  1.00  0.00     0.010 A 
HETATM   12  O   UNL     1     -44.564  57.808 -52.739  1.00  0.00    -0.267 OA
ENDROOT
BRANCH   1  13
HETATM   13  C   UNL     1     -43.469  57.592 -54.778  1.00  0.00     0.035 A 
HETATM   14  C   UNL     1     -44.426  57.351 -55.765  1.00  0.00     0.061 A 
HETATM   15  C   UNL     1     -44.223  57.822 -57.063  1.00  0.00     0.146 A 
HETATM   16  C   UNL     1     -43.073  58.545 -57.393  1.00  0.00     0.096 A 
HETATM   17  F   UNL     1     -45.174  57.548 -57.965  1.00  0.00    -0.204 F 
HETATM   18  C   UNL     1     -42.119  58.794 -56.390  1.00  0.00     0.036 A 
HETATM   19  C   UNL     1     -42.323  58.332 -55.086  1.00  0.00     0.019 A 
BRANCH  16  20
HETATM   20  N   UNL     1     -42.847  59.054 -58.701  1.00  0.00    -0.242 N 
HETATM   21  C   UNL     1     -42.023  58.572 -59.697  1.00  0.00     0.120 A 
HETATM   22  C   UNL     1     -42.160  59.402 -60.784  1.00  0.00     0.040 A 
HETATM   23  C   UNL     1     -43.083  60.369 -60.371  1.00  0.00     0.140 A 
HETATM   24  N   UNL     1     -43.505  60.172 -59.123  1.00  0.00    -0.180 NA
ENDBRANCH  16  20
ENDBRANCH   1  13
BRANCH   9  25
HETATM   25  O   UNL     1     -40.639  54.119 -47.577  1.00  0.00    -0.361 OA
HETATM   26  H   UNL     1     -40.080  54.863 -47.299  1.00  0.00     0.217 HD
ENDBRANCH   9  25
TORSDOF 3
ENDMDL
