MODEL 1
REMARK VINA RESULT:      -9.2      0.000      0.000
REMARK  4 active torsions:
REMARK  status: ('A' for Active; 'I' for Inactive)
REMARK    1  A    between atoms: C_2  and  C_3 
REMARK    2  A    between atoms: C_6  and  N_7 
REMARK       I    between atoms: N_7  and  C_8 
REMARK       I    between atoms: C_8  and  N_9 
REMARK    3  A    between atoms: N_9  and  C_10 
REMARK       I    between atoms: N_19  and  C_20 
REMARK       I    between atoms: C_20  and  N_21 
REMARK    4  A    between atoms: N_21  and  C_22 
ROOT
HETATM    1  C   UNL     1     -42.952  57.245 -51.875  1.00  0.00     0.105 A 
HETATM    2  C   UNL     1     -42.283  58.419 -52.553  1.00  0.00     0.274 A 
HETATM    3  O   UNL     1     -41.062  58.381 -52.730  1.00  0.00    -0.265 OA
HETATM    4  N   UNL     1     -43.106  59.478 -52.962  1.00  0.00    -0.315 N 
HETATM    5  C   UNL     1     -44.487  59.450 -52.788  1.00  0.00     0.020 A 
HETATM    6  C   UNL     1     -45.337  60.576 -53.349  1.00  0.00     0.054 C 
HETATM    7  C   UNL     1     -44.684  61.185 -54.584  1.00  0.00     0.020 C 
HETATM    8  C   UNL     1     -43.333  61.730 -54.147  1.00  0.00     0.023 C 
HETATM    9  C   UNL     1     -43.516  62.825 -53.087  1.00  0.00     0.134 C 
HETATM   10  N   UNL     1     -44.405  62.481 -51.977  1.00  0.00    -0.333 N 
HETATM   11  C   UNL     1     -44.313  63.303 -50.854  1.00  0.00     0.318 C 
HETATM   12  N   UNL     1     -45.299  63.132 -49.914  1.00  0.00    -0.338 N 
HETATM   13  O   UNL     1     -43.408  64.122 -50.706  1.00  0.00    -0.247 OA
HETATM   14  C   UNL     1     -45.581  61.662 -52.290  1.00  0.00     0.138 C 
HETATM   15  C   UNL     1     -42.441  60.580 -53.659  1.00  0.00     0.138 C 
HETATM   16  C   UNL     1     -45.059  58.411 -52.158  1.00  0.00     0.028 A 
HETATM   17  C   UNL     1     -44.276  57.305 -51.675  1.00  0.00     0.037 A 
HETATM   18  H   UNL     1     -46.174  62.763 -50.237  1.00  0.00     0.164 HD
ENDROOT
BRANCH   1  19
HETATM   19  N   UNL     1     -42.119  56.185 -51.560  1.00  0.00    -0.304 N 
HETATM   20  C   UNL     1     -41.299  56.047 -50.483  1.00  0.00     0.325 C 
HETATM   21  N   UNL     1     -40.696  54.840 -50.285  1.00  0.00    -0.309 N 
HETATM   22  O   UNL     1     -41.128  56.902 -49.613  1.00  0.00    -0.247 OA
HETATM   23  H   UNL     1     -40.349  54.787 -49.334  1.00  0.00     0.170 HD
HETATM   24  H   UNL     1     -42.289  55.366 -52.133  1.00  0.00     0.171 HD
BRANCH  21  25
HETATM   25  C   UNL     1     -40.489  53.704 -51.081  1.00  0.00     0.036 A 
HETATM   26  C   UNL     1     -40.510  53.694 -52.477  1.00  0.00     0.030 A 
HETATM   27  C   UNL     1     -40.263  52.505 -53.182  1.00  0.00     0.017 A 
HETATM   28  C   UNL     1     -39.978  51.318 -52.496  1.00  0.00     0.009 A 
HETATM   29  C   UNL     1     -39.936  51.334 -51.099  1.00  0.00     0.017 A 
HETATM   30  C   UNL     1     -40.175  52.520 -50.402  1.00  0.00     0.030 A 
BRANCH  28  31
HETATM   31  C   UNL     1     -39.701  50.028 -53.195  1.00  0.00     0.155 C 
HETATM   32  C   UNL     1     -39.699  49.999 -54.701  1.00  0.00     0.096 C 
HETATM   33  O   UNL     1     -39.480  49.013 -52.538  1.00  0.00    -0.293 OA
ENDBRANCH  28  31
ENDBRANCH  21  25
ENDBRANCH   1  19
BRANCH  12  34
HETATM   34  C   UNL     1     -45.373  63.972 -48.721  1.00  0.00     0.086 C 
HETATM   35  C   UNL     1     -46.825  64.373 -48.420  1.00  0.00     0.025 C 
HETATM   36  C   UNL     1     -47.663  63.202 -47.905  1.00  0.00     0.002 C 
HETATM   37  C   UNL     1     -47.010  62.524 -46.704  1.00  0.00     0.000 C 
HETATM   38  C   UNL     1     -45.579  62.094 -47.005  1.00  0.00     0.002 C 
HETATM   39  C   UNL     1     -44.735  63.259 -47.523  1.00  0.00     0.025 C 
ENDBRANCH  12  34
TORSDOF 4
ENDMDL
MODEL 2
REMARK VINA RESULT:      -9.1      4.924      7.279
REMARK  4 active torsions:
REMARK  status: ('A' for Active; 'I' for Inactive)
REMARK    1  A    between atoms: C_2  and  C_3 
REMARK    2  A    between atoms: C_6  and  N_7 
REMARK       I    between atoms: N_7  and  C_8 
REMARK       I    between atoms: C_8  and  N_9 
REMARK    3  A    between atoms: N_9  and  C_10 
REMARK       I    between atoms: N_19  and  C_20 
REMARK       I    between atoms: C_20  and  N_21 
REMARK    4  A    between atoms: N_21  and  C_22 
ROOT
HETATM    1  C   UNL     1     -42.633  56.981 -54.876  1.00  0.00     0.105 A 
HETATM    2  C   UNL     1     -42.872  56.376 -56.241  1.00  0.00     0.274 A 
HETATM    3  O   UNL     1     -42.427  55.249 -56.474  1.00  0.00    -0.265 OA
HETATM    4  N   UNL     1     -43.613  57.135 -57.158  1.00  0.00    -0.315 N 
HETATM    5  C   UNL     1     -44.142  58.381 -56.829  1.00  0.00     0.020 A 
HETATM    6  C   UNL     1     -45.027  59.107 -57.826  1.00  0.00     0.054 C 
HETATM    7  C   UNL     1     -45.769  58.116 -58.715  1.00  0.00     0.020 C 
HETATM    8  C   UNL     1     -44.715  57.310 -59.457  1.00  0.00     0.023 C 
HETATM    9  C   UNL     1     -43.861  58.232 -60.340  1.00  0.00     0.134 C 
HETATM   10  N   UNL     1     -43.338  59.426 -59.678  1.00  0.00    -0.333 N 
HETATM   11  C   UNL     1     -42.300  60.079 -60.343  1.00  0.00     0.318 C 
HETATM   12  N   UNL     1     -41.970  61.317 -59.852  1.00  0.00    -0.338 N 
HETATM   13  O   UNL     1     -41.711  59.580 -61.299  1.00  0.00    -0.247 OA
HETATM   14  C   UNL     1     -44.204  60.077 -58.689  1.00  0.00     0.138 C 
HETATM   15  C   UNL     1     -43.873  56.508 -58.454  1.00  0.00     0.138 C 
HETATM   16  C   UNL     1     -43.893  58.913 -55.621  1.00  0.00     0.028 A 
HETATM   17  C   UNL     1     -43.108  58.211 -54.641  1.00  0.00     0.037 A 
HETATM   18  H   UNL     1     -42.688  61.817 -59.362  1.00  0.00     0.164 HD
ENDROOT
BRANCH   1  19
HETATM   19  N   UNL     1     -41.969  56.169 -53.973  1.00  0.00    -0.304 N 
HETATM   20  C   UNL     1     -41.496  56.490 -52.737  1.00  0.00     0.325 C 
HETATM   21  N   UNL     1     -41.025  55.483 -51.948  1.00  0.00    -0.309 N 
HETATM   22  O   UNL     1     -41.545  57.613 -52.234  1.00  0.00    -0.247 OA
HETATM   23  H   UNL     1     -40.965  55.804 -50.989  1.00  0.00     0.170 HD
HETATM   24  H   UNL     1     -42.001  55.188 -54.225  1.00  0.00     0.171 HD
BRANCH  21  25
HETATM   25  C   UNL     1     -40.646  54.152 -52.177  1.00  0.00     0.036 A 
HETATM   26  C   UNL     1     -40.216  53.265 -51.189  1.00  0.00     0.030 A 
HETATM   27  C   UNL     1     -39.885  51.940 -51.518  1.00  0.00     0.017 A 
HETATM   28  C   UNL     1     -39.996  51.488 -52.838  1.00  0.00     0.009 A 
HETATM   29  C   UNL     1     -40.447  52.370 -53.823  1.00  0.00     0.017 A 
HETATM   30  C   UNL     1     -40.783  53.684 -53.490  1.00  0.00     0.030 A 
BRANCH  28  31
HETATM   31  C   UNL     1     -39.665  50.090 -53.243  1.00  0.00     0.155 C 
HETATM   32  C   UNL     1     -39.516  49.770 -54.707  1.00  0.00     0.096 C 
HETATM   33  O   UNL     1     -39.519  49.223 -52.384  1.00  0.00    -0.293 OA
ENDBRANCH  28  31
ENDBRANCH  21  25
ENDBRANCH   1  19
BRANCH  12  34
HETATM   34  C   UNL     1     -40.953  62.147 -60.492  1.00  0.00     0.086 C 
HETATM   35  C   UNL     1     -41.581  63.396 -61.130  1.00  0.00     0.025 C 
HETATM   36  C   UNL     1     -42.058  64.410 -60.089  1.00  0.00     0.002 C 
HETATM   37  C   UNL     1     -40.947  64.782 -59.112  1.00  0.00     0.000 C 
HETATM   38  C   UNL     1     -40.338  63.551 -58.451  1.00  0.00     0.002 C 
HETATM   39  C   UNL     1     -39.862  62.531 -59.484  1.00  0.00     0.025 C 
ENDBRANCH  12  34
TORSDOF 4
ENDMDL
MODEL 3
REMARK VINA RESULT:      -9.0      3.284      6.382
REMARK  4 active torsions:
REMARK  status: ('A' for Active; 'I' for Inactive)
REMARK    1  A    between atoms: C_2  and  C_3 
REMARK    2  A    between atoms: C_6  and  N_7 
REMARK       I    between atoms: N_7  and  C_8 
REMARK       I    between atoms: C_8  and  N_9 
REMARK    3  A    between atoms: N_9  and  C_10 
REMARK       I    between atoms: N_19  and  C_20 
REMARK       I    between atoms: C_20  and  N_21 
REMARK    4  A    between atoms: N_21  and  C_22 
ROOT
HETATM    1  C   UNL     1     -41.810  57.688 -53.042  1.00  0.00     0.105 A 
HETATM    2  C   UNL     1     -43.291  57.983 -52.959  1.00  0.00     0.274 A 
HETATM    3  O   UNL     1     -44.034  57.136 -52.455  1.00  0.00    -0.265 OA
HETATM    4  N   UNL     1     -43.725  59.225 -53.442  1.00  0.00    -0.315 N 
HETATM    5  C   UNL     1     -42.839  60.171 -53.951  1.00  0.00     0.020 A 
HETATM    6  C   UNL     1     -43.354  61.539 -54.359  1.00  0.00     0.054 C 
HETATM    7  C   UNL     1     -44.574  61.928 -53.532  1.00  0.00     0.020 C 
HETATM    8  C   UNL     1     -45.641  60.878 -53.795  1.00  0.00     0.023 C 
HETATM    9  C   UNL     1     -46.027  60.870 -55.281  1.00  0.00     0.134 C 
HETATM   10  N   UNL     1     -44.907  60.826 -56.220  1.00  0.00    -0.333 N 
HETATM   11  C   UNL     1     -45.231  60.473 -57.530  1.00  0.00     0.318 C 
HETATM   12  N   UNL     1     -44.235  60.658 -58.456  1.00  0.00    -0.338 N 
HETATM   13  O   UNL     1     -46.329  60.018 -57.839  1.00  0.00    -0.247 OA
HETATM   14  C   UNL     1     -43.699  61.574 -55.856  1.00  0.00     0.138 C 
HETATM   15  C   UNL     1     -45.155  59.507 -53.305  1.00  0.00     0.138 C 
HETATM   16  C   UNL     1     -41.531  59.878 -54.044  1.00  0.00     0.028 A 
HETATM   17  C   UNL     1     -41.016  58.609 -53.604  1.00  0.00     0.037 A 
HETATM   18  H   UNL     1     -43.543  61.354 -58.245  1.00  0.00     0.164 HD
ENDROOT
BRANCH   1  19
HETATM   19  N   UNL     1     -41.409  56.487 -52.481  1.00  0.00    -0.304 N 
HETATM   20  C   UNL     1     -41.122  56.218 -51.177  1.00  0.00     0.325 C 
HETATM   21  N   UNL     1     -40.913  54.920 -50.820  1.00  0.00    -0.309 N 
HETATM   22  O   UNL     1     -41.128  57.050 -50.269  1.00  0.00    -0.247 OA
HETATM   23  H   UNL     1     -40.983  54.830 -49.813  1.00  0.00     0.170 HD
HETATM   24  H   UNL     1     -41.511  55.703 -53.113  1.00  0.00     0.171 HD
BRANCH  21  25
HETATM   25  C   UNL     1     -40.657  53.736 -51.528  1.00  0.00     0.036 A 
HETATM   26  C   UNL     1     -40.833  53.576 -52.903  1.00  0.00     0.030 A 
HETATM   27  C   UNL     1     -40.521  52.354 -53.522  1.00  0.00     0.017 A 
HETATM   28  C   UNL     1     -40.016  51.286 -52.770  1.00  0.00     0.009 A 
HETATM   29  C   UNL     1     -39.821  51.454 -51.397  1.00  0.00     0.017 A 
HETATM   30  C   UNL     1     -40.125  52.673 -50.787  1.00  0.00     0.030 A 
BRANCH  28  31
HETATM   31  C   UNL     1     -39.662  49.968 -53.376  1.00  0.00     0.155 C 
HETATM   32  C   UNL     1     -39.650  49.834 -54.876  1.00  0.00     0.096 C 
HETATM   33  O   UNL     1     -39.386  49.016 -52.649  1.00  0.00    -0.293 OA
ENDBRANCH  28  31
ENDBRANCH  21  25
ENDBRANCH   1  19
BRANCH  12  34
HETATM   34  C   UNL     1     -44.453  60.401 -59.877  1.00  0.00     0.086 C 
HETATM   35  C   UNL     1     -43.671  61.399 -60.744  1.00  0.00     0.025 C 
HETATM   36  C   UNL     1     -42.163  61.147 -60.714  1.00  0.00     0.002 C 
HETATM   37  C   UNL     1     -41.822  59.704 -61.078  1.00  0.00     0.000 C 
HETATM   38  C   UNL     1     -42.571  58.707 -60.201  1.00  0.00     0.002 C 
HETATM   39  C   UNL     1     -44.079  58.954 -60.223  1.00  0.00     0.025 C 
ENDBRANCH  12  34
TORSDOF 4
ENDMDL
MODEL 4
REMARK VINA RESULT:      -8.8      2.650      5.438
REMARK  4 active torsions:
REMARK  status: ('A' for Active; 'I' for Inactive)
REMARK    1  A    between atoms: C_2  and  C_3 
REMARK    2  A    between atoms: C_6  and  N_7 
REMARK       I    between atoms: N_7  and  C_8 
REMARK       I    between atoms: C_8  and  N_9 
REMARK    3  A    between atoms: N_9  and  C_10 
REMARK       I    between atoms: N_19  and  C_20 
REMARK       I    between atoms: C_20  and  N_21 
REMARK    4  A    between atoms: N_21  and  C_22 
ROOT
HETATM    1  C   UNL     1     -41.631  56.914 -51.117  1.00  0.00     0.105 A 
HETATM    2  C   UNL     1     -43.125  57.153 -51.109  1.00  0.00     0.274 A 
HETATM    3  O   UNL     1     -43.873  56.206 -50.850  1.00  0.00    -0.265 OA
HETATM    4  N   UNL     1     -43.567  58.456 -51.374  1.00  0.00    -0.315 N 
HETATM    5  C   UNL     1     -42.680  59.505 -51.606  1.00  0.00     0.020 A 
HETATM    6  C   UNL     1     -43.216  60.915 -51.780  1.00  0.00     0.054 C 
HETATM    7  C   UNL     1     -44.514  61.103 -51.005  1.00  0.00     0.020 C 
HETATM    8  C   UNL     1     -45.512  60.102 -51.564  1.00  0.00     0.023 C 
HETATM    9  C   UNL     1     -45.774  60.382 -53.051  1.00  0.00     0.134 C 
HETATM   10  N   UNL     1     -44.579  60.552 -53.876  1.00  0.00    -0.333 N 
HETATM   11  C   UNL     1     -44.779  60.461 -55.254  1.00  0.00     0.318 C 
HETATM   12  N   UNL     1     -43.718  60.850 -56.033  1.00  0.00    -0.338 N 
HETATM   13  O   UNL     1     -45.829  60.051 -55.743  1.00  0.00    -0.247 OA
HETATM   14  C   UNL     1     -43.436  61.241 -53.266  1.00  0.00     0.138 C 
HETATM   15  C   UNL     1     -45.013  58.672 -51.312  1.00  0.00     0.138 C 
HETATM   16  C   UNL     1     -41.359  59.266 -51.638  1.00  0.00     0.028 A 
HETATM   17  C   UNL     1     -40.831  57.947 -51.413  1.00  0.00     0.037 A 
HETATM   18  H   UNL     1     -43.075  61.505 -55.628  1.00  0.00     0.164 HD
ENDROOT
BRANCH   1  19
HETATM   19  N   UNL     1     -41.231  55.636 -50.769  1.00  0.00    -0.304 N 
HETATM   20  C   UNL     1     -41.007  55.129 -49.526  1.00  0.00     0.325 C 
HETATM   21  N   UNL     1     -40.784  53.789 -49.409  1.00  0.00    -0.309 N 
HETATM   22  O   UNL     1     -41.083  55.773 -48.479  1.00  0.00    -0.247 OA
HETATM   23  H   UNL     1     -40.905  53.509 -48.442  1.00  0.00     0.170 HD
HETATM   24  H   UNL     1     -41.278  54.983 -51.543  1.00  0.00     0.171 HD
BRANCH  21  25
HETATM   25  C   UNL     1     -40.460  52.766 -50.310  1.00  0.00     0.036 A 
HETATM   26  C   UNL     1     -40.281  51.425 -49.964  1.00  0.00     0.030 A 
HETATM   27  C   UNL     1     -39.984  50.470 -50.950  1.00  0.00     0.017 A 
HETATM   28  C   UNL     1     -39.878  50.846 -52.294  1.00  0.00     0.009 A 
HETATM   29  C   UNL     1     -40.078  52.184 -52.643  1.00  0.00     0.017 A 
HETATM   30  C   UNL     1     -40.381  53.129 -51.661  1.00  0.00     0.030 A 
BRANCH  28  31
HETATM   31  C   UNL     1     -39.572  49.872 -53.384  1.00  0.00     0.155 C 
HETATM   32  C   UNL     1     -39.886  50.248 -54.808  1.00  0.00     0.096 C 
HETATM   33  O   UNL     1     -39.071  48.784 -53.107  1.00  0.00    -0.293 OA
ENDBRANCH  28  31
ENDBRANCH  21  25
ENDBRANCH   1  19
BRANCH  12  34
HETATM   34  C   UNL     1     -43.808  60.877 -57.490  1.00  0.00     0.086 C 
HETATM   35  C   UNL     1     -43.462  62.270 -58.038  1.00  0.00     0.025 C 
HETATM   36  C   UNL     1     -41.973  62.597 -57.912  1.00  0.00     0.002 C 
HETATM   37  C   UNL     1     -41.101  61.516 -58.544  1.00  0.00     0.000 C 
HETATM   38  C   UNL     1     -41.416  60.134 -57.984  1.00  0.00     0.002 C 
HETATM   39  C   UNL     1     -42.903  59.801 -58.103  1.00  0.00     0.025 C 
ENDBRANCH  12  34
TORSDOF 4
ENDMDL
MODEL 5
REMARK VINA RESULT:      -8.7      1.876      2.500
REMARK  4 active torsions:
REMARK  status: ('A' for Active; 'I' for Inactive)
REMARK    1  A    between atoms: C_2  and  C_3 
REMARK    2  A    between atoms: C_6  and  N_7 
REMARK       I    between atoms: N_7  and  C_8 
REMARK       I    between atoms: C_8  and  N_9 
REMARK    3  A    between atoms: N_9  and  C_10 
REMARK       I    between atoms: N_19  and  C_20 
REMARK       I    between atoms: C_20  and  N_21 
REMARK    4  A    between atoms: N_21  and  C_22 
ROOT
HETATM    1  C   UNL     1     -43.334  58.107 -53.789  1.00  0.00     0.105 A 
HETATM    2  C   UNL     1     -42.649  59.448 -53.934  1.00  0.00     0.274 A 
HETATM    3  O   UNL     1     -41.464  59.471 -54.278  1.00  0.00    -0.265 OA
HETATM    4  N   UNL     1     -43.421  60.592 -53.689  1.00  0.00    -0.315 N 
HETATM    5  C   UNL     1     -44.771  60.516 -53.356  1.00  0.00     0.020 A 
HETATM    6  C   UNL     1     -45.580  61.791 -53.209  1.00  0.00     0.054 C 
HETATM    7  C   UNL     1     -45.023  62.894 -54.100  1.00  0.00     0.020 C 
HETATM    8  C   UNL     1     -43.590  63.141 -53.655  1.00  0.00     0.023 C 
HETATM    9  C   UNL     1     -43.558  63.615 -52.195  1.00  0.00     0.134 C 
HETATM   10  N   UNL     1     -44.341  62.810 -51.258  1.00  0.00    -0.333 N 
HETATM   11  C   UNL     1     -44.053  63.008 -49.907  1.00  0.00     0.318 C 
HETATM   12  N   UNL     1     -44.937  62.438 -49.025  1.00  0.00    -0.338 N 
HETATM   13  O   UNL     1     -43.072  63.642 -49.526  1.00  0.00    -0.247 OA
HETATM   14  C   UNL     1     -45.610  62.260 -51.745  1.00  0.00     0.138 C 
HETATM   15  C   UNL     1     -42.749  61.878 -53.884  1.00  0.00     0.138 C 
HETATM   16  C   UNL     1     -45.353  59.315 -53.203  1.00  0.00     0.028 A 
HETATM   17  C   UNL     1     -44.616  58.095 -53.401  1.00  0.00     0.037 A 
HETATM   18  H   UNL     1     -45.871  62.282 -49.356  1.00  0.00     0.164 HD
ENDROOT
BRANCH   1  19
HETATM   19  N   UNL     1     -42.564  57.006 -54.119  1.00  0.00    -0.304 N 
HETATM   20  C   UNL     1     -42.061  56.660 -55.336  1.00  0.00     0.325 C 
HETATM   21  N   UNL     1     -41.183  55.620 -55.396  1.00  0.00    -0.309 N 
HETATM   22  O   UNL     1     -42.267  57.275 -56.383  1.00  0.00    -0.247 OA
HETATM   23  H   UNL     1     -40.689  55.644 -56.281  1.00  0.00     0.170 HD
HETATM   24  H   UNL     1     -42.216  56.510 -53.307  1.00  0.00     0.171 HD
BRANCH  21  25
HETATM   25  C   UNL     1     -40.821  54.588 -54.518  1.00  0.00     0.036 A 
HETATM   26  C   UNL     1     -40.818  54.690 -53.126  1.00  0.00     0.030 A 
HETATM   27  C   UNL     1     -40.464  53.586 -52.333  1.00  0.00     0.017 A 
HETATM   28  C   UNL     1     -40.125  52.364 -52.927  1.00  0.00     0.009 A 
HETATM   29  C   UNL     1     -40.149  52.257 -54.320  1.00  0.00     0.017 A 
HETATM   30  C   UNL     1     -40.509  53.355 -55.104  1.00  0.00     0.030 A 
BRANCH  28  31
HETATM   31  C   UNL     1     -39.748  51.157 -52.134  1.00  0.00     0.155 C 
HETATM   32  C   UNL     1     -39.562  49.844 -52.847  1.00  0.00     0.096 C 
HETATM   33  O   UNL     1     -39.596  51.249 -50.918  1.00  0.00    -0.293 OA
ENDBRANCH  28  31
ENDBRANCH  21  25
ENDBRANCH   1  19
BRANCH  12  34
HETATM   34  C   UNL     1     -44.804  62.622 -47.582  1.00  0.00     0.086 C 
HETATM   35  C   UNL     1     -45.993  63.413 -47.016  1.00  0.00     0.025 C 
HETATM   36  C   UNL     1     -47.288  62.599 -47.007  1.00  0.00     0.002 C 
HETATM   37  C   UNL     1     -47.112  61.265 -46.288  1.00  0.00     0.000 C 
HETATM   38  C   UNL     1     -45.953  60.459 -46.864  1.00  0.00     0.002 C 
HETATM   39  C   UNL     1     -44.656  61.267 -46.880  1.00  0.00     0.025 C 
ENDBRANCH  12  34
TORSDOF 4
ENDMDL
MODEL 6
REMARK VINA RESULT:      -8.5      3.945     10.069
REMARK  4 active torsions:
REMARK  status: ('A' for Active; 'I' for Inactive)
REMARK    1  A    between atoms: C_2  and  C_3 
REMARK    2  A    between atoms: C_6  and  N_7 
REMARK       I    between atoms: N_7  and  C_8 
REMARK       I    between atoms: C_8  and  N_9 
REMARK    3  A    between atoms: N_9  and  C_10 
REMARK       I    between atoms: N_19  and  C_20 
REMARK       I    between atoms: C_20  and  N_21 
REMARK    4  A    between atoms: N_21  and  C_22 
ROOT
HETATM    1  C   UNL     1     -44.812  60.319 -50.163  1.00  0.00     0.105 A 
HETATM    2  C   UNL     1     -43.357  60.285 -50.575  1.00  0.00     0.274 A 
HETATM    3  O   UNL     1     -42.607  61.174 -50.162  1.00  0.00    -0.265 OA
HETATM    4  N   UNL     1     -42.945  59.221 -51.388  1.00  0.00    -0.315 N 
HETATM    5  C   UNL     1     -43.820  58.211 -51.784  1.00  0.00     0.020 A 
HETATM    6  C   UNL     1     -43.291  57.029 -52.574  1.00  0.00     0.054 C 
HETATM    7  C   UNL     1     -41.832  56.754 -52.230  1.00  0.00     0.020 C 
HETATM    8  C   UNL     1     -41.048  58.005 -52.593  1.00  0.00     0.023 C 
HETATM    9  C   UNL     1     -41.161  58.289 -54.097  1.00  0.00     0.134 C 
HETATM   10  N   UNL     1     -42.519  58.261 -54.640  1.00  0.00    -0.333 N 
HETATM   11  C   UNL     1     -42.678  58.845 -55.897  1.00  0.00     0.318 C 
HETATM   12  N   UNL     1     -43.885  58.614 -56.507  1.00  0.00    -0.338 N 
HETATM   13  O   UNL     1     -41.803  59.529 -56.423  1.00  0.00    -0.247 OA
HETATM   14  C   UNL     1     -43.441  57.264 -54.086  1.00  0.00     0.138 C 
HETATM   15  C   UNL     1     -41.523  59.184 -51.732  1.00  0.00     0.138 C 
HETATM   16  C   UNL     1     -45.114  58.275 -51.432  1.00  0.00     0.028 A 
HETATM   17  C   UNL     1     -45.620  59.357 -50.630  1.00  0.00     0.037 A 
HETATM   18  H   UNL     1     -44.378  57.784 -56.238  1.00  0.00     0.164 HD
ENDROOT
BRANCH   1  19
HETATM   19  N   UNL     1     -45.162  61.337 -49.294  1.00  0.00    -0.304 N 
HETATM   20  C   UNL     1     -46.093  62.315 -49.469  1.00  0.00     0.325 C 
HETATM   21  N   UNL     1     -46.393  63.114 -48.407  1.00  0.00    -0.309 N 
HETATM   22  O   UNL     1     -46.758  62.478 -50.493  1.00  0.00    -0.247 OA
HETATM   23  H   UNL     1     -47.267  63.598 -48.583  1.00  0.00     0.170 HD
HETATM   24  H   UNL     1     -44.779  61.212 -48.365  1.00  0.00     0.171 HD
BRANCH  21  25
HETATM   25  C   UNL     1     -45.785  63.373 -47.170  1.00  0.00     0.036 A 
HETATM   26  C   UNL     1     -45.226  64.596 -46.797  1.00  0.00     0.030 A 
HETATM   27  C   UNL     1     -44.663  64.761 -45.521  1.00  0.00     0.017 A 
HETATM   28  C   UNL     1     -44.669  63.706 -44.601  1.00  0.00     0.009 A 
HETATM   29  C   UNL     1     -45.248  62.488 -44.967  1.00  0.00     0.017 A 
HETATM   30  C   UNL     1     -45.813  62.331 -46.234  1.00  0.00     0.030 A 
BRANCH  28  31
HETATM   31  C   UNL     1     -44.092  63.827 -43.229  1.00  0.00     0.155 C 
HETATM   32  C   UNL     1     -43.139  62.767 -42.742  1.00  0.00     0.096 C 
HETATM   33  O   UNL     1     -44.399  64.782 -42.519  1.00  0.00    -0.293 OA
ENDBRANCH  28  31
ENDBRANCH  21  25
ENDBRANCH   1  19
BRANCH  12  34
HETATM   34  C   UNL     1     -44.166  59.102 -57.855  1.00  0.00     0.086 C 
HETATM   35  C   UNL     1     -43.784  58.054 -58.911  1.00  0.00     0.025 C 
HETATM   36  C   UNL     1     -44.732  56.854 -58.919  1.00  0.00     0.002 C 
HETATM   37  C   UNL     1     -46.189  57.285 -59.062  1.00  0.00     0.000 C 
HETATM   38  C   UNL     1     -46.587  58.303 -57.999  1.00  0.00     0.002 C 
HETATM   39  C   UNL     1     -45.641  59.503 -57.983  1.00  0.00     0.025 C 
ENDBRANCH  12  34
TORSDOF 4
ENDMDL
MODEL 7
REMARK VINA RESULT:      -8.3      4.885      6.335
REMARK  4 active torsions:
REMARK  status: ('A' for Active; 'I' for Inactive)
REMARK    1  A    between atoms: C_2  and  C_3 
REMARK    2  A    between atoms: C_6  and  N_7 
REMARK       I    between atoms: N_7  and  C_8 
REMARK       I    between atoms: C_8  and  N_9 
REMARK    3  A    between atoms: N_9  and  C_10 
REMARK       I    between atoms: N_19  and  C_20 
REMARK       I    between atoms: C_20  and  N_21 
REMARK    4  A    between atoms: N_21  and  C_22 
ROOT
HETATM    1  C   UNL     1     -43.493  56.819 -55.211  1.00  0.00     0.105 A 
HETATM    2  C   UNL     1     -43.346  56.614 -56.702  1.00  0.00     0.274 A 
HETATM    3  O   UNL     1     -42.388  55.957 -57.116  1.00  0.00    -0.265 OA
HETATM    4  N   UNL     1     -44.335  57.171 -57.526  1.00  0.00    -0.315 N 
HETATM    5  C   UNL     1     -45.428  57.859 -57.006  1.00  0.00     0.020 A 
HETATM    6  C   UNL     1     -46.521  58.344 -57.941  1.00  0.00     0.054 C 
HETATM    7  C   UNL     1     -46.634  57.440 -59.162  1.00  0.00     0.020 C 
HETATM    8  C   UNL     1     -45.291  57.488 -59.873  1.00  0.00     0.023 C 
HETATM    9  C   UNL     1     -44.984  58.919 -60.338  1.00  0.00     0.134 C 
HETATM   10  N   UNL     1     -45.156  59.958 -59.324  1.00  0.00    -0.333 N 
HETATM   11  C   UNL     1     -44.562  61.187 -59.613  1.00  0.00     0.318 C 
HETATM   12  N   UNL     1     -44.916  62.224 -58.785  1.00  0.00    -0.338 N 
HETATM   13  O   UNL     1     -43.768  61.336 -60.538  1.00  0.00    -0.247 OA
HETATM   14  C   UNL     1     -46.266  59.795 -58.380  1.00  0.00     0.138 C 
HETATM   15  C   UNL     1     -44.197  56.917 -58.960  1.00  0.00     0.138 C 
HETATM   16  C   UNL     1     -45.524  58.055 -55.681  1.00  0.00     0.028 A 
HETATM   17  C   UNL     1     -44.529  57.547 -54.775  1.00  0.00     0.037 A 
HETATM   18  H   UNL     1     -45.805  62.154 -58.326  1.00  0.00     0.164 HD
ENDROOT
BRANCH   1  19
HETATM   19  N   UNL     1     -42.544  56.186 -54.426  1.00  0.00    -0.304 N 
HETATM   20  C   UNL     1     -41.700  56.737 -53.511  1.00  0.00     0.325 C 
HETATM   21  N   UNL     1     -40.966  55.897 -52.728  1.00  0.00    -0.309 N 
HETATM   22  O   UNL     1     -41.616  57.940 -53.266  1.00  0.00    -0.247 OA
HETATM   23  H   UNL     1     -40.604  56.408 -51.930  1.00  0.00     0.170 HD
HETATM   24  H   UNL     1     -42.628  55.176 -54.443  1.00  0.00     0.171 HD
BRANCH  21  25
HETATM   25  C   UNL     1     -40.643  54.534 -52.784  1.00  0.00     0.036 A 
HETATM   26  C   UNL     1     -40.465  53.710 -51.670  1.00  0.00     0.030 A 
HETATM   27  C   UNL     1     -40.169  52.347 -51.835  1.00  0.00     0.017 A 
HETATM   28  C   UNL     1     -40.064  51.792 -53.116  1.00  0.00     0.009 A 
HETATM   29  C   UNL     1     -40.263  52.613 -54.230  1.00  0.00     0.017 A 
HETATM   30  C   UNL     1     -40.564  53.966 -54.062  1.00  0.00     0.030 A 
BRANCH  28  31
HETATM   31  C   UNL     1     -39.759  50.350 -53.349  1.00  0.00     0.155 C 
HETATM   32  C   UNL     1     -39.749  49.824 -54.760  1.00  0.00     0.096 C 
HETATM   33  O   UNL     1     -39.522  49.614 -52.394  1.00  0.00    -0.293 OA
ENDBRANCH  28  31
ENDBRANCH  21  25
ENDBRANCH   1  19
BRANCH  12  34
HETATM   34  C   UNL     1     -44.430  63.582 -59.011  1.00  0.00     0.086 C 
HETATM   35  C   UNL     1     -45.369  64.616 -58.371  1.00  0.00     0.025 C 
HETATM   36  C   UNL     1     -45.290  64.615 -56.843  1.00  0.00     0.002 C 
HETATM   37  C   UNL     1     -43.856  64.782 -56.350  1.00  0.00     0.000 C 
HETATM   38  C   UNL     1     -42.923  63.741 -56.956  1.00  0.00     0.002 C 
HETATM   39  C   UNL     1     -42.998  63.734 -58.483  1.00  0.00     0.025 C 
ENDBRANCH  12  34
TORSDOF 4
ENDMDL
MODEL 8
REMARK VINA RESULT:      -8.3      3.052      4.441
REMARK  4 active torsions:
REMARK  status: ('A' for Active; 'I' for Inactive)
REMARK    1  A    between atoms: C_2  and  C_3 
REMARK    2  A    between atoms: C_6  and  N_7 
REMARK       I    between atoms: N_7  and  C_8 
REMARK       I    between atoms: C_8  and  N_9 
REMARK    3  A    between atoms: N_9  and  C_10 
REMARK       I    between atoms: N_19  and  C_20 
REMARK       I    between atoms: C_20  and  N_21 
REMARK    4  A    between atoms: N_21  and  C_22 
ROOT
HETATM    1  C   UNL     1     -43.791  59.001 -53.373  1.00  0.00     0.105 A 
HETATM    2  C   UNL     1     -43.923  59.434 -51.930  1.00  0.00     0.274 A 
HETATM    3  O   UNL     1     -43.965  58.565 -51.054  1.00  0.00    -0.265 OA
HETATM    4  N   UNL     1     -43.964  60.812 -51.675  1.00  0.00    -0.315 N 
HETATM    5  C   UNL     1     -43.858  61.755 -52.694  1.00  0.00     0.020 A 
HETATM    6  C   UNL     1     -43.800  63.232 -52.345  1.00  0.00     0.054 C 
HETATM    7  C   UNL     1     -43.174  63.442 -50.973  1.00  0.00     0.020 C 
HETATM    8  C   UNL     1     -44.051  62.712 -49.969  1.00  0.00     0.023 C 
HETATM    9  C   UNL     1     -45.468  63.304 -49.967  1.00  0.00     0.134 C 
HETATM   10  N   UNL     1     -46.081  63.466 -51.285  1.00  0.00    -0.333 N 
HETATM   11  C   UNL     1     -47.461  63.668 -51.287  1.00  0.00     0.318 C 
HETATM   12  N   UNL     1     -48.001  64.052 -52.489  1.00  0.00    -0.338 N 
HETATM   13  O   UNL     1     -48.155  63.506 -50.285  1.00  0.00    -0.247 OA
HETATM   14  C   UNL     1     -45.201  63.863 -52.389  1.00  0.00     0.138 C 
HETATM   15  C   UNL     1     -44.042  61.206 -50.267  1.00  0.00     0.138 C 
HETATM   16  C   UNL     1     -43.771  61.350 -53.971  1.00  0.00     0.028 A 
HETATM   17  C   UNL     1     -43.761  59.953 -54.315  1.00  0.00     0.037 A 
HETATM   18  H   UNL     1     -47.390  64.524 -53.130  1.00  0.00     0.164 HD
ENDROOT
BRANCH   1  19
HETATM   19  N   UNL     1     -43.670  57.637 -53.577  1.00  0.00    -0.304 N 
HETATM   20  C   UNL     1     -44.522  56.803 -54.235  1.00  0.00     0.325 C 
HETATM   21  N   UNL     1     -44.117  55.522 -54.463  1.00  0.00    -0.309 N 
HETATM   22  O   UNL     1     -45.598  57.141 -54.727  1.00  0.00    -0.247 OA
HETATM   23  H   UNL     1     -44.701  55.104 -55.177  1.00  0.00     0.170 HD
HETATM   24  H   UNL     1     -42.752  57.282 -53.338  1.00  0.00     0.171 HD
BRANCH  21  25
HETATM   25  C   UNL     1     -43.093  54.710 -53.954  1.00  0.00     0.036 A 
HETATM   26  C   UNL     1     -42.834  54.510 -52.596  1.00  0.00     0.030 A 
HETATM   27  C   UNL     1     -41.798  53.653 -52.189  1.00  0.00     0.017 A 
HETATM   28  C   UNL     1     -41.021  52.978 -53.137  1.00  0.00     0.009 A 
HETATM   29  C   UNL     1     -41.293  53.164 -54.495  1.00  0.00     0.017 A 
HETATM   30  C   UNL     1     -42.329  54.010 -54.896  1.00  0.00     0.030 A 
BRANCH  28  31
HETATM   31  C   UNL     1     -39.912  52.052 -52.761  1.00  0.00     0.155 C 
HETATM   32  C   UNL     1     -39.460  51.013 -53.754  1.00  0.00     0.096 C 
HETATM   33  O   UNL     1     -39.386  52.147 -51.654  1.00  0.00    -0.293 OA
ENDBRANCH  28  31
ENDBRANCH  21  25
ENDBRANCH   1  19
BRANCH  12  34
HETATM   34  C   UNL     1     -49.420  64.369 -52.624  1.00  0.00     0.086 C 
HETATM   35  C   UNL     1     -49.757  64.782 -54.065  1.00  0.00     0.025 C 
HETATM   36  C   UNL     1     -49.710  63.605 -55.040  1.00  0.00     0.002 C 
HETATM   37  C   UNL     1     -50.587  62.448 -54.572  1.00  0.00     0.000 C 
HETATM   38  C   UNL     1     -50.238  62.010 -53.154  1.00  0.00     0.002 C 
HETATM   39  C   UNL     1     -50.280  63.182 -52.174  1.00  0.00     0.025 C 
ENDBRANCH  12  34
TORSDOF 4
ENDMDL
MODEL 9
REMARK VINA RESULT:      -8.2      5.756      7.613
REMARK  4 active torsions:
REMARK  status: ('A' for Active; 'I' for Inactive)
REMARK    1  A    between atoms: C_2  and  C_3 
REMARK    2  A    between atoms: C_6  and  N_7 
REMARK       I    between atoms: N_7  and  C_8 
REMARK       I    between atoms: C_8  and  N_9 
REMARK    3  A    between atoms: N_9  and  C_10 
REMARK       I    between atoms: N_19  and  C_20 
REMARK       I    between atoms: C_20  and  N_21 
REMARK    4  A    between atoms: N_21  and  C_22 
ROOT
HETATM    1  C   UNL     1     -43.324  57.142 -57.095  1.00  0.00     0.105 A 
HETATM    2  C   UNL     1     -42.628  58.485 -57.099  1.00  0.00     0.274 A 
HETATM    3  O   UNL     1     -42.073  58.865 -56.064  1.00  0.00    -0.265 OA
HETATM    4  N   UNL     1     -42.636  59.208 -58.299  1.00  0.00    -0.315 N 
HETATM    5  C   UNL     1     -43.230  58.712 -59.457  1.00  0.00     0.020 A 
HETATM    6  C   UNL     1     -43.112  59.492 -60.754  1.00  0.00     0.054 C 
HETATM    7  C   UNL     1     -41.825  60.306 -60.784  1.00  0.00     0.020 C 
HETATM    8  C   UNL     1     -41.883  61.269 -59.608  1.00  0.00     0.023 C 
HETATM    9  C   UNL     1     -43.079  62.221 -59.755  1.00  0.00     0.134 C 
HETATM   10  N   UNL     1     -44.357  61.579 -60.060  1.00  0.00    -0.333 N 
HETATM   11  C   UNL     1     -45.490  62.365 -59.857  1.00  0.00     0.318 C 
HETATM   12  N   UNL     1     -46.661  61.856 -60.360  1.00  0.00    -0.338 N 
HETATM   13  O   UNL     1     -45.452  63.439 -59.261  1.00  0.00    -0.247 OA
HETATM   14  C   UNL     1     -44.325  60.415 -60.953  1.00  0.00     0.138 C 
HETATM   15  C   UNL     1     -41.914  60.481 -58.291  1.00  0.00     0.138 C 
HETATM   16  C   UNL     1     -43.868  57.531 -59.426  1.00  0.00     0.028 A 
HETATM   17  C   UNL     1     -43.935  56.748 -58.220  1.00  0.00     0.037 A 
HETATM   18  H   UNL     1     -46.585  61.218 -61.130  1.00  0.00     0.164 HD
ENDROOT
BRANCH   1  19
HETATM   19  N   UNL     1     -43.223  56.422 -55.917  1.00  0.00    -0.304 N 
HETATM   20  C   UNL     1     -44.035  56.471 -54.825  1.00  0.00     0.325 C 
HETATM   21  N   UNL     1     -43.846  55.545 -53.843  1.00  0.00    -0.309 N 
HETATM   22  O   UNL     1     -44.995  57.231 -54.695  1.00  0.00    -0.247 OA
HETATM   23  H   UNL     1     -44.662  55.517 -53.242  1.00  0.00     0.170 HD
HETATM   24  H   UNL     1     -42.554  55.664 -55.974  1.00  0.00     0.171 HD
BRANCH  21  25
HETATM   25  C   UNL     1     -42.815  54.651 -53.522  1.00  0.00     0.036 A 
HETATM   26  C   UNL     1     -42.212  54.546 -52.267  1.00  0.00     0.030 A 
HETATM   27  C   UNL     1     -41.203  53.596 -52.041  1.00  0.00     0.017 A 
HETATM   28  C   UNL     1     -40.798  52.732 -53.065  1.00  0.00     0.009 A 
HETATM   29  C   UNL     1     -41.416  52.823 -54.315  1.00  0.00     0.017 A 
HETATM   30  C   UNL     1     -42.425  53.764 -54.534  1.00  0.00     0.030 A 
BRANCH  28  31
HETATM   31  C   UNL     1     -39.736  51.699 -52.879  1.00  0.00     0.155 C 
HETATM   32  C   UNL     1     -39.576  50.621 -53.918  1.00  0.00     0.096 C 
HETATM   33  O   UNL     1     -39.011  51.741 -51.888  1.00  0.00    -0.293 OA
ENDBRANCH  28  31
ENDBRANCH  21  25
ENDBRANCH   1  19
BRANCH  12  34
HETATM   34  C   UNL     1     -47.915  62.602 -60.286  1.00  0.00     0.086 C 
HETATM   35  C   UNL     1     -48.718  62.460 -61.587  1.00  0.00     0.025 C 
HETATM   36  C   UNL     1     -49.315  61.063 -61.760  1.00  0.00     0.002 C 
HETATM   37  C   UNL     1     -50.140  60.646 -60.546  1.00  0.00     0.000 C 
HETATM   38  C   UNL     1     -49.341  60.754 -59.253  1.00  0.00     0.002 C 
HETATM   39  C   UNL     1     -48.739  62.147 -59.075  1.00  0.00     0.025 C 
ENDBRANCH  12  34
TORSDOF 4
ENDMDL
MODEL 10
REMARK VINA RESULT:      -8.1      7.140      9.059
REMARK  4 active torsions:
REMARK  status: ('A' for Active; 'I' for Inactive)
REMARK    1  A    between atoms: C_2  and  C_3 
REMARK    2  A    between atoms: C_6  and  N_7 
REMARK       I    between atoms: N_7  and  C_8 
REMARK       I    between atoms: C_8  and  N_9 
REMARK    3  A    between atoms: N_9  and  C_10 
REMARK       I    between atoms: N_19  and  C_20 
REMARK       I    between atoms: C_20  and  N_21 
REMARK    4  A    between atoms: N_21  and  C_22 
ROOT
HETATM    1  C   UNL     1     -45.575  57.230 -59.301  1.00  0.00     0.105 A 
HETATM    2  C   UNL     1     -45.302  58.660 -59.709  1.00  0.00     0.274 A 
HETATM    3  O   UNL     1     -44.291  59.216 -59.270  1.00  0.00    -0.265 OA
HETATM    4  N   UNL     1     -46.212  59.261 -60.589  1.00  0.00    -0.315 N 
HETATM    5  C   UNL     1     -47.310  58.573 -61.100  1.00  0.00     0.020 A 
HETATM    6  C   UNL     1     -48.199  59.242 -62.132  1.00  0.00     0.054 C 
HETATM    7  C   UNL     1     -47.408  60.245 -62.963  1.00  0.00     0.020 C 
HETATM    8  C   UNL     1     -46.866  61.289 -62.000  1.00  0.00     0.023 C 
HETATM    9  C   UNL     1     -48.021  62.020 -61.301  1.00  0.00     0.134 C 
HETATM   10  N   UNL     1     -49.052  61.158 -60.723  1.00  0.00    -0.333 N 
HETATM   11  C   UNL     1     -49.904  61.769 -59.805  1.00  0.00     0.318 C 
HETATM   12  N   UNL     1     -51.007  61.037 -59.443  1.00  0.00    -0.338 N 
HETATM   13  O   UNL     1     -49.684  62.885 -59.339  1.00  0.00    -0.247 OA
HETATM   14  C   UNL     1     -49.395  59.938 -61.462  1.00  0.00     0.138 C 
HETATM   15  C   UNL     1     -45.899  60.628 -61.007  1.00  0.00     0.138 C 
HETATM   16  C   UNL     1     -47.552  57.314 -60.702  1.00  0.00     0.028 A 
HETATM   17  C   UNL     1     -46.684  56.643 -59.771  1.00  0.00     0.037 A 
HETATM   18  H   UNL     1     -51.331  60.351 -60.099  1.00  0.00     0.164 HD
ENDROOT
BRANCH   1  19
HETATM   19  N   UNL     1     -44.611  56.645 -58.497  1.00  0.00    -0.304 N 
HETATM   20  C   UNL     1     -43.453  56.038 -58.874  1.00  0.00     0.325 C 
HETATM   21  N   UNL     1     -42.568  55.683 -57.901  1.00  0.00    -0.309 N 
HETATM   22  O   UNL     1     -43.095  55.866 -60.040  1.00  0.00    -0.247 OA
HETATM   23  H   UNL     1     -41.661  55.502 -58.316  1.00  0.00     0.170 HD
HETATM   24  H   UNL     1     -44.736  56.856 -57.514  1.00  0.00     0.171 HD
BRANCH  21  25
HETATM   25  C   UNL     1     -42.644  55.545 -56.507  1.00  0.00     0.036 A 
HETATM   26  C   UNL     1     -43.100  54.406 -55.842  1.00  0.00     0.030 A 
HETATM   27  C   UNL     1     -43.112  54.359 -54.438  1.00  0.00     0.017 A 
HETATM   28  C   UNL     1     -42.652  55.448 -53.688  1.00  0.00     0.009 A 
HETATM   29  C   UNL     1     -42.176  56.580 -54.354  1.00  0.00     0.017 A 
HETATM   30  C   UNL     1     -42.159  56.619 -55.750  1.00  0.00     0.030 A 
BRANCH  28  31
HETATM   31  C   UNL     1     -42.635  55.450 -52.195  1.00  0.00     0.155 C 
HETATM   32  C   UNL     1     -43.214  54.272 -51.456  1.00  0.00     0.096 C 
HETATM   33  O   UNL     1     -42.152  56.405 -51.591  1.00  0.00    -0.293 OA
ENDBRANCH  28  31
ENDBRANCH  21  25
ENDBRANCH   1  19
BRANCH  12  34
HETATM   34  C   UNL     1     -52.024  61.578 -58.545  1.00  0.00     0.086 C 
HETATM   35  C   UNL     1     -53.392  60.929 -58.808  1.00  0.00     0.025 C 
HETATM   36  C   UNL     1     -53.451  59.474 -58.342  1.00  0.00     0.002 C 
HETATM   37  C   UNL     1     -53.038  59.331 -56.880  1.00  0.00     0.000 C 
HETATM   38  C   UNL     1     -51.667  59.944 -56.616  1.00  0.00     0.002 C 
HETATM   39  C   UNL     1     -51.599  61.398 -57.083  1.00  0.00     0.025 C 
ENDBRANCH  12  34
TORSDOF 4
ENDMDL
