MODEL 1
REMARK VINA RESULT:      -8.2      0.000      0.000
REMARK  2 active torsions:
REMARK  status: ('A' for Active; 'I' for Inactive)
REMARK    1  A    between atoms: N_9  and  N_11 
REMARK       I    between atoms: N_11  and  C_12 
REMARK    2  A    between atoms: C_12  and  C_13 
ROOT
HETATM    1  C   UNL     1     -40.957  58.589 -53.556  1.00  0.00     0.033 C 
HETATM    2  C   UNL     1     -41.881  58.027 -54.638  1.00  0.00     0.086 C 
HETATM    3  N   UNL     1     -42.265  59.086 -55.591  1.00  0.00    -0.379 N 
HETATM    4  C   UNL     1     -43.002  60.264 -55.132  1.00  0.00     0.150 C 
HETATM    5  C   UNL     1     -42.654  58.683 -56.886  1.00  0.00     0.052 A 
HETATM    6  C   UNL     1     -43.682  57.746 -57.163  1.00  0.00     0.040 A 
HETATM    7  N   UNL     1     -44.446  57.117 -56.119  1.00  0.00    -0.246 NA
HETATM    8  C   UNL     1     -43.727  56.497 -55.050  1.00  0.00     0.077 C 
HETATM    9  N   UNL     1     -43.627  55.181 -55.120  1.00  0.00    -0.291 N 
HETATM   10  H   UNL     1     -44.109  54.765 -55.926  1.00  0.00     0.188 HD
HETATM   11  C   UNL     1     -43.087  57.321 -54.008  1.00  0.00     0.096 C 
HETATM   12  C   UNL     1     -42.021  59.306 -57.974  1.00  0.00     0.031 A 
HETATM   13  C   UNL     1     -42.385  59.016 -59.290  1.00  0.00     0.002 A 
HETATM   14  C   UNL     1     -43.405  58.105 -59.547  1.00  0.00     0.002 A 
HETATM   15  C   UNL     1     -44.057  57.478 -58.486  1.00  0.00     0.026 A 
HETATM   16  H   UNL     1     -44.906  57.941 -55.721  1.00  0.00     0.135 HD
ENDROOT
BRANCH   9  17
HETATM   17  N   UNL     1     -42.967  54.374 -54.305  1.00  0.00    -0.265 N 
HETATM   18  C   UNL     1     -41.676  54.028 -54.669  1.00  0.00     0.270 C 
HETATM   19  O   UNL     1     -41.155  54.433 -55.704  1.00  0.00    -0.266 OA
HETATM   20  H   UNL     1     -43.349  54.127 -53.401  1.00  0.00     0.190 HD
BRANCH  18  21
HETATM   21  C   UNL     1     -40.930  53.171 -53.711  1.00  0.00     0.033 A 
HETATM   22  C   UNL     1     -40.851  53.473 -52.343  1.00  0.00     0.017 A 
HETATM   23  C   UNL     1     -40.119  52.646 -51.489  1.00  0.00     0.001 A 
HETATM   24  C   UNL     1     -39.473  51.516 -51.991  1.00  0.00     0.000 A 
HETATM   25  C   UNL     1     -39.568  51.201 -53.346  1.00  0.00     0.001 A 
HETATM   26  C   UNL     1     -40.299  52.023 -54.205  1.00  0.00     0.017 A 
ENDBRANCH  18  21
ENDBRANCH   9  17
TORSDOF 2
ENDMDL
MODEL 2
REMARK VINA RESULT:      -8.2      2.274      7.156
REMARK  2 active torsions:
REMARK  status: ('A' for Active; 'I' for Inactive)
REMARK    1  A    between atoms: N_9  and  N_11 
REMARK       I    between atoms: N_11  and  C_12 
REMARK    2  A    between atoms: C_12  and  C_13 
ROOT
HETATM    1  C   UNL     1     -44.228  57.206 -52.963  1.00  0.00     0.033 C 
HETATM    2  C   UNL     1     -43.211  56.304 -53.663  1.00  0.00     0.086 C 
HETATM    3  N   UNL     1     -42.173  55.861 -52.713  1.00  0.00    -0.379 N 
HETATM    4  C   UNL     1     -41.314  56.839 -52.045  1.00  0.00     0.150 C 
HETATM    5  C   UNL     1     -41.487  54.665 -53.014  1.00  0.00     0.052 A 
HETATM    6  C   UNL     1     -40.803  54.412 -54.230  1.00  0.00     0.040 A 
HETATM    7  N   UNL     1     -40.737  55.385 -55.288  1.00  0.00    -0.246 NA
HETATM    8  C   UNL     1     -41.964  55.974 -55.726  1.00  0.00     0.077 C 
HETATM    9  N   UNL     1     -42.460  55.485 -56.849  1.00  0.00    -0.291 N 
HETATM   10  H   UNL     1     -41.880  54.757 -57.283  1.00  0.00     0.188 HD
HETATM   11  C   UNL     1     -42.633  56.998 -54.902  1.00  0.00     0.096 C 
HETATM   12  C   UNL     1     -41.424  53.686 -52.009  1.00  0.00     0.031 A 
HETATM   13  C   UNL     1     -40.715  52.498 -52.193  1.00  0.00     0.002 A 
HETATM   14  C   UNL     1     -40.037  52.270 -53.387  1.00  0.00     0.002 A 
HETATM   15  C   UNL     1     -40.073  53.228 -54.399  1.00  0.00     0.026 A 
HETATM   16  H   UNL     1     -40.213  56.125 -54.810  1.00  0.00     0.135 HD
ENDROOT
BRANCH   9  17
HETATM   17  N   UNL     1     -43.603  55.802 -57.436  1.00  0.00    -0.265 N 
HETATM   18  C   UNL     1     -43.561  56.078 -58.793  1.00  0.00     0.270 C 
HETATM   19  O   UNL     1     -42.516  56.046 -59.437  1.00  0.00    -0.266 OA
HETATM   20  H   UNL     1     -44.480  55.722 -56.936  1.00  0.00     0.190 HD
BRANCH  18  21
HETATM   21  C   UNL     1     -44.864  56.371 -59.446  1.00  0.00     0.033 A 
HETATM   22  C   UNL     1     -45.348  55.611 -60.521  1.00  0.00     0.017 A 
HETATM   23  C   UNL     1     -46.569  55.942 -61.112  1.00  0.00     0.001 A 
HETATM   24  C   UNL     1     -47.311  57.020 -60.630  1.00  0.00     0.000 A 
HETATM   25  C   UNL     1     -46.843  57.763 -59.547  1.00  0.00     0.001 A 
HETATM   26  C   UNL     1     -45.624  57.437 -58.952  1.00  0.00     0.017 A 
ENDBRANCH  18  21
ENDBRANCH   9  17
TORSDOF 2
ENDMDL
MODEL 3
REMARK VINA RESULT:      -7.8      2.374      3.003
REMARK  2 active torsions:
REMARK  status: ('A' for Active; 'I' for Inactive)
REMARK    1  A    between atoms: N_9  and  N_11 
REMARK       I    between atoms: N_11  and  C_12 
REMARK    2  A    between atoms: C_12  and  C_13 
ROOT
HETATM    1  C   UNL     1     -40.878  57.792 -50.604  1.00  0.00     0.033 C 
HETATM    2  C   UNL     1     -41.972  57.752 -51.673  1.00  0.00     0.086 C 
HETATM    3  N   UNL     1     -42.482  59.111 -51.942  1.00  0.00    -0.379 N 
HETATM    4  C   UNL     1     -43.113  59.889 -50.876  1.00  0.00     0.150 C 
HETATM    5  C   UNL     1     -43.079  59.341 -53.199  1.00  0.00     0.052 A 
HETATM    6  C   UNL     1     -44.156  58.588 -53.730  1.00  0.00     0.040 A 
HETATM    7  N   UNL     1     -44.757  57.498 -53.007  1.00  0.00    -0.246 NA
HETATM    8  C   UNL     1     -43.890  56.491 -52.480  1.00  0.00     0.077 C 
HETATM    9  N   UNL     1     -43.828  55.371 -53.178  1.00  0.00    -0.291 N 
HETATM   10  H   UNL     1     -44.440  55.355 -54.002  1.00  0.00     0.188 HD
HETATM   11  C   UNL     1     -43.077  56.765 -51.280  1.00  0.00     0.096 C 
HETATM   12  C   UNL     1     -42.615  60.438 -53.942  1.00  0.00     0.031 A 
HETATM   13  C   UNL     1     -43.189  60.782 -55.168  1.00  0.00     0.002 A 
HETATM   14  C   UNL     1     -44.254  60.040 -55.670  1.00  0.00     0.002 A 
HETATM   15  C   UNL     1     -44.742  58.952 -54.949  1.00  0.00     0.026 A 
HETATM   16  H   UNL     1     -45.132  58.010 -52.203  1.00  0.00     0.135 HD
ENDROOT
BRANCH   9  17
HETATM   17  N   UNL     1     -43.063  54.315 -52.951  1.00  0.00    -0.265 N 
HETATM   18  C   UNL     1     -41.924  54.183 -53.728  1.00  0.00     0.270 C 
HETATM   19  O   UNL     1     -41.627  54.993 -54.601  1.00  0.00    -0.266 OA
HETATM   20  H   UNL     1     -43.243  53.707 -52.162  1.00  0.00     0.190 HD
BRANCH  18  21
HETATM   21  C   UNL     1     -41.046  53.025 -53.416  1.00  0.00     0.033 A 
HETATM   22  C   UNL     1     -40.761  52.027 -54.360  1.00  0.00     0.017 A 
HETATM   23  C   UNL     1     -39.947  50.949 -54.009  1.00  0.00     0.001 A 
HETATM   24  C   UNL     1     -39.409  50.866 -52.724  1.00  0.00     0.000 A 
HETATM   25  C   UNL     1     -39.672  51.868 -51.790  1.00  0.00     0.001 A 
HETATM   26  C   UNL     1     -40.485  52.948 -52.135  1.00  0.00     0.017 A 
ENDBRANCH  18  21
ENDBRANCH   9  17
TORSDOF 2
ENDMDL
MODEL 4
REMARK VINA RESULT:      -7.7      1.406      1.746
REMARK  2 active torsions:
REMARK  status: ('A' for Active; 'I' for Inactive)
REMARK    1  A    between atoms: N_9  and  N_11 
REMARK       I    between atoms: N_11  and  C_12 
REMARK    2  A    between atoms: C_12  and  C_13 
ROOT
HETATM    1  C   UNL     1     -41.766  59.827 -54.498  1.00  0.00     0.033 C 
HETATM    2  C   UNL     1     -42.344  58.713 -55.373  1.00  0.00     0.086 C 
HETATM    3  N   UNL     1     -42.579  59.202 -56.745  1.00  0.00    -0.379 N 
HETATM    4  C   UNL     1     -43.509  60.305 -56.989  1.00  0.00     0.150 C 
HETATM    5  C   UNL     1     -42.603  58.243 -57.779  1.00  0.00     0.052 A 
HETATM    6  C   UNL     1     -43.443  57.101 -57.800  1.00  0.00     0.040 A 
HETATM    7  N   UNL     1     -44.378  56.819 -56.743  1.00  0.00    -0.246 NA
HETATM    8  C   UNL     1     -43.887  56.833 -55.400  1.00  0.00     0.077 C 
HETATM    9  N   UNL     1     -43.655  55.645 -54.868  1.00  0.00    -0.291 N 
HETATM   10  H   UNL     1     -43.887  54.856 -55.483  1.00  0.00     0.188 HD
HETATM   11  C   UNL     1     -43.597  58.112 -54.728  1.00  0.00     0.096 C 
HETATM   12  C   UNL     1     -41.784  58.476 -58.896  1.00  0.00     0.031 A 
HETATM   13  C   UNL     1     -41.789  57.615 -59.995  1.00  0.00     0.002 A 
HETATM   14  C   UNL     1     -42.629  56.505 -60.006  1.00  0.00     0.002 A 
HETATM   15  C   UNL     1     -43.460  56.254 -58.916  1.00  0.00     0.026 A 
HETATM   16  H   UNL     1     -44.994  57.633 -56.836  1.00  0.00     0.135 HD
ENDROOT
BRANCH   9  17
HETATM   17  N   UNL     1     -43.142  55.377 -53.678  1.00  0.00    -0.265 N 
HETATM   18  C   UNL     1     -42.347  54.248 -53.574  1.00  0.00     0.270 C 
HETATM   19  O   UNL     1     -42.126  53.510 -54.530  1.00  0.00    -0.266 OA
HETATM   20  H   UNL     1     -43.230  56.038 -52.917  1.00  0.00     0.190 HD
BRANCH  18  21
HETATM   21  C   UNL     1     -41.730  53.998 -52.244  1.00  0.00     0.033 A 
HETATM   22  C   UNL     1     -42.284  54.500 -51.058  1.00  0.00     0.017 A 
HETATM   23  C   UNL     1     -41.653  54.254 -49.837  1.00  0.00     0.001 A 
HETATM   24  C   UNL     1     -40.479  53.503 -49.794  1.00  0.00     0.000 A 
HETATM   25  C   UNL     1     -39.938  52.983 -50.969  1.00  0.00     0.001 A 
HETATM   26  C   UNL     1     -40.564  53.225 -52.193  1.00  0.00     0.017 A 
ENDBRANCH  18  21
ENDBRANCH   9  17
TORSDOF 2
ENDMDL
MODEL 5
REMARK VINA RESULT:      -7.3     15.327     17.312
REMARK  2 active torsions:
REMARK  status: ('A' for Active; 'I' for Inactive)
REMARK    1  A    between atoms: N_9  and  N_11 
REMARK       I    between atoms: N_11  and  C_12 
REMARK    2  A    between atoms: C_12  and  C_13 
ROOT
HETATM    1  C   UNL     1     -35.112  38.358 -51.086  1.00  0.00     0.033 C 
HETATM    2  C   UNL     1     -35.669  39.478 -51.968  1.00  0.00     0.086 C 
HETATM    3  N   UNL     1     -34.573  40.189 -52.654  1.00  0.00    -0.379 N 
HETATM    4  C   UNL     1     -33.541  40.882 -51.881  1.00  0.00     0.150 C 
HETATM    5  C   UNL     1     -34.888  40.864 -53.852  1.00  0.00     0.052 A 
HETATM    6  C   UNL     1     -35.907  41.842 -53.982  1.00  0.00     0.040 A 
HETATM    7  N   UNL     1     -36.723  42.249 -52.869  1.00  0.00    -0.246 NA
HETATM    8  C   UNL     1     -37.357  41.225 -52.099  1.00  0.00     0.077 C 
HETATM    9  N   UNL     1     -38.639  41.031 -52.356  1.00  0.00    -0.291 N 
HETATM   10  H   UNL     1     -39.026  41.667 -53.063  1.00  0.00     0.188 HD
HETATM   11  C   UNL     1     -36.571  40.412 -51.153  1.00  0.00     0.096 C 
HETATM   12  C   UNL     1     -34.090  40.594 -54.975  1.00  0.00     0.031 A 
HETATM   13  C   UNL     1     -34.288  41.261 -56.186  1.00  0.00     0.002 A 
HETATM   14  C   UNL     1     -35.283  42.227 -56.294  1.00  0.00     0.002 A 
HETATM   15  C   UNL     1     -36.085  42.523 -55.193  1.00  0.00     0.026 A 
HETATM   16  H   UNL     1     -36.002  42.661 -52.268  1.00  0.00     0.135 HD
ENDROOT
BRANCH   9  17
HETATM   17  N   UNL     1     -39.439  40.113 -51.840  1.00  0.00    -0.265 N 
HETATM   18  C   UNL     1     -40.803  40.316 -51.977  1.00  0.00     0.270 C 
HETATM   19  O   UNL     1     -41.266  41.303 -52.539  1.00  0.00    -0.266 OA
HETATM   20  H   UNL     1     -39.064  39.247 -51.475  1.00  0.00     0.190 HD
BRANCH  18  21
HETATM   21  C   UNL     1     -41.684  39.243 -51.445  1.00  0.00     0.033 A 
HETATM   22  C   UNL     1     -41.802  38.986 -50.071  1.00  0.00     0.017 A 
HETATM   23  C   UNL     1     -42.627  37.952 -49.625  1.00  0.00     0.001 A 
HETATM   24  C   UNL     1     -43.342  37.181 -50.541  1.00  0.00     0.000 A 
HETATM   25  C   UNL     1     -43.245  37.449 -51.906  1.00  0.00     0.001 A 
HETATM   26  C   UNL     1     -42.421  38.481 -52.359  1.00  0.00     0.017 A 
ENDBRANCH  18  21
ENDBRANCH   9  17
TORSDOF 2
ENDMDL
MODEL 6
REMARK VINA RESULT:      -7.3     15.680     18.101
REMARK  2 active torsions:
REMARK  status: ('A' for Active; 'I' for Inactive)
REMARK    1  A    between atoms: N_9  and  N_11 
REMARK       I    between atoms: N_11  and  C_12 
REMARK    2  A    between atoms: C_12  and  C_13 
ROOT
HETATM    1  C   UNL     1     -38.130  39.565 -51.963  1.00  0.00     0.033 C 
HETATM    2  C   UNL     1     -36.707  40.128 -51.979  1.00  0.00     0.086 C 
HETATM    3  N   UNL     1     -36.012  39.811 -50.716  1.00  0.00    -0.379 N 
HETATM    4  C   UNL     1     -36.531  40.307 -49.441  1.00  0.00     0.150 C 
HETATM    5  C   UNL     1     -34.602  39.778 -50.743  1.00  0.00     0.052 A 
HETATM    6  C   UNL     1     -33.779  40.841 -51.193  1.00  0.00     0.040 A 
HETATM    7  N   UNL     1     -34.326  42.086 -51.663  1.00  0.00    -0.246 NA
HETATM    8  C   UNL     1     -35.350  42.028 -52.660  1.00  0.00     0.077 C 
HETATM    9  N   UNL     1     -34.955  42.281 -53.896  1.00  0.00    -0.291 N 
HETATM   10  H   UNL     1     -33.959  42.518 -53.978  1.00  0.00     0.188 HD
HETATM   11  C   UNL     1     -36.721  41.627 -52.295  1.00  0.00     0.096 C 
HETATM   12  C   UNL     1     -33.973  38.634 -50.225  1.00  0.00     0.031 A 
HETATM   13  C   UNL     1     -32.582  38.538 -50.153  1.00  0.00     0.002 A 
HETATM   14  C   UNL     1     -31.788  39.596 -50.586  1.00  0.00     0.002 A 
HETATM   15  C   UNL     1     -32.385  40.747 -51.096  1.00  0.00     0.026 A 
HETATM   16  H   UNL     1     -34.776  42.413 -50.803  1.00  0.00     0.135 HD
ENDROOT
BRANCH   9  17
HETATM   17  N   UNL     1     -35.677  42.231 -55.004  1.00  0.00    -0.265 N 
HETATM   18  C   UNL     1     -35.615  41.063 -55.745  1.00  0.00     0.270 C 
HETATM   19  O   UNL     1     -34.917  40.110 -55.411  1.00  0.00    -0.266 OA
HETATM   20  H   UNL     1     -36.335  42.967 -55.224  1.00  0.00     0.190 HD
BRANCH  18  21
HETATM   21  C   UNL     1     -36.480  41.004 -56.952  1.00  0.00     0.033 A 
HETATM   22  C   UNL     1     -37.432  39.991 -57.140  1.00  0.00     0.017 A 
HETATM   23  C   UNL     1     -38.205  39.969 -58.302  1.00  0.00     0.001 A 
HETATM   24  C   UNL     1     -38.038  40.957 -59.273  1.00  0.00     0.000 A 
HETATM   25  C   UNL     1     -37.108  41.978 -59.080  1.00  0.00     0.001 A 
HETATM   26  C   UNL     1     -36.333  42.005 -57.920  1.00  0.00     0.017 A 
ENDBRANCH  18  21
ENDBRANCH   9  17
TORSDOF 2
ENDMDL
MODEL 7
REMARK VINA RESULT:      -7.2      4.521      7.872
REMARK  2 active torsions:
REMARK  status: ('A' for Active; 'I' for Inactive)
REMARK    1  A    between atoms: N_9  and  N_11 
REMARK       I    between atoms: N_11  and  C_12 
REMARK    2  A    between atoms: C_12  and  C_13 
ROOT
HETATM    1  C   UNL     1     -42.018  59.047 -54.931  1.00  0.00     0.033 C 
HETATM    2  C   UNL     1     -42.377  57.979 -53.896  1.00  0.00     0.086 C 
HETATM    3  N   UNL     1     -42.182  56.629 -54.458  1.00  0.00    -0.379 N 
HETATM    4  C   UNL     1     -42.943  56.197 -55.630  1.00  0.00     0.150 C 
HETATM    5  C   UNL     1     -41.958  55.575 -53.547  1.00  0.00     0.052 A 
HETATM    6  C   UNL     1     -42.815  55.247 -52.466  1.00  0.00     0.040 A 
HETATM    7  N   UNL     1     -44.028  55.976 -52.203  1.00  0.00    -0.246 NA
HETATM    8  C   UNL     1     -43.944  57.401 -52.127  1.00  0.00     0.077 C 
HETATM    9  N   UNL     1     -43.937  57.906 -50.905  1.00  0.00    -0.291 N 
HETATM   10  H   UNL     1     -44.023  57.204 -50.160  1.00  0.00     0.188 HD
HETATM   11  C   UNL     1     -43.793  58.204 -53.354  1.00  0.00     0.096 C 
HETATM   12  C   UNL     1     -40.841  54.753 -53.772  1.00  0.00     0.031 A 
HETATM   13  C   UNL     1     -40.575  53.648 -52.961  1.00  0.00     0.002 A 
HETATM   14  C   UNL     1     -41.433  53.332 -51.911  1.00  0.00     0.002 A 
HETATM   15  C   UNL     1     -42.554  54.124 -51.670  1.00  0.00     0.026 A 
HETATM   16  H   UNL     1     -44.548  55.760 -53.060  1.00  0.00     0.135 HD
ENDROOT
BRANCH   9  17
HETATM   17  N   UNL     1     -43.803  59.174 -50.553  1.00  0.00    -0.265 N 
HETATM   18  C   UNL     1     -44.926  59.811 -50.051  1.00  0.00     0.270 C 
HETATM   19  O   UNL     1     -46.009  59.244 -49.942  1.00  0.00    -0.266 OA
HETATM   20  H   UNL     1     -42.890  59.612 -50.537  1.00  0.00     0.190 HD
BRANCH  18  21
HETATM   21  C   UNL     1     -44.739  61.216 -49.603  1.00  0.00     0.033 A 
HETATM   22  C   UNL     1     -44.217  62.206 -50.447  1.00  0.00     0.017 A 
HETATM   23  C   UNL     1     -44.042  63.507 -49.970  1.00  0.00     0.001 A 
HETATM   24  C   UNL     1     -44.394  63.825 -48.658  1.00  0.00     0.000 A 
HETATM   25  C   UNL     1     -44.935  62.848 -47.823  1.00  0.00     0.001 A 
HETATM   26  C   UNL     1     -45.112  61.547 -48.294  1.00  0.00     0.017 A 
ENDBRANCH  18  21
ENDBRANCH   9  17
TORSDOF 2
ENDMDL
MODEL 8
REMARK VINA RESULT:      -7.2      2.545      6.538
REMARK  2 active torsions:
REMARK  status: ('A' for Active; 'I' for Inactive)
REMARK    1  A    between atoms: N_9  and  N_11 
REMARK       I    between atoms: N_11  and  C_12 
REMARK    2  A    between atoms: C_12  and  C_13 
ROOT
HETATM    1  C   UNL     1     -40.986  54.590 -53.665  1.00  0.00     0.033 C 
HETATM    2  C   UNL     1     -41.782  55.802 -53.179  1.00  0.00     0.086 C 
HETATM    3  N   UNL     1     -41.313  56.228 -51.846  1.00  0.00    -0.379 N 
HETATM    4  C   UNL     1     -41.401  55.318 -50.704  1.00  0.00     0.150 C 
HETATM    5  C   UNL     1     -41.539  57.571 -51.478  1.00  0.00     0.052 A 
HETATM    6  C   UNL     1     -42.807  58.206 -51.485  1.00  0.00     0.040 A 
HETATM    7  N   UNL     1     -44.008  57.513 -51.867  1.00  0.00    -0.246 NA
HETATM    8  C   UNL     1     -43.999  56.801 -53.107  1.00  0.00     0.077 C 
HETATM    9  N   UNL     1     -44.595  57.410 -54.117  1.00  0.00    -0.291 N 
HETATM   10  H   UNL     1     -45.019  58.313 -53.872  1.00  0.00     0.188 HD
HETATM   11  C   UNL     1     -43.287  55.515 -53.221  1.00  0.00     0.096 C 
HETATM   12  C   UNL     1     -40.438  58.307 -51.010  1.00  0.00     0.031 A 
HETATM   13  C   UNL     1     -40.579  59.623 -50.564  1.00  0.00     0.002 A 
HETATM   14  C   UNL     1     -41.832  60.228 -50.564  1.00  0.00     0.002 A 
HETATM   15  C   UNL     1     -42.944  59.519 -51.015  1.00  0.00     0.026 A 
HETATM   16  H   UNL     1     -44.043  56.806 -51.126  1.00  0.00     0.135 HD
ENDROOT
BRANCH   9  17
HETATM   17  N   UNL     1     -44.673  57.008 -55.375  1.00  0.00    -0.265 N 
HETATM   18  C   UNL     1     -43.837  57.627 -56.289  1.00  0.00     0.270 C 
HETATM   19  O   UNL     1     -43.060  58.521 -55.967  1.00  0.00    -0.266 OA
HETATM   20  H   UNL     1     -45.230  56.200 -55.625  1.00  0.00     0.190 HD
BRANCH  18  21
HETATM   21  C   UNL     1     -43.895  57.118 -57.684  1.00  0.00     0.033 A 
HETATM   22  C   UNL     1     -42.988  56.166 -58.171  1.00  0.00     0.017 A 
HETATM   23  C   UNL     1     -43.073  55.737 -59.497  1.00  0.00     0.001 A 
HETATM   24  C   UNL     1     -44.064  56.246 -60.336  1.00  0.00     0.000 A 
HETATM   25  C   UNL     1     -44.982  57.176 -59.849  1.00  0.00     0.001 A 
HETATM   26  C   UNL     1     -44.902  57.609 -58.524  1.00  0.00     0.017 A 
ENDBRANCH  18  21
ENDBRANCH   9  17
TORSDOF 2
ENDMDL
MODEL 9
REMARK VINA RESULT:      -7.1      6.388      9.099
REMARK  2 active torsions:
REMARK  status: ('A' for Active; 'I' for Inactive)
REMARK    1  A    between atoms: N_9  and  N_11 
REMARK       I    between atoms: N_11  and  C_12 
REMARK    2  A    between atoms: C_12  and  C_13 
ROOT
HETATM    1  C   UNL     1     -39.643  60.065 -50.162  1.00  0.00     0.033 C 
HETATM    2  C   UNL     1     -40.961  59.352 -50.470  1.00  0.00     0.086 C 
HETATM    3  N   UNL     1     -40.736  58.226 -51.397  1.00  0.00    -0.379 N 
HETATM    4  C   UNL     1     -40.190  58.465 -52.733  1.00  0.00     0.150 C 
HETATM    5  C   UNL     1     -41.680  57.177 -51.384  1.00  0.00     0.052 A 
HETATM    6  C   UNL     1     -43.075  57.346 -51.569  1.00  0.00     0.040 A 
HETATM    7  N   UNL     1     -43.665  58.637 -51.804  1.00  0.00    -0.246 NA
HETATM    8  C   UNL     1     -43.330  59.695 -50.903  1.00  0.00     0.077 C 
HETATM    9  N   UNL     1     -44.242  59.973 -49.987  1.00  0.00    -0.291 N 
HETATM   10  H   UNL     1     -45.095  59.406 -50.060  1.00  0.00     0.188 HD
HETATM   11  C   UNL     1     -42.009  60.347 -50.979  1.00  0.00     0.096 C 
HETATM   12  C   UNL     1     -41.189  55.869 -51.244  1.00  0.00     0.031 A 
HETATM   13  C   UNL     1     -42.042  54.764 -51.283  1.00  0.00     0.002 A 
HETATM   14  C   UNL     1     -43.408  54.945 -51.479  1.00  0.00     0.002 A 
HETATM   15  C   UNL     1     -43.922  56.231 -51.630  1.00  0.00     0.026 A 
HETATM   16  H   UNL     1     -43.225  58.868 -52.701  1.00  0.00     0.135 HD
ENDROOT
BRANCH   9  17
HETATM   17  N   UNL     1     -44.160  60.851 -49.001  1.00  0.00    -0.265 N 
HETATM   18  C   UNL     1     -45.197  60.869 -48.084  1.00  0.00     0.270 C 
HETATM   19  O   UNL     1     -46.164  60.118 -48.172  1.00  0.00    -0.266 OA
HETATM   20  H   UNL     1     -43.317  61.394 -48.862  1.00  0.00     0.190 HD
BRANCH  18  21
HETATM   21  C   UNL     1     -45.057  61.819 -46.950  1.00  0.00     0.033 A 
HETATM   22  C   UNL     1     -44.828  61.387 -45.636  1.00  0.00     0.017 A 
HETATM   23  C   UNL     1     -44.725  62.320 -44.603  1.00  0.00     0.001 A 
HETATM   24  C   UNL     1     -44.839  63.683 -44.877  1.00  0.00     0.000 A 
HETATM   25  C   UNL     1     -45.044  64.118 -46.186  1.00  0.00     0.001 A 
HETATM   26  C   UNL     1     -45.148  63.190 -47.223  1.00  0.00     0.017 A 
ENDBRANCH  18  21
ENDBRANCH   9  17
TORSDOF 2
ENDMDL
MODEL 10
REMARK VINA RESULT:      -7.1     15.691     18.280
REMARK  2 active torsions:
REMARK  status: ('A' for Active; 'I' for Inactive)
REMARK    1  A    between atoms: N_9  and  N_11 
REMARK       I    between atoms: N_11  and  C_12 
REMARK    2  A    between atoms: C_12  and  C_13 
ROOT
HETATM    1  C   UNL     1     -38.332  41.049 -54.787  1.00  0.00     0.033 C 
HETATM    2  C   UNL     1     -37.015  40.937 -55.557  1.00  0.00     0.086 C 
HETATM    3  N   UNL     1     -35.876  41.281 -54.685  1.00  0.00    -0.379 N 
HETATM    4  C   UNL     1     -35.776  42.613 -54.087  1.00  0.00     0.150 C 
HETATM    5  C   UNL     1     -34.613  40.754 -55.030  1.00  0.00     0.052 A 
HETATM    6  C   UNL     1     -33.989  40.918 -56.292  1.00  0.00     0.040 A 
HETATM    7  N   UNL     1     -34.601  41.667 -57.357  1.00  0.00    -0.246 NA
HETATM    8  C   UNL     1     -35.950  41.347 -57.705  1.00  0.00     0.077 C 
HETATM    9  N   UNL     1     -36.096  40.599 -58.786  1.00  0.00    -0.291 N 
HETATM   10  H   UNL     1     -35.214  40.366 -59.258  1.00  0.00     0.188 HD
HETATM   11  C   UNL     1     -37.063  41.775 -56.839  1.00  0.00     0.096 C 
HETATM   12  C   UNL     1     -33.901  40.077 -54.027  1.00  0.00     0.031 A 
HETATM   13  C   UNL     1     -32.618  39.576 -54.258  1.00  0.00     0.002 A 
HETATM   14  C   UNL     1     -32.012  39.757 -55.498  1.00  0.00     0.002 A 
HETATM   15  C   UNL     1     -32.692  40.433 -56.509  1.00  0.00     0.026 A 
HETATM   16  H   UNL     1     -34.624  42.596 -56.924  1.00  0.00     0.135 HD
ENDROOT
BRANCH   9  17
HETATM   17  N   UNL     1     -37.219  40.110 -59.287  1.00  0.00    -0.265 N 
HETATM   18  C   UNL     1     -37.105  39.249 -60.366  1.00  0.00     0.270 C 
HETATM   19  O   UNL     1     -36.020  38.951 -60.857  1.00  0.00    -0.266 OA
HETATM   20  H   UNL     1     -38.103  40.264 -58.819  1.00  0.00     0.190 HD
BRANCH  18  21
HETATM   21  C   UNL     1     -38.372  38.662 -60.875  1.00  0.00     0.033 A 
HETATM   22  C   UNL     1     -39.461  38.391 -60.034  1.00  0.00     0.017 A 
HETATM   23  C   UNL     1     -40.621  37.818 -60.559  1.00  0.00     0.001 A 
HETATM   24  C   UNL     1     -40.703  37.525 -61.921  1.00  0.00     0.000 A 
HETATM   25  C   UNL     1     -39.630  37.814 -62.764  1.00  0.00     0.001 A 
HETATM   26  C   UNL     1     -38.468  38.386 -62.244  1.00  0.00     0.017 A 
ENDBRANCH  18  21
ENDBRANCH   9  17
TORSDOF 2
ENDMDL
