MODEL 1
REMARK VINA RESULT:      -7.6      0.000      0.000
REMARK  8 active torsions:
REMARK  status: ('A' for Active; 'I' for Inactive)
REMARK    1  A    between atoms: C_2  and  C_3 
REMARK    2  A    between atoms: C_3  and  O_4 
REMARK    3  A    between atoms: O_4  and  C_5 
REMARK    4  A    between atoms: C_7  and  C_8 
REMARK    5  A    between atoms: N_9  and  C_10 
REMARK    6  A    between atoms: C_10  and  C_11 
REMARK    7  A    between atoms: C_24  and  C_25 
REMARK    8  A    between atoms: C_26  and  O_27 
ROOT
HETATM    1  C   UNL     1     -43.972  55.991 -53.958  1.00  0.00     0.159 A 
HETATM    2  N   UNL     1     -43.096  54.840 -53.607  1.00  0.00    -0.329 N 
HETATM    3  C   UNL     1     -42.232  54.452 -54.634  1.00  0.00     0.273 A 
HETATM    4  O   UNL     1     -41.449  53.521 -54.657  1.00  0.00    -0.266 OA
HETATM    5  C   UNL     1     -42.508  55.381 -55.663  1.00  0.00     0.129 A 
HETATM    6  C   UNL     1     -43.493  56.265 -55.332  1.00  0.00     0.034 A 
HETATM    7  N   UNL     1     -42.091  55.667 -56.903  1.00  0.00    -0.272 N 
HETATM    8  H   UNL     1     -41.369  55.215 -57.458  1.00  0.00     0.189 HD
HETATM    9  N   UNL     1     -42.770  56.722 -57.424  1.00  0.00    -0.173 NA
HETATM   10  C   UNL     1     -43.675  57.072 -56.470  1.00  0.00     0.101 A 
ENDROOT
BRANCH   1  11
HETATM   11  C   UNL     1     -43.716  57.220 -53.117  1.00  0.00    -0.028 A 
HETATM   12  C   UNL     1     -42.522  57.961 -53.212  1.00  0.00     0.046 A 
HETATM   13  C   UNL     1     -42.295  59.090 -52.419  1.00  0.00     0.069 A 
HETATM   14  C   UNL     1     -43.274  59.498 -51.515  1.00  0.00     0.037 A 
HETATM   15  C   UNL     1     -44.462  58.773 -51.401  1.00  0.00     0.003 A 
HETATM   16  C   UNL     1     -44.679  57.640 -52.189  1.00  0.00     0.010 A 
BRANCH  13  17
HETATM   17  O   UNL     1     -41.086  59.694 -52.628  1.00  0.00    -0.348 OA
BRANCH  17  18
HETATM   18  C   UNL     1     -39.918  58.941 -52.312  1.00  0.00     0.202 C 
BRANCH  18  19
HETATM   19  C   UNL     1     -39.692  59.070 -50.835  1.00  0.00    -0.011 C 
HETATM   20  C   UNL     1     -38.700  59.771 -50.270  1.00  0.00     0.009 C 
ENDBRANCH  18  19
ENDBRANCH  17  18
ENDBRANCH  13  17
ENDBRANCH   1  11
BRANCH   2  21
HETATM   21  C   UNL     1     -43.259  54.090 -52.382  1.00  0.00     0.167 C 
BRANCH  21  22
HETATM   22  C   UNL     1     -42.138  54.343 -51.415  1.00  0.00    -0.023 A 
HETATM   23  C   UNL     1     -41.071  53.458 -51.302  1.00  0.00     0.125 A 
HETATM   24  N   UNL     1     -40.017  53.642 -50.474  1.00  0.00    -0.273 NA
HETATM   25  C   UNL     1     -40.031  54.757 -49.712  1.00  0.00     0.116 A 
HETATM   26  C   UNL     1     -41.045  55.698 -49.744  1.00  0.00     0.020 A 
HETATM   27  C   UNL     1     -42.112  55.486 -50.610  1.00  0.00     0.012 A 
ENDBRANCH  21  22
ENDBRANCH   2  21
BRANCH  10  28
HETATM   28  C   UNL     1     -44.628  58.160 -56.710  1.00  0.00     0.028 A 
HETATM   29  C   UNL     1     -45.584  58.083 -57.739  1.00  0.00     0.078 A 
HETATM   30  C   UNL     1     -46.473  59.129 -57.984  1.00  0.00     0.037 A 
HETATM   31  C   UNL     1     -46.436  60.271 -57.186  1.00  0.00     0.003 A 
HETATM   32  C   UNL     1     -45.517  60.358 -56.143  1.00  0.00     0.001 A 
HETATM   33  C   UNL     1     -44.622  59.308 -55.904  1.00  0.00     0.017 A 
BRANCH  29  34
HETATM   34  O   UNL     1     -45.707  56.984 -58.549  1.00  0.00    -0.360 OA
HETATM   35  H   UNL     1     -46.663  56.923 -58.780  1.00  0.00     0.217 HD
ENDBRANCH  29  34
ENDBRANCH  10  28
TORSDOF 8
ENDMDL
MODEL 2
REMARK VINA RESULT:      -7.5      2.634      6.661
REMARK  8 active torsions:
REMARK  status: ('A' for Active; 'I' for Inactive)
REMARK    1  A    between atoms: C_2  and  C_3 
REMARK    2  A    between atoms: C_3  and  O_4 
REMARK    3  A    between atoms: O_4  and  C_5 
REMARK    4  A    between atoms: C_7  and  C_8 
REMARK    5  A    between atoms: N_9  and  C_10 
REMARK    6  A    between atoms: C_10  and  C_11 
REMARK    7  A    between atoms: C_24  and  C_25 
REMARK    8  A    between atoms: C_26  and  O_27 
ROOT
HETATM    1  C   UNL     1     -43.451  56.761 -56.673  1.00  0.00     0.159 A 
HETATM    2  N   UNL     1     -43.162  56.512 -58.112  1.00  0.00    -0.329 N 
HETATM    3  C   UNL     1     -42.436  57.534 -58.729  1.00  0.00     0.273 A 
HETATM    4  O   UNL     1     -42.105  57.632 -59.896  1.00  0.00    -0.266 OA
HETATM    5  C   UNL     1     -42.204  58.452 -57.680  1.00  0.00     0.129 A 
HETATM    6  C   UNL     1     -42.768  58.065 -56.500  1.00  0.00     0.034 A 
HETATM    7  N   UNL     1     -41.586  59.624 -57.482  1.00  0.00    -0.272 N 
HETATM    8  H   UNL     1     -41.062  60.192 -58.140  1.00  0.00     0.189 HD
HETATM    9  N   UNL     1     -41.719  60.043 -56.196  1.00  0.00    -0.173 NA
HETATM   10  C   UNL     1     -42.490  59.101 -55.590  1.00  0.00     0.101 A 
ENDROOT
BRANCH   1  11
HETATM   11  C   UNL     1     -42.798  55.762 -55.747  1.00  0.00    -0.028 A 
HETATM   12  C   UNL     1     -43.391  55.360 -54.535  1.00  0.00     0.046 A 
HETATM   13  C   UNL     1     -42.768  54.442 -53.684  1.00  0.00     0.069 A 
HETATM   14  C   UNL     1     -41.534  53.905 -54.044  1.00  0.00     0.037 A 
HETATM   15  C   UNL     1     -40.926  54.295 -55.239  1.00  0.00     0.003 A 
HETATM   16  C   UNL     1     -41.548  55.220 -56.080  1.00  0.00     0.010 A 
BRANCH  13  17
HETATM   17  O   UNL     1     -43.470  54.161 -52.544  1.00  0.00    -0.348 OA
BRANCH  17  18
HETATM   18  C   UNL     1     -42.750  54.177 -51.314  1.00  0.00     0.202 C 
BRANCH  18  19
HETATM   19  C   UNL     1     -42.657  55.607 -50.872  1.00  0.00    -0.011 C 
HETATM   20  C   UNL     1     -41.517  56.241 -50.566  1.00  0.00     0.009 C 
ENDBRANCH  18  19
ENDBRANCH  17  18
ENDBRANCH  13  17
ENDBRANCH   1  11
BRANCH   2  21
HETATM   21  C   UNL     1     -43.738  55.400 -58.834  1.00  0.00     0.167 C 
BRANCH  21  22
HETATM   22  C   UNL     1     -44.936  55.815 -59.641  1.00  0.00    -0.023 A 
HETATM   23  C   UNL     1     -45.179  55.275 -60.899  1.00  0.00     0.125 A 
HETATM   24  N   UNL     1     -46.252  55.582 -61.661  1.00  0.00    -0.273 NA
HETATM   25  C   UNL     1     -47.122  56.482 -61.152  1.00  0.00     0.116 A 
HETATM   26  C   UNL     1     -46.971  57.082 -59.914  1.00  0.00     0.020 A 
HETATM   27  C   UNL     1     -45.862  56.740 -59.149  1.00  0.00     0.012 A 
ENDBRANCH  21  22
ENDBRANCH   2  21
BRANCH  10  28
HETATM   28  C   UNL     1     -42.885  59.252 -54.186  1.00  0.00     0.028 A 
HETATM   29  C   UNL     1     -41.928  59.449 -53.173  1.00  0.00     0.078 A 
HETATM   30  C   UNL     1     -42.301  59.566 -51.835  1.00  0.00     0.037 A 
HETATM   31  C   UNL     1     -43.647  59.508 -51.483  1.00  0.00     0.003 A 
HETATM   32  C   UNL     1     -44.615  59.341 -52.471  1.00  0.00     0.001 A 
HETATM   33  C   UNL     1     -44.237  59.218 -53.814  1.00  0.00     0.017 A 
BRANCH  29  34
HETATM   34  O   UNL     1     -40.586  59.549 -53.437  1.00  0.00    -0.360 OA
HETATM   35  H   UNL     1     -40.246  60.264 -52.851  1.00  0.00     0.217 HD
ENDBRANCH  29  34
ENDBRANCH  10  28
TORSDOF 8
ENDMDL
MODEL 3
REMARK VINA RESULT:      -7.4      1.185      2.462
REMARK  8 active torsions:
REMARK  status: ('A' for Active; 'I' for Inactive)
REMARK    1  A    between atoms: C_2  and  C_3 
REMARK    2  A    between atoms: C_3  and  O_4 
REMARK    3  A    between atoms: O_4  and  C_5 
REMARK    4  A    between atoms: C_7  and  C_8 
REMARK    5  A    between atoms: N_9  and  C_10 
REMARK    6  A    between atoms: C_10  and  C_11 
REMARK    7  A    between atoms: C_24  and  C_25 
REMARK    8  A    between atoms: C_26  and  O_27 
ROOT
HETATM    1  C   UNL     1     -43.708  55.963 -53.657  1.00  0.00     0.159 A 
HETATM    2  N   UNL     1     -43.032  54.665 -53.381  1.00  0.00    -0.329 N 
HETATM    3  C   UNL     1     -42.358  54.133 -54.482  1.00  0.00     0.273 A 
HETATM    4  O   UNL     1     -41.767  53.073 -54.571  1.00  0.00    -0.266 OA
HETATM    5  C   UNL     1     -42.551  55.106 -55.488  1.00  0.00     0.129 A 
HETATM    6  C   UNL     1     -43.319  56.155 -55.073  1.00  0.00     0.034 A 
HETATM    7  N   UNL     1     -42.208  55.321 -56.765  1.00  0.00    -0.272 N 
HETATM    8  H   UNL     1     -41.639  54.748 -57.381  1.00  0.00     0.189 HD
HETATM    9  N   UNL     1     -42.725  56.489 -57.227  1.00  0.00    -0.173 NA
HETATM   10  C   UNL     1     -43.455  56.992 -56.195  1.00  0.00     0.101 A 
ENDROOT
BRANCH   1  11
HETATM   11  C   UNL     1     -43.149  57.114 -52.855  1.00  0.00    -0.028 A 
HETATM   12  C   UNL     1     -43.956  57.916 -52.024  1.00  0.00     0.046 A 
HETATM   13  C   UNL     1     -43.424  58.985 -51.297  1.00  0.00     0.069 A 
HETATM   14  C   UNL     1     -42.062  59.263 -51.388  1.00  0.00     0.037 A 
HETATM   15  C   UNL     1     -41.246  58.485 -52.211  1.00  0.00     0.003 A 
HETATM   16  C   UNL     1     -41.784  57.424 -52.943  1.00  0.00     0.010 A 
BRANCH  13  17
HETATM   17  O   UNL     1     -44.340  59.667 -50.544  1.00  0.00    -0.348 OA
BRANCH  17  18
HETATM   18  C   UNL     1     -45.718  59.441 -50.830  1.00  0.00     0.202 C 
BRANCH  18  19
HETATM   19  C   UNL     1     -46.285  60.735 -51.332  1.00  0.00    -0.011 C 
HETATM   20  C   UNL     1     -46.472  61.039 -52.623  1.00  0.00     0.009 C 
ENDBRANCH  18  19
ENDBRANCH  17  18
ENDBRANCH  13  17
ENDBRANCH   1  11
BRANCH   2  21
HETATM   21  C   UNL     1     -43.216  53.948 -52.139  1.00  0.00     0.167 C 
BRANCH  21  22
HETATM   22  C   UNL     1     -42.067  54.158 -51.194  1.00  0.00    -0.023 A 
HETATM   23  C   UNL     1     -40.879  53.450 -51.336  1.00  0.00     0.125 A 
HETATM   24  N   UNL     1     -39.799  53.614 -50.539  1.00  0.00    -0.273 NA
HETATM   25  C   UNL     1     -39.910  54.519 -49.543  1.00  0.00     0.116 A 
HETATM   26  C   UNL     1     -41.048  55.272 -49.312  1.00  0.00     0.020 A 
HETATM   27  C   UNL     1     -42.141  55.088 -50.152  1.00  0.00     0.012 A 
ENDBRANCH  21  22
ENDBRANCH   2  21
BRANCH  10  28
HETATM   28  C   UNL     1     -44.206  58.241 -56.353  1.00  0.00     0.028 A 
HETATM   29  C   UNL     1     -45.278  58.343 -57.260  1.00  0.00     0.078 A 
HETATM   30  C   UNL     1     -45.975  59.538 -57.428  1.00  0.00     0.037 A 
HETATM   31  C   UNL     1     -45.627  60.656 -56.674  1.00  0.00     0.003 A 
HETATM   32  C   UNL     1     -44.588  60.572 -55.750  1.00  0.00     0.001 A 
HETATM   33  C   UNL     1     -43.885  59.372 -55.587  1.00  0.00     0.017 A 
BRANCH  29  34
HETATM   34  O   UNL     1     -45.704  57.281 -58.017  1.00  0.00    -0.360 OA
HETATM   35  H   UNL     1     -45.262  57.378 -58.892  1.00  0.00     0.217 HD
ENDBRANCH  29  34
ENDBRANCH  10  28
TORSDOF 8
ENDMDL
MODEL 4
REMARK VINA RESULT:      -7.3      1.894      5.911
REMARK  8 active torsions:
REMARK  status: ('A' for Active; 'I' for Inactive)
REMARK    1  A    between atoms: C_2  and  C_3 
REMARK    2  A    between atoms: C_3  and  O_4 
REMARK    3  A    between atoms: O_4  and  C_5 
REMARK    4  A    between atoms: C_7  and  C_8 
REMARK    5  A    between atoms: N_9  and  C_10 
REMARK    6  A    between atoms: C_10  and  C_11 
REMARK    7  A    between atoms: C_24  and  C_25 
REMARK    8  A    between atoms: C_26  and  O_27 
ROOT
HETATM    1  C   UNL     1     -41.891  56.993 -54.719  1.00  0.00     0.159 A 
HETATM    2  N   UNL     1     -42.530  57.664 -55.884  1.00  0.00    -0.329 N 
HETATM    3  C   UNL     1     -43.232  56.795 -56.723  1.00  0.00     0.273 A 
HETATM    4  O   UNL     1     -43.804  57.045 -57.768  1.00  0.00    -0.266 OA
HETATM    5  C   UNL     1     -43.094  55.541 -56.087  1.00  0.00     0.129 A 
HETATM    6  C   UNL     1     -42.334  55.599 -54.956  1.00  0.00     0.034 A 
HETATM    7  N   UNL     1     -43.487  54.272 -56.260  1.00  0.00    -0.272 N 
HETATM    8  H   UNL     1     -44.065  53.874 -56.994  1.00  0.00     0.189 HD
HETATM    9  N   UNL     1     -43.010  53.467 -55.275  1.00  0.00    -0.173 NA
HETATM   10  C   UNL     1     -42.255  54.276 -54.484  1.00  0.00     0.101 A 
ENDROOT
BRANCH   1  11
HETATM   11  C   UNL     1     -42.445  57.443 -53.388  1.00  0.00    -0.028 A 
HETATM   12  C   UNL     1     -41.620  57.925 -52.354  1.00  0.00     0.046 A 
HETATM   13  C   UNL     1     -42.148  58.328 -51.123  1.00  0.00     0.069 A 
HETATM   14  C   UNL     1     -43.523  58.259 -50.914  1.00  0.00     0.037 A 
HETATM   15  C   UNL     1     -44.358  57.778 -51.924  1.00  0.00     0.003 A 
HETATM   16  C   UNL     1     -43.824  57.368 -53.148  1.00  0.00     0.010 A 
BRANCH  13  17
HETATM   17  O   UNL     1     -41.214  58.765 -50.224  1.00  0.00    -0.348 OA
BRANCH  17  18
HETATM   18  C   UNL     1     -40.371  59.841 -50.629  1.00  0.00     0.202 C 
BRANCH  18  19
HETATM   19  C   UNL     1     -38.957  59.346 -50.563  1.00  0.00    -0.011 C 
HETATM   20  C   UNL     1     -37.982  59.911 -49.840  1.00  0.00     0.009 C 
ENDBRANCH  18  19
ENDBRANCH  17  18
ENDBRANCH  13  17
ENDBRANCH   1  11
BRANCH   2  21
HETATM   21  C   UNL     1     -42.288  59.053 -56.204  1.00  0.00     0.167 C 
BRANCH  21  22
HETATM   22  C   UNL     1     -43.220  59.970 -55.465  1.00  0.00    -0.023 A 
HETATM   23  C   UNL     1     -44.575  60.020 -55.773  1.00  0.00     0.125 A 
HETATM   24  N   UNL     1     -45.472  60.799 -55.127  1.00  0.00    -0.273 NA
HETATM   25  C   UNL     1     -44.994  61.578 -54.132  1.00  0.00     0.116 A 
HETATM   26  C   UNL     1     -43.664  61.607 -53.749  1.00  0.00     0.020 A 
HETATM   27  C   UNL     1     -42.767  60.789 -54.426  1.00  0.00     0.012 A 
ENDBRANCH  21  22
ENDBRANCH   2  21
BRANCH  10  28
HETATM   28  C   UNL     1     -41.536  53.729 -53.330  1.00  0.00     0.028 A 
HETATM   29  C   UNL     1     -40.549  52.737 -53.484  1.00  0.00     0.078 A 
HETATM   30  C   UNL     1     -39.884  52.199 -52.384  1.00  0.00     0.037 A 
HETATM   31  C   UNL     1     -40.178  52.658 -51.102  1.00  0.00     0.003 A 
HETATM   32  C   UNL     1     -41.130  53.659 -50.927  1.00  0.00     0.001 A 
HETATM   33  C   UNL     1     -41.801  54.194 -52.034  1.00  0.00     0.017 A 
BRANCH  29  34
HETATM   34  O   UNL     1     -40.179  52.252 -54.712  1.00  0.00    -0.360 OA
HETATM   35  H   UNL     1     -41.016  52.012 -55.173  1.00  0.00     0.217 HD
ENDBRANCH  29  34
ENDBRANCH  10  28
TORSDOF 8
ENDMDL
MODEL 5
REMARK VINA RESULT:      -7.2      3.010      6.689
REMARK  8 active torsions:
REMARK  status: ('A' for Active; 'I' for Inactive)
REMARK    1  A    between atoms: C_2  and  C_3 
REMARK    2  A    between atoms: C_3  and  O_4 
REMARK    3  A    between atoms: O_4  and  C_5 
REMARK    4  A    between atoms: C_7  and  C_8 
REMARK    5  A    between atoms: N_9  and  C_10 
REMARK    6  A    between atoms: C_10  and  C_11 
REMARK    7  A    between atoms: C_24  and  C_25 
REMARK    8  A    between atoms: C_26  and  O_27 
ROOT
HETATM    1  C   UNL     1     -43.657  56.883 -56.397  1.00  0.00     0.159 A 
HETATM    2  N   UNL     1     -43.062  56.697 -57.749  1.00  0.00    -0.329 N 
HETATM    3  C   UNL     1     -42.282  57.773 -58.178  1.00  0.00     0.273 A 
HETATM    4  O   UNL     1     -41.721  57.927 -59.247  1.00  0.00    -0.266 OA
HETATM    5  C   UNL     1     -42.323  58.666 -57.082  1.00  0.00     0.129 A 
HETATM    6  C   UNL     1     -43.098  58.212 -56.056  1.00  0.00     0.034 A 
HETATM    7  N   UNL     1     -41.826  59.859 -56.732  1.00  0.00    -0.272 N 
HETATM    8  H   UNL     1     -41.208  60.475 -57.254  1.00  0.00     0.189 HD
HETATM    9  N   UNL     1     -42.245  60.228 -55.494  1.00  0.00    -0.173 NA
HETATM   10  C   UNL     1     -43.073  59.229 -55.084  1.00  0.00     0.101 A 
ENDROOT
BRANCH   1  11
HETATM   11  C   UNL     1     -43.157  55.886 -55.379  1.00  0.00    -0.028 A 
HETATM   12  C   UNL     1     -42.002  55.108 -55.592  1.00  0.00     0.046 A 
HETATM   13  C   UNL     1     -41.559  54.181 -54.643  1.00  0.00     0.069 A 
HETATM   14  C   UNL     1     -42.269  54.026 -53.455  1.00  0.00     0.037 A 
HETATM   15  C   UNL     1     -43.420  54.783 -53.227  1.00  0.00     0.003 A 
HETATM   16  C   UNL     1     -43.864  55.700 -54.182  1.00  0.00     0.010 A 
BRANCH  13  17
HETATM   17  O   UNL     1     -40.428  53.501 -55.003  1.00  0.00    -0.348 OA
BRANCH  17  18
HETATM   18  C   UNL     1     -39.897  52.573 -54.060  1.00  0.00     0.202 C 
BRANCH  18  19
HETATM   19  C   UNL     1     -40.432  51.219 -54.420  1.00  0.00    -0.011 C 
HETATM   20  C   UNL     1     -39.720  50.085 -54.403  1.00  0.00     0.009 C 
ENDBRANCH  18  19
ENDBRANCH  17  18
ENDBRANCH  13  17
ENDBRANCH   1  11
BRANCH   2  21
HETATM   21  C   UNL     1     -43.414  55.583 -58.602  1.00  0.00     0.167 C 
BRANCH  21  22
HETATM   22  C   UNL     1     -44.621  55.881 -59.445  1.00  0.00    -0.023 A 
HETATM   23  C   UNL     1     -44.836  55.223 -60.651  1.00  0.00     0.125 A 
HETATM   24  N   UNL     1     -45.915  55.423 -61.442  1.00  0.00    -0.273 NA
HETATM   25  C   UNL     1     -46.820  56.331 -61.017  1.00  0.00     0.116 A 
HETATM   26  C   UNL     1     -46.699  57.043 -59.836  1.00  0.00     0.020 A 
HETATM   27  C   UNL     1     -45.583  56.812 -59.040  1.00  0.00     0.012 A 
ENDBRANCH  21  22
ENDBRANCH   2  21
BRANCH  10  28
HETATM   28  C   UNL     1     -43.758  59.312 -53.790  1.00  0.00     0.028 A 
HETATM   29  C   UNL     1     -45.092  59.753 -53.695  1.00  0.00     0.078 A 
HETATM   30  C   UNL     1     -45.734  59.857 -52.462  1.00  0.00     0.037 A 
HETATM   31  C   UNL     1     -45.060  59.501 -51.296  1.00  0.00     0.003 A 
HETATM   32  C   UNL     1     -43.749  59.036 -51.369  1.00  0.00     0.001 A 
HETATM   33  C   UNL     1     -43.105  58.938 -52.608  1.00  0.00     0.017 A 
BRANCH  29  34
HETATM   34  O   UNL     1     -45.836  60.093 -54.795  1.00  0.00    -0.360 OA
HETATM   35  H   UNL     1     -45.232  60.004 -55.569  1.00  0.00     0.217 HD
ENDBRANCH  29  34
ENDBRANCH  10  28
TORSDOF 8
ENDMDL
MODEL 6
REMARK VINA RESULT:      -7.0      2.800      7.402
REMARK  8 active torsions:
REMARK  status: ('A' for Active; 'I' for Inactive)
REMARK    1  A    between atoms: C_2  and  C_3 
REMARK    2  A    between atoms: C_3  and  O_4 
REMARK    3  A    between atoms: O_4  and  C_5 
REMARK    4  A    between atoms: C_7  and  C_8 
REMARK    5  A    between atoms: N_9  and  C_10 
REMARK    6  A    between atoms: C_10  and  C_11 
REMARK    7  A    between atoms: C_24  and  C_25 
REMARK    8  A    between atoms: C_26  and  O_27 
ROOT
HETATM    1  C   UNL     1     -43.877  57.764 -53.168  1.00  0.00     0.159 A 
HETATM    2  N   UNL     1     -44.410  58.946 -52.437  1.00  0.00    -0.329 N 
HETATM    3  C   UNL     1     -43.668  59.295 -51.307  1.00  0.00     0.273 A 
HETATM    4  O   UNL     1     -43.891  60.172 -50.493  1.00  0.00    -0.266 OA
HETATM    5  C   UNL     1     -42.606  58.363 -51.309  1.00  0.00     0.129 A 
HETATM    6  C   UNL     1     -42.687  57.468 -52.337  1.00  0.00     0.034 A 
HETATM    7  N   UNL     1     -41.515  58.073 -50.590  1.00  0.00    -0.272 N 
HETATM    8  H   UNL     1     -41.150  58.536 -49.763  1.00  0.00     0.189 HD
HETATM    9  N   UNL     1     -40.853  57.003 -51.102  1.00  0.00    -0.173 NA
HETATM   10  C   UNL     1     -41.600  56.593 -52.162  1.00  0.00     0.101 A 
ENDROOT
BRANCH   1  11
HETATM   11  C   UNL     1     -43.405  58.085 -54.567  1.00  0.00    -0.028 A 
HETATM   12  C   UNL     1     -43.871  57.387 -55.697  1.00  0.00     0.046 A 
HETATM   13  C   UNL     1     -43.415  57.689 -56.984  1.00  0.00     0.069 A 
HETATM   14  C   UNL     1     -42.484  58.710 -57.157  1.00  0.00     0.037 A 
HETATM   15  C   UNL     1     -42.004  59.411 -56.049  1.00  0.00     0.003 A 
HETATM   16  C   UNL     1     -42.455  59.098 -54.764  1.00  0.00     0.010 A 
BRANCH  13  17
HETATM   17  O   UNL     1     -43.960  56.916 -57.973  1.00  0.00    -0.348 OA
BRANCH  17  18
HETATM   18  C   UNL     1     -43.155  55.861 -58.493  1.00  0.00     0.202 C 
BRANCH  18  19
HETATM   19  C   UNL     1     -43.950  55.187 -59.572  1.00  0.00    -0.011 C 
HETATM   20  C   UNL     1     -44.606  55.824 -60.551  1.00  0.00     0.009 C 
ENDBRANCH  18  19
ENDBRANCH  17  18
ENDBRANCH  13  17
ENDBRANCH   1  11
BRANCH   2  21
HETATM   21  C   UNL     1     -45.679  59.554 -52.773  1.00  0.00     0.167 C 
BRANCH  21  22
HETATM   22  C   UNL     1     -45.506  60.779 -53.626  1.00  0.00    -0.023 A 
HETATM   23  C   UNL     1     -45.219  62.015 -53.059  1.00  0.00     0.125 A 
HETATM   24  N   UNL     1     -45.023  63.148 -53.771  1.00  0.00    -0.273 NA
HETATM   25  C   UNL     1     -45.128  63.048 -55.114  1.00  0.00     0.116 A 
HETATM   26  C   UNL     1     -45.415  61.867 -55.777  1.00  0.00     0.020 A 
HETATM   27  C   UNL     1     -45.604  60.717 -55.019  1.00  0.00     0.012 A 
ENDBRANCH  21  22
ENDBRANCH   2  21
BRANCH  10  28
HETATM   28  C   UNL     1     -41.208  55.413 -52.939  1.00  0.00     0.028 A 
HETATM   29  C   UNL     1     -41.229  54.124 -52.374  1.00  0.00     0.078 A 
HETATM   30  C   UNL     1     -40.831  53.005 -53.104  1.00  0.00     0.037 A 
HETATM   31  C   UNL     1     -40.421  53.150 -54.427  1.00  0.00     0.003 A 
HETATM   32  C   UNL     1     -40.418  54.412 -55.016  1.00  0.00     0.001 A 
HETATM   33  C   UNL     1     -40.813  55.535 -54.279  1.00  0.00     0.017 A 
BRANCH  29  34
HETATM   34  O   UNL     1     -41.648  53.890 -51.089  1.00  0.00    -0.360 OA
HETATM   35  H   UNL     1     -42.433  54.469 -50.950  1.00  0.00     0.217 HD
ENDBRANCH  29  34
ENDBRANCH  10  28
TORSDOF 8
ENDMDL
MODEL 7
REMARK VINA RESULT:      -6.8      2.261      6.640
REMARK  8 active torsions:
REMARK  status: ('A' for Active; 'I' for Inactive)
REMARK    1  A    between atoms: C_2  and  C_3 
REMARK    2  A    between atoms: C_3  and  O_4 
REMARK    3  A    between atoms: O_4  and  C_5 
REMARK    4  A    between atoms: C_7  and  C_8 
REMARK    5  A    between atoms: N_9  and  C_10 
REMARK    6  A    between atoms: C_10  and  C_11 
REMARK    7  A    between atoms: C_24  and  C_25 
REMARK    8  A    between atoms: C_26  and  O_27 
ROOT
HETATM    1  C   UNL     1     -41.959  57.780 -53.885  1.00  0.00     0.159 A 
HETATM    2  N   UNL     1     -42.697  58.209 -55.105  1.00  0.00    -0.329 N 
HETATM    3  C   UNL     1     -43.590  57.252 -55.592  1.00  0.00     0.273 A 
HETATM    4  O   UNL     1     -44.282  57.298 -56.592  1.00  0.00    -0.266 OA
HETATM    5  C   UNL     1     -43.476  56.192 -54.663  1.00  0.00     0.129 A 
HETATM    6  C   UNL     1     -42.557  56.440 -53.685  1.00  0.00     0.034 A 
HETATM    7  N   UNL     1     -44.003  54.982 -54.442  1.00  0.00    -0.272 N 
HETATM    8  H   UNL     1     -44.716  54.486 -54.969  1.00  0.00     0.189 HD
HETATM    9  N   UNL     1     -43.464  54.399 -53.339  1.00  0.00    -0.173 NA
HETATM   10  C   UNL     1     -42.531  55.281 -52.888  1.00  0.00     0.101 A 
ENDROOT
BRANCH   1  11
HETATM   11  C   UNL     1     -42.270  58.620 -52.668  1.00  0.00    -0.028 A 
HETATM   12  C   UNL     1     -43.587  58.823 -52.211  1.00  0.00     0.046 A 
HETATM   13  C   UNL     1     -43.858  59.613 -51.089  1.00  0.00     0.069 A 
HETATM   14  C   UNL     1     -42.804  60.210 -50.402  1.00  0.00     0.037 A 
HETATM   15  C   UNL     1     -41.492  60.027 -50.843  1.00  0.00     0.003 A 
HETATM   16  C   UNL     1     -41.227  59.245 -51.970  1.00  0.00     0.010 A 
BRANCH  13  17
HETATM   17  O   UNL     1     -45.187  59.715 -50.778  1.00  0.00    -0.348 OA
BRANCH  17  18
HETATM   18  C   UNL     1     -45.991  60.542 -51.616  1.00  0.00     0.202 C 
BRANCH  18  19
HETATM   19  C   UNL     1     -46.305  61.787 -50.842  1.00  0.00    -0.011 C 
HETATM   20  C   UNL     1     -45.595  62.922 -50.897  1.00  0.00     0.009 C 
ENDBRANCH  18  19
ENDBRANCH  17  18
ENDBRANCH  13  17
ENDBRANCH   1  11
BRANCH   2  21
HETATM   21  C   UNL     1     -42.379  59.429 -55.811  1.00  0.00     0.167 C 
BRANCH  21  22
HETATM   22  C   UNL     1     -43.279  60.563 -55.409  1.00  0.00    -0.023 A 
HETATM   23  C   UNL     1     -44.556  60.691 -55.942  1.00  0.00     0.125 A 
HETATM   24  N   UNL     1     -45.426  61.669 -55.599  1.00  0.00    -0.273 NA
HETATM   25  C   UNL     1     -44.999  62.571 -54.690  1.00  0.00     0.116 A 
HETATM   26  C   UNL     1     -43.746  62.537 -54.102  1.00  0.00     0.020 A 
HETATM   27  C   UNL     1     -42.876  61.516 -54.468  1.00  0.00     0.012 A 
ENDBRANCH  21  22
ENDBRANCH   2  21
BRANCH  10  28
HETATM   28  C   UNL     1     -41.704  54.959 -51.721  1.00  0.00     0.028 A 
HETATM   29  C   UNL     1     -40.744  53.931 -51.765  1.00  0.00     0.078 A 
HETATM   30  C   UNL     1     -39.976  53.607 -50.647  1.00  0.00     0.037 A 
HETATM   31  C   UNL     1     -40.139  54.323 -49.463  1.00  0.00     0.003 A 
HETATM   32  C   UNL     1     -41.063  55.363 -49.404  1.00  0.00     0.001 A 
HETATM   33  C   UNL     1     -41.837  55.682 -50.527  1.00  0.00     0.017 A 
BRANCH  29  34
HETATM   34  O   UNL     1     -40.500  53.199 -52.899  1.00  0.00    -0.360 OA
HETATM   35  H   UNL     1     -39.681  53.578 -53.295  1.00  0.00     0.217 HD
ENDBRANCH  29  34
ENDBRANCH  10  28
TORSDOF 8
ENDMDL
MODEL 8
REMARK VINA RESULT:      -6.8     17.116     20.087
REMARK  8 active torsions:
REMARK  status: ('A' for Active; 'I' for Inactive)
REMARK    1  A    between atoms: C_2  and  C_3 
REMARK    2  A    between atoms: C_3  and  O_4 
REMARK    3  A    between atoms: O_4  and  C_5 
REMARK    4  A    between atoms: C_7  and  C_8 
REMARK    5  A    between atoms: N_9  and  C_10 
REMARK    6  A    between atoms: C_10  and  C_11 
REMARK    7  A    between atoms: C_24  and  C_25 
REMARK    8  A    between atoms: C_26  and  O_27 
ROOT
HETATM    1  C   UNL     1     -35.379  39.303 -56.222  1.00  0.00     0.159 A 
HETATM    2  N   UNL     1     -35.661  39.570 -57.659  1.00  0.00    -0.329 N 
HETATM    3  C   UNL     1     -36.359  40.758 -57.888  1.00  0.00     0.273 A 
HETATM    4  O   UNL     1     -36.771  41.206 -58.942  1.00  0.00    -0.266 OA
HETATM    5  C   UNL     1     -36.506  41.308 -56.594  1.00  0.00     0.129 A 
HETATM    6  C   UNL     1     -35.978  40.516 -55.617  1.00  0.00     0.034 A 
HETATM    7  N   UNL     1     -37.024  42.397 -56.012  1.00  0.00    -0.272 N 
HETATM    8  H   UNL     1     -37.489  43.193 -56.439  1.00  0.00     0.189 HD
HETATM    9  N   UNL     1     -36.863  42.363 -54.664  1.00  0.00    -0.173 NA
HETATM   10  C   UNL     1     -36.253  41.175 -54.405  1.00  0.00     0.101 A 
ENDROOT
BRANCH   1  11
HETATM   11  C   UNL     1     -33.906  39.291 -55.891  1.00  0.00    -0.028 A 
HETATM   12  C   UNL     1     -33.392  38.610 -54.771  1.00  0.00     0.046 A 
HETATM   13  C   UNL     1     -32.025  38.618 -54.472  1.00  0.00     0.069 A 
HETATM   14  C   UNL     1     -31.148  39.309 -55.305  1.00  0.00     0.037 A 
HETATM   15  C   UNL     1     -31.638  39.996 -56.417  1.00  0.00     0.003 A 
HETATM   16  C   UNL     1     -33.005  39.992 -56.705  1.00  0.00     0.010 A 
BRANCH  13  17
HETATM   17  O   UNL     1     -31.688  37.915 -53.348  1.00  0.00    -0.348 OA
BRANCH  17  18
HETATM   18  C   UNL     1     -32.406  38.212 -52.153  1.00  0.00     0.202 C 
BRANCH  18  19
HETATM   19  C   UNL     1     -31.899  39.529 -51.645  1.00  0.00    -0.011 C 
HETATM   20  C   UNL     1     -31.674  39.818 -50.357  1.00  0.00     0.009 C 
ENDBRANCH  18  19
ENDBRANCH  17  18
ENDBRANCH  13  17
ENDBRANCH   1  11
BRANCH   2  21
HETATM   21  C   UNL     1     -35.392  38.596 -58.693  1.00  0.00     0.167 C 
BRANCH  21  22
HETATM   22  C   UNL     1     -36.649  37.933 -59.181  1.00  0.00    -0.023 A 
HETATM   23  C   UNL     1     -36.981  37.925 -60.531  1.00  0.00     0.125 A 
HETATM   24  N   UNL     1     -38.080  37.321 -61.038  1.00  0.00    -0.273 NA
HETATM   25  C   UNL     1     -38.896  36.704 -60.156  1.00  0.00     0.116 A 
HETATM   26  C   UNL     1     -38.660  36.658 -58.793  1.00  0.00     0.020 A 
HETATM   27  C   UNL     1     -37.518  37.281 -58.301  1.00  0.00     0.012 A 
ENDBRANCH  21  22
ENDBRANCH   2  21
BRANCH  10  28
HETATM   28  C   UNL     1     -35.961  40.771 -53.026  1.00  0.00     0.028 A 
HETATM   29  C   UNL     1     -35.341  41.652 -52.121  1.00  0.00     0.078 A 
HETATM   30  C   UNL     1     -35.040  41.260 -50.817  1.00  0.00     0.037 A 
HETATM   31  C   UNL     1     -35.373  39.978 -50.385  1.00  0.00     0.003 A 
HETATM   32  C   UNL     1     -36.013  39.098 -51.255  1.00  0.00     0.001 A 
HETATM   33  C   UNL     1     -36.309  39.494 -52.565  1.00  0.00     0.017 A 
BRANCH  29  34
HETATM   34  O   UNL     1     -35.008  42.940 -52.457  1.00  0.00    -0.360 OA
HETATM   35  H   UNL     1     -35.593  43.521 -51.918  1.00  0.00     0.217 HD
ENDBRANCH  29  34
ENDBRANCH  10  28
TORSDOF 8
ENDMDL
MODEL 9
REMARK VINA RESULT:      -6.7      2.363      5.553
REMARK  8 active torsions:
REMARK  status: ('A' for Active; 'I' for Inactive)
REMARK    1  A    between atoms: C_2  and  C_3 
REMARK    2  A    between atoms: C_3  and  O_4 
REMARK    3  A    between atoms: O_4  and  C_5 
REMARK    4  A    between atoms: C_7  and  C_8 
REMARK    5  A    between atoms: N_9  and  C_10 
REMARK    6  A    between atoms: C_10  and  C_11 
REMARK    7  A    between atoms: C_24  and  C_25 
REMARK    8  A    between atoms: C_26  and  O_27 
ROOT
HETATM    1  C   UNL     1     -41.997  57.133 -53.180  1.00  0.00     0.159 A 
HETATM    2  N   UNL     1     -42.068  55.654 -53.332  1.00  0.00    -0.329 N 
HETATM    3  C   UNL     1     -43.085  55.055 -52.585  1.00  0.00     0.273 A 
HETATM    4  O   UNL     1     -43.347  53.873 -52.469  1.00  0.00    -0.266 OA
HETATM    5  C   UNL     1     -43.724  56.151 -51.962  1.00  0.00     0.129 A 
HETATM    6  C   UNL     1     -43.138  57.347 -52.259  1.00  0.00     0.034 A 
HETATM    7  N   UNL     1     -44.756  56.386 -51.142  1.00  0.00    -0.272 N 
HETATM    8  H   UNL     1     -45.411  55.727 -50.730  1.00  0.00     0.189 HD
HETATM    9  N   UNL     1     -44.884  57.711 -50.872  1.00  0.00    -0.173 NA
HETATM   10  C   UNL     1     -43.854  58.312 -51.527  1.00  0.00     0.101 A 
ENDROOT
BRANCH   1  11
HETATM   11  C   UNL     1     -42.280  57.883 -54.461  1.00  0.00    -0.028 A 
HETATM   12  C   UNL     1     -42.946  57.288 -55.550  1.00  0.00     0.046 A 
HETATM   13  C   UNL     1     -43.190  57.993 -56.733  1.00  0.00     0.069 A 
HETATM   14  C   UNL     1     -42.771  59.317 -56.838  1.00  0.00     0.037 A 
HETATM   15  C   UNL     1     -42.102  59.923 -55.772  1.00  0.00     0.003 A 
HETATM   16  C   UNL     1     -41.853  59.211 -54.597  1.00  0.00     0.010 A 
BRANCH  13  17
HETATM   17  O   UNL     1     -43.842  57.272 -57.696  1.00  0.00    -0.348 OA
BRANCH  17  18
HETATM   18  C   UNL     1     -43.277  56.016 -58.064  1.00  0.00     0.202 C 
BRANCH  18  19
HETATM   19  C   UNL     1     -42.740  56.162 -59.457  1.00  0.00    -0.011 C 
HETATM   20  C   UNL     1     -42.998  57.192 -60.273  1.00  0.00     0.009 C 
ENDBRANCH  18  19
ENDBRANCH  17  18
ENDBRANCH  13  17
ENDBRANCH   1  11
BRANCH   2  21
HETATM   21  C   UNL     1     -41.060  54.902 -54.047  1.00  0.00     0.167 C 
BRANCH  21  22
HETATM   22  C   UNL     1     -40.513  53.772 -53.222  1.00  0.00    -0.023 A 
HETATM   23  C   UNL     1     -40.235  53.936 -51.870  1.00  0.00     0.125 A 
HETATM   24  N   UNL     1     -39.770  52.953 -51.066  1.00  0.00    -0.273 NA
HETATM   25  C   UNL     1     -39.561  51.748 -51.639  1.00  0.00     0.116 A 
HETATM   26  C   UNL     1     -39.801  51.480 -52.975  1.00  0.00     0.020 A 
HETATM   27  C   UNL     1     -40.285  52.508 -53.776  1.00  0.00     0.012 A 
ENDBRANCH  21  22
ENDBRANCH   2  21
BRANCH  10  28
HETATM   28  C   UNL     1     -43.646  59.759 -51.422  1.00  0.00     0.028 A 
HETATM   29  C   UNL     1     -42.692  60.300 -50.540  1.00  0.00     0.078 A 
HETATM   30  C   UNL     1     -42.512  61.677 -50.421  1.00  0.00     0.037 A 
HETATM   31  C   UNL     1     -43.274  62.546 -51.200  1.00  0.00     0.003 A 
HETATM   32  C   UNL     1     -44.205  62.033 -52.100  1.00  0.00     0.001 A 
HETATM   33  C   UNL     1     -44.386  60.649 -52.213  1.00  0.00     0.017 A 
BRANCH  29  34
HETATM   34  O   UNL     1     -41.881  59.515 -49.761  1.00  0.00    -0.360 OA
HETATM   35  H   UNL     1     -41.733  60.020 -48.928  1.00  0.00     0.217 HD
ENDBRANCH  29  34
ENDBRANCH  10  28
TORSDOF 8
ENDMDL
MODEL 10
REMARK VINA RESULT:      -6.7     16.712     19.930
REMARK  8 active torsions:
REMARK  status: ('A' for Active; 'I' for Inactive)
REMARK    1  A    between atoms: C_2  and  C_3 
REMARK    2  A    between atoms: C_3  and  O_4 
REMARK    3  A    between atoms: O_4  and  C_5 
REMARK    4  A    between atoms: C_7  and  C_8 
REMARK    5  A    between atoms: N_9  and  C_10 
REMARK    6  A    between atoms: C_10  and  C_11 
REMARK    7  A    between atoms: C_24  and  C_25 
REMARK    8  A    between atoms: C_26  and  O_27 
ROOT
HETATM    1  C   UNL     1     -37.429  38.915 -58.057  1.00  0.00     0.159 A 
HETATM    2  N   UNL     1     -37.515  38.718 -59.531  1.00  0.00    -0.329 N 
HETATM    3  C   UNL     1     -37.386  39.897 -60.268  1.00  0.00     0.273 A 
HETATM    4  O   UNL     1     -37.468  40.053 -61.472  1.00  0.00    -0.266 OA
HETATM    5  C   UNL     1     -37.170  40.882 -59.278  1.00  0.00     0.129 A 
HETATM    6  C   UNL     1     -37.197  40.377 -58.011  1.00  0.00     0.034 A 
HETATM    7  N   UNL     1     -36.945  42.200 -59.196  1.00  0.00    -0.272 N 
HETATM    8  H   UNL     1     -36.859  42.884 -59.942  1.00  0.00     0.189 HD
HETATM    9  N   UNL     1     -36.821  42.603 -57.905  1.00  0.00    -0.173 NA
HETATM   10  C   UNL     1     -37.021  41.483 -57.159  1.00  0.00     0.101 A 
ENDROOT
BRANCH   1  11
HETATM   11  C   UNL     1     -36.239  38.229 -57.428  1.00  0.00    -0.028 A 
HETATM   12  C   UNL     1     -34.920  38.467 -57.859  1.00  0.00     0.046 A 
HETATM   13  C   UNL     1     -33.830  37.815 -57.273  1.00  0.00     0.069 A 
HETATM   14  C   UNL     1     -34.050  36.914 -56.234  1.00  0.00     0.037 A 
HETATM   15  C   UNL     1     -35.351  36.659 -55.797  1.00  0.00     0.003 A 
HETATM   16  C   UNL     1     -36.437  37.306 -56.392  1.00  0.00     0.010 A 
BRANCH  13  17
HETATM   17  O   UNL     1     -32.616  38.151 -57.808  1.00  0.00    -0.348 OA
BRANCH  17  18
HETATM   18  C   UNL     1     -31.593  38.555 -56.901  1.00  0.00     0.202 C 
BRANCH  18  19
HETATM   19  C   UNL     1     -31.908  39.958 -56.472  1.00  0.00    -0.011 C 
HETATM   20  C   UNL     1     -32.381  40.302 -55.268  1.00  0.00     0.009 C 
ENDBRANCH  18  19
ENDBRANCH  17  18
ENDBRANCH  13  17
ENDBRANCH   1  11
BRANCH   2  21
HETATM   21  C   UNL     1     -37.879  37.449 -60.121  1.00  0.00     0.167 C 
BRANCH  21  22
HETATM   22  C   UNL     1     -39.359  37.341 -60.353  1.00  0.00    -0.023 A 
HETATM   23  C   UNL     1     -39.937  37.793 -61.533  1.00  0.00     0.125 A 
HETATM   24  N   UNL     1     -41.256  37.698 -61.817  1.00  0.00    -0.273 NA
HETATM   25  C   UNL     1     -42.041  37.135 -60.873  1.00  0.00     0.116 A 
HETATM   26  C   UNL     1     -41.568  36.658 -59.663  1.00  0.00     0.020 A 
HETATM   27  C   UNL     1     -40.206  36.762 -59.403  1.00  0.00     0.012 A 
ENDBRANCH  21  22
ENDBRANCH   2  21
BRANCH  10  28
HETATM   28  C   UNL     1     -37.007  41.550 -55.694  1.00  0.00     0.028 A 
HETATM   29  C   UNL     1     -35.948  42.163 -54.999  1.00  0.00     0.078 A 
HETATM   30  C   UNL     1     -35.922  42.204 -53.605  1.00  0.00     0.037 A 
HETATM   31  C   UNL     1     -36.971  41.648 -52.876  1.00  0.00     0.003 A 
HETATM   32  C   UNL     1     -38.044  41.060 -53.543  1.00  0.00     0.001 A 
HETATM   33  C   UNL     1     -38.064  41.016 -54.943  1.00  0.00     0.017 A 
BRANCH  29  34
HETATM   34  O   UNL     1     -34.893  42.760 -55.641  1.00  0.00    -0.360 OA
HETATM   35  H   UNL     1     -35.287  43.300 -56.365  1.00  0.00     0.217 HD
ENDBRANCH  29  34
ENDBRANCH  10  28
TORSDOF 8
ENDMDL
