MODEL 1
REMARK VINA RESULT:      -8.2      0.000      0.000
REMARK  4 active torsions:
REMARK  status: ('A' for Active; 'I' for Inactive)
REMARK    1  A    between atoms: C_5  and  C_6 
REMARK    2  A    between atoms: C_6  and  N_7 
REMARK    3  A    between atoms: C_6  and  C_18 
REMARK    4  A    between atoms: N_7  and  C_8 
ROOT
HETATM    1  C   UNL     1     -41.438  55.833 -54.074  1.00  0.00     0.290 C 
ENDROOT
BRANCH   1   2
HETATM    2  C   UNL     1     -40.891  54.508 -53.561  1.00  0.00     0.021 A 
HETATM    3  C   UNL     1     -40.902  54.143 -52.203  1.00  0.00     0.055 A 
HETATM    4  C   UNL     1     -40.406  52.905 -51.797  1.00  0.00     0.117 A 
HETATM    5  C   UNL     1     -39.887  52.001 -52.715  1.00  0.00     0.045 A 
HETATM    6  F   UNL     1     -40.439  52.586 -50.498  1.00  0.00    -0.206 F 
HETATM    7  C   UNL     1     -39.871  52.339 -54.065  1.00  0.00     0.046 A 
HETATM    8  C   UNL     1     -40.374  53.574 -54.474  1.00  0.00     0.125 A 
HETATM    9  F   UNL     1     -40.368  53.857 -55.785  1.00  0.00    -0.205 F 
ENDBRANCH   1   2
BRANCH   1  10
HETATM   10  N   UNL     1     -42.723  55.675 -54.807  1.00  0.00     0.101 NA
HETATM   11  H   UNL     1     -43.443  56.071 -54.197  1.00  0.00     0.317 HD
BRANCH  10  12
HETATM   12  C   UNL     1     -42.864  56.214 -56.163  1.00  0.00     0.225 C 
HETATM   13  C   UNL     1     -43.231  55.156 -57.227  1.00  0.00     0.069 C 
HETATM   14  C   UNL     1     -43.489  55.827 -58.563  1.00  0.00     0.190 C 
HETATM   15  N   UNL     1     -44.625  56.798 -58.396  1.00  0.00    -0.067 N 
HETATM   16  C   UNL     1     -44.006  54.954 -59.687  1.00  0.00     0.035 C 
HETATM   17  H   UNL     1     -45.417  56.284 -57.979  1.00  0.00     0.280 HD
HETATM   18  C   UNL     1     -44.282  57.913 -57.466  1.00  0.00     0.237 C 
HETATM   19  C   UNL     1     -45.055  57.161 -59.792  1.00  0.00     0.235 C 
HETATM   20  C   UNL     1     -43.959  57.309 -56.101  1.00  0.00     0.063 C 
HETATM   21  C   UNL     1     -44.618  55.970 -60.647  1.00  0.00     0.030 C 
ENDBRANCH  10  12
ENDBRANCH   1  10
BRANCH   1  22
HETATM   22  C   UNL     1     -41.412  57.046 -53.141  1.00  0.00    -0.018 A 
HETATM   23  C   UNL     1     -40.422  58.036 -53.176  1.00  0.00     0.029 A 
HETATM   24  C   UNL     1     -40.498  59.102 -52.290  1.00  0.00     0.116 A 
HETATM   25  N   UNL     1     -41.491  59.264 -51.393  1.00  0.00    -0.273 NA
HETATM   26  C   UNL     1     -42.479  58.351 -51.413  1.00  0.00     0.116 A 
HETATM   27  C   UNL     1     -42.485  57.251 -52.256  1.00  0.00     0.029 A 
ENDBRANCH   1  22
TORSDOF 4
ENDMDL
MODEL 2
REMARK VINA RESULT:      -8.1      2.398      3.938
REMARK  4 active torsions:
REMARK  status: ('A' for Active; 'I' for Inactive)
REMARK    1  A    between atoms: C_5  and  C_6 
REMARK    2  A    between atoms: C_6  and  N_7 
REMARK    3  A    between atoms: C_6  and  C_18 
REMARK    4  A    between atoms: N_7  and  C_8 
ROOT
HETATM    1  C   UNL     1     -40.460  53.814 -52.954  1.00  0.00     0.290 C 
ENDROOT
BRANCH   1   2
HETATM    2  C   UNL     1     -40.157  52.322 -52.945  1.00  0.00     0.021 A 
HETATM    3  C   UNL     1     -40.187  51.523 -54.101  1.00  0.00     0.055 A 
HETATM    4  C   UNL     1     -39.879  50.165 -54.033  1.00  0.00     0.117 A 
HETATM    5  C   UNL     1     -39.536  49.564 -52.829  1.00  0.00     0.045 A 
HETATM    6  F   UNL     1     -39.909  49.434 -55.154  1.00  0.00    -0.206 F 
HETATM    7  C   UNL     1     -39.493  50.338 -51.672  1.00  0.00     0.046 A 
HETATM    8  C   UNL     1     -39.795  51.698 -51.740  1.00  0.00     0.125 A 
HETATM    9  F   UNL     1     -39.719  52.420 -50.613  1.00  0.00    -0.205 F 
ENDBRANCH   1   2
BRANCH   1  10
HETATM   10  N   UNL     1     -40.552  54.370 -54.331  1.00  0.00     0.101 NA
HETATM   11  H   UNL     1     -40.611  53.561 -54.955  1.00  0.00     0.317 HD
BRANCH  10  12
HETATM   12  C   UNL     1     -41.605  55.336 -54.663  1.00  0.00     0.225 C 
HETATM   13  C   UNL     1     -41.179  56.812 -54.505  1.00  0.00     0.069 C 
HETATM   14  C   UNL     1     -42.282  57.728 -55.001  1.00  0.00     0.190 C 
HETATM   15  N   UNL     1     -42.537  57.423 -56.451  1.00  0.00    -0.067 N 
HETATM   16  C   UNL     1     -41.975  59.210 -55.058  1.00  0.00     0.035 C 
HETATM   17  H   UNL     1     -41.635  57.481 -56.948  1.00  0.00     0.280 HD
HETATM   18  C   UNL     1     -43.067  56.043 -56.652  1.00  0.00     0.237 C 
HETATM   19  C   UNL     1     -43.367  58.570 -56.965  1.00  0.00     0.235 C 
HETATM   20  C   UNL     1     -42.026  55.055 -56.129  1.00  0.00     0.063 C 
HETATM   21  C   UNL     1     -43.028  59.734 -56.032  1.00  0.00     0.030 C 
ENDBRANCH  10  12
ENDBRANCH   1  10
BRANCH   1  22
HETATM   22  C   UNL     1     -41.537  54.349 -52.006  1.00  0.00    -0.018 A 
HETATM   23  C   UNL     1     -42.820  53.800 -51.895  1.00  0.00     0.029 A 
HETATM   24  C   UNL     1     -43.719  54.357 -50.996  1.00  0.00     0.116 A 
HETATM   25  N   UNL     1     -43.429  55.398 -50.190  1.00  0.00    -0.273 NA
HETATM   26  C   UNL     1     -42.172  55.875 -50.246  1.00  0.00     0.116 A 
HETATM   27  C   UNL     1     -41.210  55.388 -51.117  1.00  0.00     0.029 A 
ENDBRANCH   1  22
TORSDOF 4
ENDMDL
MODEL 3
REMARK VINA RESULT:      -7.9      2.318      6.342
REMARK  4 active torsions:
REMARK  status: ('A' for Active; 'I' for Inactive)
REMARK    1  A    between atoms: C_5  and  C_6 
REMARK    2  A    between atoms: C_6  and  N_7 
REMARK    3  A    between atoms: C_6  and  C_18 
REMARK    4  A    between atoms: N_7  and  C_8 
ROOT
HETATM    1  C   UNL     1     -42.490  56.043 -54.480  1.00  0.00     0.290 C 
ENDROOT
BRANCH   1   2
HETATM    2  C   UNL     1     -42.577  56.448 -55.946  1.00  0.00     0.021 A 
HETATM    3  C   UNL     1     -42.258  57.736 -56.410  1.00  0.00     0.055 A 
HETATM    4  C   UNL     1     -42.336  58.040 -57.768  1.00  0.00     0.117 A 
HETATM    5  C   UNL     1     -42.730  57.087 -58.698  1.00  0.00     0.045 A 
HETATM    6  F   UNL     1     -42.017  59.274 -58.177  1.00  0.00    -0.206 F 
HETATM    7  C   UNL     1     -43.046  55.803 -58.261  1.00  0.00     0.046 A 
HETATM    8  C   UNL     1     -42.961  55.495 -56.903  1.00  0.00     0.125 A 
HETATM    9  F   UNL     1     -43.245  54.243 -56.520  1.00  0.00    -0.205 F 
ENDBRANCH   1   2
BRANCH   1  10
HETATM   10  N   UNL     1     -41.218  55.343 -54.156  1.00  0.00     0.101 NA
HETATM   11  H   UNL     1     -40.701  55.974 -53.539  1.00  0.00     0.317 HD
BRANCH  10  12
HETATM   12  C   UNL     1     -41.250  53.995 -53.580  1.00  0.00     0.225 C 
HETATM   13  C   UNL     1     -40.585  52.915 -54.462  1.00  0.00     0.069 C 
HETATM   14  C   UNL     1     -40.546  51.591 -53.724  1.00  0.00     0.190 C 
HETATM   15  N   UNL     1     -39.753  51.774 -52.460  1.00  0.00    -0.067 N 
HETATM   16  C   UNL     1     -39.794  50.454 -54.385  1.00  0.00     0.035 C 
HETATM   17  H   UNL     1     -38.842  52.183 -52.717  1.00  0.00     0.280 HD
HETATM   18  C   UNL     1     -40.414  52.720 -51.514  1.00  0.00     0.237 C 
HETATM   19  C   UNL     1     -39.458  50.383 -51.963  1.00  0.00     0.235 C 
HETATM   20  C   UNL     1     -40.535  54.075 -52.206  1.00  0.00     0.063 C 
HETATM   21  C   UNL     1     -39.518  49.510 -53.217  1.00  0.00     0.030 C 
ENDBRANCH  10  12
ENDBRANCH   1  10
BRANCH   1  22
HETATM   22  C   UNL     1     -42.919  57.054 -53.415  1.00  0.00    -0.018 A 
HETATM   23  C   UNL     1     -44.252  57.399 -53.158  1.00  0.00     0.029 A 
HETATM   24  C   UNL     1     -44.533  58.323 -52.161  1.00  0.00     0.116 A 
HETATM   25  N   UNL     1     -43.593  58.908 -51.391  1.00  0.00    -0.273 NA
HETATM   26  C   UNL     1     -42.321  58.518 -51.590  1.00  0.00     0.116 A 
HETATM   27  C   UNL     1     -41.945  57.608 -52.566  1.00  0.00     0.029 A 
ENDBRANCH   1  22
TORSDOF 4
ENDMDL
MODEL 4
REMARK VINA RESULT:      -7.8      2.659      6.816
REMARK  4 active torsions:
REMARK  status: ('A' for Active; 'I' for Inactive)
REMARK    1  A    between atoms: C_5  and  C_6 
REMARK    2  A    between atoms: C_6  and  N_7 
REMARK    3  A    between atoms: C_6  and  C_18 
REMARK    4  A    between atoms: N_7  and  C_8 
ROOT
HETATM    1  C   UNL     1     -42.754  56.841 -56.038  1.00  0.00     0.290 C 
ENDROOT
BRANCH   1   2
HETATM    2  C   UNL     1     -42.713  58.183 -55.319  1.00  0.00     0.021 A 
HETATM    3  C   UNL     1     -43.655  59.203 -55.537  1.00  0.00     0.055 A 
HETATM    4  C   UNL     1     -43.578  60.403 -54.831  1.00  0.00     0.117 A 
HETATM    5  C   UNL     1     -42.573  60.626 -53.899  1.00  0.00     0.045 A 
HETATM    6  F   UNL     1     -44.496  61.350 -55.056  1.00  0.00    -0.206 F 
HETATM    7  C   UNL     1     -41.632  59.627 -53.663  1.00  0.00     0.046 A 
HETATM    8  C   UNL     1     -41.713  58.423 -54.363  1.00  0.00     0.125 A 
HETATM    9  F   UNL     1     -40.808  57.472 -54.092  1.00  0.00    -0.205 F 
ENDBRANCH   1   2
BRANCH   1  10
HETATM   10  N   UNL     1     -43.755  55.910 -55.453  1.00  0.00     0.101 NA
HETATM   11  H   UNL     1     -44.318  55.574 -56.239  1.00  0.00     0.317 HD
BRANCH  10  12
HETATM   12  C   UNL     1     -43.312  54.776 -54.634  1.00  0.00     0.225 C 
HETATM   13  C   UNL     1     -41.944  54.194 -55.052  1.00  0.00     0.069 C 
HETATM   14  C   UNL     1     -41.511  53.124 -54.067  1.00  0.00     0.190 C 
HETATM   15  N   UNL     1     -41.405  53.747 -52.703  1.00  0.00    -0.067 N 
HETATM   16  C   UNL     1     -40.121  52.548 -54.241  1.00  0.00     0.035 C 
HETATM   17  H   UNL     1     -40.792  54.573 -52.782  1.00  0.00     0.280 HD
HETATM   18  C   UNL     1     -42.726  54.222 -52.197  1.00  0.00     0.237 C 
HETATM   19  C   UNL     1     -40.652  52.751 -51.861  1.00  0.00     0.235 C 
HETATM   20  C   UNL     1     -43.255  55.275 -53.167  1.00  0.00     0.063 C 
HETATM   21  C   UNL     1     -39.836  51.940 -52.869  1.00  0.00     0.030 C 
ENDBRANCH  10  12
ENDBRANCH   1  10
BRANCH   1  22
HETATM   22  C   UNL     1     -42.730  56.829 -57.568  1.00  0.00    -0.018 A 
HETATM   23  C   UNL     1     -42.110  57.814 -58.347  1.00  0.00     0.029 A 
HETATM   24  C   UNL     1     -42.140  57.703 -59.730  1.00  0.00     0.116 A 
HETATM   25  N   UNL     1     -42.718  56.679 -60.390  1.00  0.00    -0.273 NA
HETATM   26  C   UNL     1     -43.248  55.697 -59.637  1.00  0.00     0.116 A 
HETATM   27  C   UNL     1     -43.271  55.726 -58.252  1.00  0.00     0.029 A 
ENDBRANCH   1  22
TORSDOF 4
ENDMDL
MODEL 5
REMARK VINA RESULT:      -7.7      2.166      4.434
REMARK  4 active torsions:
REMARK  status: ('A' for Active; 'I' for Inactive)
REMARK    1  A    between atoms: C_5  and  C_6 
REMARK    2  A    between atoms: C_6  and  N_7 
REMARK    3  A    between atoms: C_6  and  C_18 
REMARK    4  A    between atoms: N_7  and  C_8 
ROOT
HETATM    1  C   UNL     1     -42.579  55.034 -52.766  1.00  0.00     0.290 C 
ENDROOT
BRANCH   1   2
HETATM    2  C   UNL     1     -42.135  56.455 -52.444  1.00  0.00     0.021 A 
HETATM    3  C   UNL     1     -40.953  57.025 -52.946  1.00  0.00     0.055 A 
HETATM    4  C   UNL     1     -40.610  58.340 -52.634  1.00  0.00     0.117 A 
HETATM    5  C   UNL     1     -41.421  59.121 -51.820  1.00  0.00     0.045 A 
HETATM    6  F   UNL     1     -39.481  58.855 -53.135  1.00  0.00    -0.206 F 
HETATM    7  C   UNL     1     -42.600  58.578 -51.316  1.00  0.00     0.046 A 
HETATM    8  C   UNL     1     -42.947  57.265 -51.634  1.00  0.00     0.125 A 
HETATM    9  F   UNL     1     -44.102  56.783 -51.154  1.00  0.00    -0.205 F 
ENDBRANCH   1   2
BRANCH   1  10
HETATM   10  N   UNL     1     -43.455  54.968 -53.966  1.00  0.00     0.101 NA
HETATM   11  H   UNL     1     -44.414  55.046 -53.618  1.00  0.00     0.317 HD
BRANCH  10  12
HETATM   12  C   UNL     1     -43.249  55.904 -55.076  1.00  0.00     0.225 C 
HETATM   13  C   UNL     1     -43.085  55.224 -56.453  1.00  0.00     0.069 C 
HETATM   14  C   UNL     1     -43.017  56.272 -57.548  1.00  0.00     0.190 C 
HETATM   15  N   UNL     1     -44.291  57.070 -57.522  1.00  0.00    -0.067 N 
HETATM   16  C   UNL     1     -43.004  55.776 -58.979  1.00  0.00     0.035 C 
HETATM   17  H   UNL     1     -45.078  56.405 -57.572  1.00  0.00     0.280 HD
HETATM   18  C   UNL     1     -44.444  57.846 -56.258  1.00  0.00     0.237 C 
HETATM   19  C   UNL     1     -44.313  57.837 -58.818  1.00  0.00     0.235 C 
HETATM   20  C   UNL     1     -44.473  56.857 -55.095  1.00  0.00     0.063 C 
HETATM   21  C   UNL     1     -43.441  57.010 -59.765  1.00  0.00     0.030 C 
ENDBRANCH  10  12
ENDBRANCH   1  10
BRANCH   1  22
HETATM   22  C   UNL     1     -41.542  53.911 -52.703  1.00  0.00    -0.018 A 
HETATM   23  C   UNL     1     -41.065  53.226 -53.828  1.00  0.00     0.029 A 
HETATM   24  C   UNL     1     -40.115  52.227 -53.660  1.00  0.00     0.116 A 
HETATM   25  N   UNL     1     -39.593  51.878 -52.467  1.00  0.00    -0.273 NA
HETATM   26  C   UNL     1     -39.998  52.590 -51.399  1.00  0.00     0.116 A 
HETATM   27  C   UNL     1     -40.946  53.598 -51.468  1.00  0.00     0.029 A 
ENDBRANCH   1  22
TORSDOF 4
ENDMDL
MODEL 6
REMARK VINA RESULT:      -7.4      2.841      6.445
REMARK  4 active torsions:
REMARK  status: ('A' for Active; 'I' for Inactive)
REMARK    1  A    between atoms: C_5  and  C_6 
REMARK    2  A    between atoms: C_6  and  N_7 
REMARK    3  A    between atoms: C_6  and  C_18 
REMARK    4  A    between atoms: N_7  and  C_8 
ROOT
HETATM    1  C   UNL     1     -42.907  56.575 -55.628  1.00  0.00     0.290 C 
ENDROOT
BRANCH   1   2
HETATM    2  C   UNL     1     -42.820  56.642 -57.147  1.00  0.00     0.021 A 
HETATM    3  C   UNL     1     -43.309  55.631 -57.992  1.00  0.00     0.055 A 
HETATM    4  C   UNL     1     -43.219  55.759 -59.378  1.00  0.00     0.117 A 
HETATM    5  C   UNL     1     -42.646  56.882 -59.961  1.00  0.00     0.045 A 
HETATM    6  F   UNL     1     -43.702  54.782 -60.154  1.00  0.00    -0.206 F 
HETATM    7  C   UNL     1     -42.160  57.898 -59.143  1.00  0.00     0.046 A 
HETATM    8  C   UNL     1     -42.256  57.774 -57.757  1.00  0.00     0.125 A 
HETATM    9  F   UNL     1     -41.803  58.783 -56.999  1.00  0.00    -0.205 F 
ENDBRANCH   1   2
BRANCH   1  10
HETATM   10  N   UNL     1     -41.644  56.098 -55.004  1.00  0.00     0.101 NA
HETATM   11  H   UNL     1     -41.297  56.880 -54.443  1.00  0.00     0.317 HD
BRANCH  10  12
HETATM   12  C   UNL     1     -41.640  54.868 -54.205  1.00  0.00     0.225 C 
HETATM   13  C   UNL     1     -40.812  53.719 -54.820  1.00  0.00     0.069 C 
HETATM   14  C   UNL     1     -40.756  52.546 -53.860  1.00  0.00     0.190 C 
HETATM   15  N   UNL     1     -40.114  53.008 -52.581  1.00  0.00    -0.067 N 
HETATM   16  C   UNL     1     -39.860  51.385 -54.240  1.00  0.00     0.035 C 
HETATM   17  H   UNL     1     -39.213  53.447 -52.823  1.00  0.00     0.280 HD
HETATM   18  C   UNL     1     -40.935  54.037 -51.880  1.00  0.00     0.237 C 
HETATM   19  C   UNL     1     -39.774  51.752 -51.823  1.00  0.00     0.235 C 
HETATM   20  C   UNL     1     -41.080  55.241 -52.808  1.00  0.00     0.063 C 
HETATM   21  C   UNL     1     -39.641  50.678 -52.904  1.00  0.00     0.030 C 
ENDBRANCH  10  12
ENDBRANCH   1  10
BRANCH   1  22
HETATM   22  C   UNL     1     -43.556  57.742 -54.880  1.00  0.00    -0.018 A 
HETATM   23  C   UNL     1     -42.952  58.415 -53.811  1.00  0.00     0.029 A 
HETATM   24  C   UNL     1     -43.625  59.469 -53.207  1.00  0.00     0.116 A 
HETATM   25  N   UNL     1     -44.836  59.912 -53.600  1.00  0.00    -0.273 NA
HETATM   26  C   UNL     1     -45.380  59.311 -54.675  1.00  0.00     0.116 A 
HETATM   27  C   UNL     1     -44.786  58.248 -55.337  1.00  0.00     0.029 A 
ENDBRANCH   1  22
TORSDOF 4
ENDMDL
MODEL 7
REMARK VINA RESULT:      -7.4      3.474      7.313
REMARK  4 active torsions:
REMARK  status: ('A' for Active; 'I' for Inactive)
REMARK    1  A    between atoms: C_5  and  C_6 
REMARK    2  A    between atoms: C_6  and  N_7 
REMARK    3  A    between atoms: C_6  and  C_18 
REMARK    4  A    between atoms: N_7  and  C_8 
ROOT
HETATM    1  C   UNL     1     -43.316  57.518 -58.131  1.00  0.00     0.290 C 
ENDROOT
BRANCH   1   2
HETATM    2  C   UNL     1     -44.381  56.945 -59.056  1.00  0.00     0.021 A 
HETATM    3  C   UNL     1     -44.114  55.953 -60.016  1.00  0.00     0.055 A 
HETATM    4  C   UNL     1     -45.137  55.452 -60.821  1.00  0.00     0.117 A 
HETATM    5  C   UNL     1     -46.440  55.915 -60.701  1.00  0.00     0.045 A 
HETATM    6  F   UNL     1     -44.850  54.502 -61.720  1.00  0.00    -0.206 F 
HETATM    7  C   UNL     1     -46.728  56.893 -59.753  1.00  0.00     0.046 A 
HETATM    8  C   UNL     1     -45.708  57.390 -58.942  1.00  0.00     0.125 A 
HETATM    9  F   UNL     1     -46.024  58.311 -58.021  1.00  0.00    -0.205 F 
ENDBRANCH   1   2
BRANCH   1  10
HETATM   10  N   UNL     1     -42.364  56.482 -57.646  1.00  0.00     0.101 NA
HETATM   11  H   UNL     1     -41.483  56.972 -57.473  1.00  0.00     0.317 HD
BRANCH  10  12
HETATM   12  C   UNL     1     -42.711  55.653 -56.487  1.00  0.00     0.225 C 
HETATM   13  C   UNL     1     -41.498  54.982 -55.805  1.00  0.00     0.069 C 
HETATM   14  C   UNL     1     -41.940  54.264 -54.545  1.00  0.00     0.190 C 
HETATM   15  N   UNL     1     -42.555  55.271 -53.613  1.00  0.00    -0.067 N 
HETATM   16  C   UNL     1     -40.854  53.673 -53.669  1.00  0.00     0.035 C 
HETATM   17  H   UNL     1     -41.878  56.039 -53.490  1.00  0.00     0.280 HD
HETATM   18  C   UNL     1     -43.804  55.867 -54.173  1.00  0.00     0.237 C 
HETATM   19  C   UNL     1     -42.648  54.583 -52.277  1.00  0.00     0.235 C 
HETATM   20  C   UNL     1     -43.448  56.573 -55.479  1.00  0.00     0.063 C 
HETATM   21  C   UNL     1     -41.558  53.511 -52.324  1.00  0.00     0.030 C 
ENDBRANCH  10  12
ENDBRANCH   1  10
BRANCH   1  22
HETATM   22  C   UNL     1     -42.640  58.835 -58.518  1.00  0.00    -0.018 A 
HETATM   23  C   UNL     1     -41.983  59.672 -57.609  1.00  0.00     0.029 A 
HETATM   24  C   UNL     1     -41.394  60.842 -58.068  1.00  0.00     0.116 A 
HETATM   25  N   UNL     1     -41.393  61.226 -59.360  1.00  0.00    -0.273 NA
HETATM   26  C   UNL     1     -41.960  60.383 -60.242  1.00  0.00     0.116 A 
HETATM   27  C   UNL     1     -42.578  59.197 -59.876  1.00  0.00     0.029 A 
ENDBRANCH   1  22
TORSDOF 4
ENDMDL
MODEL 8
REMARK VINA RESULT:      -7.4      2.962      5.058
REMARK  4 active torsions:
REMARK  status: ('A' for Active; 'I' for Inactive)
REMARK    1  A    between atoms: C_5  and  C_6 
REMARK    2  A    between atoms: C_6  and  N_7 
REMARK    3  A    between atoms: C_6  and  C_18 
REMARK    4  A    between atoms: N_7  and  C_8 
ROOT
HETATM    1  C   UNL     1     -41.697  56.247 -51.750  1.00  0.00     0.290 C 
ENDROOT
BRANCH   1   2
HETATM    2  C   UNL     1     -41.608  57.692 -51.277  1.00  0.00     0.021 A 
HETATM    3  C   UNL     1     -40.405  58.297 -50.874  1.00  0.00     0.055 A 
HETATM    4  C   UNL     1     -40.383  59.632 -50.470  1.00  0.00     0.117 A 
HETATM    5  C   UNL     1     -41.541  60.398 -50.452  1.00  0.00     0.045 A 
HETATM    6  F   UNL     1     -39.219  60.180 -50.101  1.00  0.00    -0.206 F 
HETATM    7  C   UNL     1     -42.743  59.820 -50.853  1.00  0.00     0.046 A 
HETATM    8  C   UNL     1     -42.765  58.487 -51.264  1.00  0.00     0.125 A 
HETATM    9  F   UNL     1     -43.933  57.969 -51.668  1.00  0.00    -0.205 F 
ENDBRANCH   1   2
BRANCH   1  10
HETATM   10  N   UNL     1     -41.197  56.071 -53.140  1.00  0.00     0.101 NA
HETATM   11  H   UNL     1     -40.755  55.148 -53.163  1.00  0.00     0.317 HD
BRANCH  10  12
HETATM   12  C   UNL     1     -42.116  56.214 -54.274  1.00  0.00     0.225 C 
HETATM   13  C   UNL     1     -41.960  57.540 -55.050  1.00  0.00     0.069 C 
HETATM   14  C   UNL     1     -42.851  57.534 -56.277  1.00  0.00     0.190 C 
HETATM   15  N   UNL     1     -42.447  56.381 -57.153  1.00  0.00    -0.067 N 
HETATM   16  C   UNL     1     -42.714  58.699 -57.236  1.00  0.00     0.035 C 
HETATM   17  H   UNL     1     -41.432  56.456 -57.323  1.00  0.00     0.280 HD
HETATM   18  C   UNL     1     -42.690  55.063 -56.497  1.00  0.00     0.237 C 
HETATM   19  C   UNL     1     -43.110  56.631 -58.482  1.00  0.00     0.235 C 
HETATM   20  C   UNL     1     -41.858  55.010 -55.217  1.00  0.00     0.063 C 
HETATM   21  C   UNL     1     -43.318  58.146 -58.524  1.00  0.00     0.030 C 
ENDBRANCH  10  12
ENDBRANCH   1  10
BRANCH   1  22
HETATM   22  C   UNL     1     -41.256  55.135 -50.797  1.00  0.00    -0.018 A 
HETATM   23  C   UNL     1     -40.736  53.905 -51.219  1.00  0.00     0.029 A 
HETATM   24  C   UNL     1     -40.358  52.967 -50.269  1.00  0.00     0.116 A 
HETATM   25  N   UNL     1     -40.437  53.170 -48.938  1.00  0.00    -0.273 NA
HETATM   26  C   UNL     1     -40.867  54.381 -48.536  1.00  0.00     0.116 A 
HETATM   27  C   UNL     1     -41.273  55.376 -49.411  1.00  0.00     0.029 A 
ENDBRANCH   1  22
TORSDOF 4
ENDMDL
MODEL 9
REMARK VINA RESULT:      -7.3      1.536      2.463
REMARK  4 active torsions:
REMARK  status: ('A' for Active; 'I' for Inactive)
REMARK    1  A    between atoms: C_5  and  C_6 
REMARK    2  A    between atoms: C_6  and  N_7 
REMARK    3  A    between atoms: C_6  and  C_18 
REMARK    4  A    between atoms: N_7  and  C_8 
ROOT
HETATM    1  C   UNL     1     -41.809  56.263 -53.876  1.00  0.00     0.290 C 
ENDROOT
BRANCH   1   2
HETATM    2  C   UNL     1     -41.263  54.926 -53.392  1.00  0.00     0.021 A 
HETATM    3  C   UNL     1     -40.698  53.968 -54.252  1.00  0.00     0.055 A 
HETATM    4  C   UNL     1     -40.196  52.770 -53.746  1.00  0.00     0.117 A 
HETATM    5  C   UNL     1     -40.239  52.488 -52.387  1.00  0.00     0.045 A 
HETATM    6  F   UNL     1     -39.657  51.883 -54.591  1.00  0.00    -0.206 F 
HETATM    7  C   UNL     1     -40.789  53.425 -51.517  1.00  0.00     0.046 A 
HETATM    8  C   UNL     1     -41.286  54.628 -52.020  1.00  0.00     0.125 A 
HETATM    9  F   UNL     1     -41.785  55.519 -51.153  1.00  0.00    -0.205 F 
ENDBRANCH   1   2
BRANCH   1  10
HETATM   10  N   UNL     1     -43.167  56.144 -54.472  1.00  0.00     0.101 NA
HETATM   11  H   UNL     1     -43.789  56.674 -53.857  1.00  0.00     0.317 HD
BRANCH  10  12
HETATM   12  C   UNL     1     -43.392  56.533 -55.868  1.00  0.00     0.225 C 
HETATM   13  C   UNL     1     -42.578  57.767 -56.318  1.00  0.00     0.069 C 
HETATM   14  C   UNL     1     -42.772  58.005 -57.803  1.00  0.00     0.190 C 
HETATM   15  N   UNL     1     -42.302  56.786 -58.547  1.00  0.00    -0.067 N 
HETATM   16  C   UNL     1     -41.929  59.088 -58.445  1.00  0.00     0.035 C 
HETATM   17  H   UNL     1     -41.340  56.580 -58.236  1.00  0.00     0.280 HD
HETATM   18  C   UNL     1     -43.132  55.584 -58.240  1.00  0.00     0.237 C 
HETATM   19  C   UNL     1     -42.192  57.208 -59.988  1.00  0.00     0.235 C 
HETATM   20  C   UNL     1     -43.027  55.305 -56.742  1.00  0.00     0.063 C 
HETATM   21  C   UNL     1     -41.983  58.722 -59.926  1.00  0.00     0.030 C 
ENDBRANCH  10  12
ENDBRANCH   1  10
BRANCH   1  22
HETATM   22  C   UNL     1     -41.642  57.491 -52.978  1.00  0.00    -0.018 A 
HETATM   23  C   UNL     1     -40.415  58.125 -52.743  1.00  0.00     0.029 A 
HETATM   24  C   UNL     1     -40.376  59.240 -51.916  1.00  0.00     0.116 A 
HETATM   25  N   UNL     1     -41.463  59.779 -51.329  1.00  0.00    -0.273 NA
HETATM   26  C   UNL     1     -42.650  59.212 -51.617  1.00  0.00     0.116 A 
HETATM   27  C   UNL     1     -42.785  58.094 -52.425  1.00  0.00     0.029 A 
ENDBRANCH   1  22
TORSDOF 4
ENDMDL
MODEL 10
REMARK VINA RESULT:      -7.2      1.406      2.312
REMARK  4 active torsions:
REMARK  status: ('A' for Active; 'I' for Inactive)
REMARK    1  A    between atoms: C_5  and  C_6 
REMARK    2  A    between atoms: C_6  and  N_7 
REMARK    3  A    between atoms: C_6  and  C_18 
REMARK    4  A    between atoms: N_7  and  C_8 
ROOT
HETATM    1  C   UNL     1     -42.172  57.277 -53.694  1.00  0.00     0.290 C 
ENDROOT
BRANCH   1   2
HETATM    2  C   UNL     1     -41.774  55.825 -53.464  1.00  0.00     0.021 A 
HETATM    3  C   UNL     1     -40.814  55.157 -54.243  1.00  0.00     0.055 A 
HETATM    4  C   UNL     1     -40.476  53.832 -53.970  1.00  0.00     0.117 A 
HETATM    5  C   UNL     1     -41.075  53.136 -52.928  1.00  0.00     0.045 A 
HETATM    6  F   UNL     1     -39.551  53.228 -54.726  1.00  0.00    -0.206 F 
HETATM    7  C   UNL     1     -42.025  53.780 -52.140  1.00  0.00     0.046 A 
HETATM    8  C   UNL     1     -42.359  55.108 -52.407  1.00  0.00     0.125 A 
HETATM    9  F   UNL     1     -43.257  55.707 -51.613  1.00  0.00    -0.205 F 
ENDBRANCH   1   2
BRANCH   1  10
HETATM   10  N   UNL     1     -43.520  57.409 -54.309  1.00  0.00     0.101 NA
HETATM   11  H   UNL     1     -44.006  58.127 -53.766  1.00  0.00     0.317 HD
BRANCH  10  12
HETATM   12  C   UNL     1     -43.647  57.694 -55.742  1.00  0.00     0.225 C 
HETATM   13  C   UNL     1     -43.195  56.535 -56.658  1.00  0.00     0.069 C 
HETATM   14  C   UNL     1     -43.493  56.870 -58.107  1.00  0.00     0.190 C 
HETATM   15  N   UNL     1     -44.973  57.086 -58.252  1.00  0.00    -0.067 N 
HETATM   16  C   UNL     1     -43.249  55.781 -59.132  1.00  0.00     0.035 C 
HETATM   17  H   UNL     1     -45.451  56.257 -57.865  1.00  0.00     0.280 HD
HETATM   18  C   UNL     1     -45.448  58.271 -57.480  1.00  0.00     0.237 C 
HETATM   19  C   UNL     1     -45.242  57.066 -59.733  1.00  0.00     0.235 C 
HETATM   20  C   UNL     1     -45.138  58.030 -56.004  1.00  0.00     0.063 C 
HETATM   21  C   UNL     1     -44.094  56.241 -60.317  1.00  0.00     0.030 C 
ENDBRANCH  10  12
ENDBRANCH   1  10
BRANCH   1  22
HETATM   22  C   UNL     1     -41.906  58.294 -52.581  1.00  0.00    -0.018 A 
HETATM   23  C   UNL     1     -42.904  59.072 -51.980  1.00  0.00     0.029 A 
HETATM   24  C   UNL     1     -42.555  59.960 -50.972  1.00  0.00     0.116 A 
HETATM   25  N   UNL     1     -41.299  60.113 -50.506  1.00  0.00    -0.273 NA
HETATM   26  C   UNL     1     -40.356  59.311 -51.035  1.00  0.00     0.116 A 
HETATM   27  C   UNL     1     -40.609  58.401 -52.049  1.00  0.00     0.029 A 
ENDBRANCH   1  22
TORSDOF 4
ENDMDL
