MODEL 1
REMARK VINA RESULT:      -8.0      0.000      0.000
REMARK  5 active torsions:
REMARK  status: ('A' for Active; 'I' for Inactive)
REMARK    1  A    between atoms: C_8  and  C_9 
REMARK    2  A    between atoms: C_9  and  N_10 
REMARK    3  A    between atoms: N_10  and  C_13 
REMARK    4  A    between atoms: C_16  and  O_17 
REMARK    5  A    between atoms: O_17  and  C_18 
ROOT
HETATM    1  C   UNL     1     -40.612  54.186 -53.230  1.00  0.00     0.164 A 
HETATM    2  N   UNL     1     -40.305  53.616 -52.046  1.00  0.00    -0.236 NA
HETATM    3  C   UNL     1     -39.976  52.300 -52.068  1.00  0.00     0.142 A 
HETATM    4  C   UNL     1     -39.950  51.528 -53.220  1.00  0.00     0.062 A 
HETATM    5  C   UNL     1     -39.593  50.147 -53.160  1.00  0.00     0.101 C 
HETATM    6  N   UNL     1     -39.307  49.024 -53.106  1.00  0.00    -0.191 NA
HETATM    7  C   UNL     1     -40.285  52.144 -54.425  1.00  0.00     0.028 A 
HETATM    8  C   UNL     1     -40.631  53.495 -54.431  1.00  0.00     0.059 A 
ENDROOT
BRANCH   1   9
HETATM    9  O   UNL     1     -40.986  55.516 -53.266  1.00  0.00    -0.329 OA
BRANCH   9  10
HETATM   10  C   UNL     1     -42.105  55.822 -52.420  1.00  0.00     0.130 C 
HETATM   11  C   UNL     1     -42.374  57.329 -52.558  1.00  0.00     0.034 C 
HETATM   12  C   UNL     1     -42.881  57.716 -53.950  1.00  0.00     0.035 C 
HETATM   13  C   UNL     1     -44.117  56.898 -54.332  1.00  0.00     0.186 C 
HETATM   14  C   UNL     1     -43.828  55.401 -54.254  1.00  0.00     0.035 C 
HETATM   15  C   UNL     1     -43.341  55.018 -52.854  1.00  0.00     0.034 C 
BRANCH  13  16
HETATM   16  N   UNL     1     -44.535  57.291 -55.713  1.00  0.00    -0.067 N 
HETATM   17  H   UNL     1     -45.015  58.200 -55.715  1.00  0.00     0.277 HD
HETATM   18  H   UNL     1     -45.234  56.608 -56.044  1.00  0.00     0.277 HD
BRANCH  16  19
HETATM   19  C   UNL     1     -43.456  57.309 -56.750  1.00  0.00     0.274 C 
BRANCH  19  20
HETATM   20  C   UNL     1     -43.925  56.782 -58.069  1.00  0.00     0.004 A 
HETATM   21  C   UNL     1     -45.062  57.292 -58.677  1.00  0.00     0.113 A 
HETATM   22  C   UNL     1     -45.548  56.795 -59.864  1.00  0.00     0.105 A 
HETATM   23  O   UNL     1     -45.814  58.327 -58.205  1.00  0.00    -0.322 OA
HETATM   24  C   UNL     1     -44.923  55.761 -60.524  1.00  0.00     0.040 A 
HETATM   25  O   UNL     1     -46.672  57.436 -60.274  1.00  0.00    -0.323 OA
HETATM   26  C   UNL     1     -43.771  55.223 -59.945  1.00  0.00     0.003 A 
HETATM   27  C   UNL     1     -43.276  55.725 -58.726  1.00  0.00     0.012 A 
HETATM   28  C   UNL     1     -46.885  58.353 -59.186  1.00  0.00     0.352 A 
ENDBRANCH  19  20
ENDBRANCH  16  19
ENDBRANCH  13  16
ENDBRANCH   9  10
ENDBRANCH   1   9
TORSDOF 5
ENDMDL
MODEL 2
REMARK VINA RESULT:      -8.0      2.013      2.465
REMARK  5 active torsions:
REMARK  status: ('A' for Active; 'I' for Inactive)
REMARK    1  A    between atoms: C_8  and  C_9 
REMARK    2  A    between atoms: C_9  and  N_10 
REMARK    3  A    between atoms: N_10  and  C_13 
REMARK    4  A    between atoms: C_16  and  O_17 
REMARK    5  A    between atoms: O_17  and  C_18 
ROOT
HETATM    1  C   UNL     1     -40.595  54.255 -53.240  1.00  0.00     0.164 A 
HETATM    2  N   UNL     1     -40.455  53.637 -52.049  1.00  0.00    -0.236 NA
HETATM    3  C   UNL     1     -40.138  52.318 -52.076  1.00  0.00     0.142 A 
HETATM    4  C   UNL     1     -39.963  51.590 -53.243  1.00  0.00     0.062 A 
HETATM    5  C   UNL     1     -39.629  50.203 -53.189  1.00  0.00     0.101 C 
HETATM    6  N   UNL     1     -39.363  49.074 -53.141  1.00  0.00    -0.191 NA
HETATM    7  C   UNL     1     -40.127  52.254 -54.458  1.00  0.00     0.028 A 
HETATM    8  C   UNL     1     -40.457  53.609 -54.458  1.00  0.00     0.059 A 
ENDROOT
BRANCH   1   9
HETATM    9  O   UNL     1     -40.949  55.590 -53.275  1.00  0.00    -0.329 OA
BRANCH   9  10
HETATM   10  C   UNL     1     -42.204  55.869 -52.634  1.00  0.00     0.130 C 
HETATM   11  C   UNL     1     -42.300  57.396 -52.481  1.00  0.00     0.034 C 
HETATM   12  C   UNL     1     -42.433  58.119 -53.825  1.00  0.00     0.035 C 
HETATM   13  C   UNL     1     -43.612  57.570 -54.631  1.00  0.00     0.186 C 
HETATM   14  C   UNL     1     -43.481  56.062 -54.835  1.00  0.00     0.035 C 
HETATM   15  C   UNL     1     -43.369  55.344 -53.488  1.00  0.00     0.034 C 
BRANCH  13  16
HETATM   16  N   UNL     1     -43.660  58.286 -55.944  1.00  0.00    -0.067 N 
HETATM   17  H   UNL     1     -44.407  58.992 -55.958  1.00  0.00     0.277 HD
HETATM   18  H   UNL     1     -43.912  57.601 -56.673  1.00  0.00     0.277 HD
BRANCH  16  19
HETATM   19  C   UNL     1     -42.382  58.918 -56.398  1.00  0.00     0.274 C 
BRANCH  19  20
HETATM   20  C   UNL     1     -42.290  59.010 -57.889  1.00  0.00     0.004 A 
HETATM   21  C   UNL     1     -42.467  57.889 -58.685  1.00  0.00     0.113 A 
HETATM   22  C   UNL     1     -42.338  57.929 -60.053  1.00  0.00     0.105 A 
HETATM   23  O   UNL     1     -42.796  56.644 -58.234  1.00  0.00    -0.322 OA
HETATM   24  C   UNL     1     -42.033  59.097 -60.715  1.00  0.00     0.040 A 
HETATM   25  O   UNL     1     -42.547  56.719 -60.631  1.00  0.00    -0.323 OA
HETATM   26  C   UNL     1     -41.851  60.250 -59.948  1.00  0.00     0.003 A 
HETATM   27  C   UNL     1     -41.975  60.209 -58.546  1.00  0.00     0.012 A 
HETATM   28  C   UNL     1     -42.760  55.889 -59.475  1.00  0.00     0.352 A 
ENDBRANCH  19  20
ENDBRANCH  16  19
ENDBRANCH  13  16
ENDBRANCH   9  10
ENDBRANCH   1   9
TORSDOF 5
ENDMDL
MODEL 3
REMARK VINA RESULT:      -7.9      2.575      7.963
REMARK  5 active torsions:
REMARK  status: ('A' for Active; 'I' for Inactive)
REMARK    1  A    between atoms: C_8  and  C_9 
REMARK    2  A    between atoms: C_9  and  N_10 
REMARK    3  A    between atoms: N_10  and  C_13 
REMARK    4  A    between atoms: C_16  and  O_17 
REMARK    5  A    between atoms: O_17  and  C_18 
ROOT
HETATM    1  C   UNL     1     -42.366  56.638 -55.813  1.00  0.00     0.164 A 
HETATM    2  N   UNL     1     -42.500  55.482 -56.495  1.00  0.00    -0.236 NA
HETATM    3  C   UNL     1     -43.122  55.550 -57.699  1.00  0.00     0.142 A 
HETATM    4  C   UNL     1     -43.622  56.722 -58.246  1.00  0.00     0.062 A 
HETATM    5  C   UNL     1     -44.265  56.711 -59.520  1.00  0.00     0.101 C 
HETATM    6  N   UNL     1     -44.791  56.697 -60.555  1.00  0.00    -0.191 NA
HETATM    7  C   UNL     1     -43.479  57.898 -57.510  1.00  0.00     0.028 A 
HETATM    8  C   UNL     1     -42.848  57.855 -56.267  1.00  0.00     0.059 A 
ENDROOT
BRANCH   1   9
HETATM    9  O   UNL     1     -41.770  56.626 -54.566  1.00  0.00    -0.329 OA
BRANCH   9  10
HETATM   10  C   UNL     1     -42.587  57.199 -53.533  1.00  0.00     0.130 C 
HETATM   11  C   UNL     1     -43.676  56.167 -53.198  1.00  0.00     0.034 C 
HETATM   12  C   UNL     1     -43.114  54.908 -52.533  1.00  0.00     0.035 C 
HETATM   13  C   UNL     1     -42.289  55.262 -51.293  1.00  0.00     0.186 C 
HETATM   14  C   UNL     1     -41.170  56.239 -51.641  1.00  0.00     0.035 C 
HETATM   15  C   UNL     1     -41.740  57.504 -52.288  1.00  0.00     0.034 C 
BRANCH  13  16
HETATM   16  N   UNL     1     -41.736  53.997 -50.716  1.00  0.00    -0.067 N 
HETATM   17  H   UNL     1     -42.328  53.189 -50.948  1.00  0.00     0.277 HD
HETATM   18  H   UNL     1     -41.763  54.075 -49.688  1.00  0.00     0.277 HD
BRANCH  16  19
HETATM   19  C   UNL     1     -40.317  53.677 -51.068  1.00  0.00     0.274 C 
BRANCH  19  20
HETATM   20  C   UNL     1     -40.217  52.707 -52.203  1.00  0.00     0.004 A 
HETATM   21  C   UNL     1     -39.951  51.366 -51.973  1.00  0.00     0.113 A 
HETATM   22  C   UNL     1     -39.801  50.459 -52.996  1.00  0.00     0.105 A 
HETATM   23  O   UNL     1     -39.822  50.785 -50.746  1.00  0.00    -0.322 OA
HETATM   24  C   UNL     1     -39.917  50.833 -54.316  1.00  0.00     0.040 A 
HETATM   25  O   UNL     1     -39.540  49.206 -52.545  1.00  0.00    -0.323 OA
HETATM   26  C   UNL     1     -40.190  52.176 -54.588  1.00  0.00     0.003 A 
HETATM   27  C   UNL     1     -40.335  53.108 -53.543  1.00  0.00     0.012 A 
HETATM   28  C   UNL     1     -39.475  49.425 -51.125  1.00  0.00     0.352 A 
ENDBRANCH  19  20
ENDBRANCH  16  19
ENDBRANCH  13  16
ENDBRANCH   9  10
ENDBRANCH   1   9
TORSDOF 5
ENDMDL
MODEL 4
REMARK VINA RESULT:      -7.8      2.790      7.591
REMARK  5 active torsions:
REMARK  status: ('A' for Active; 'I' for Inactive)
REMARK    1  A    between atoms: C_8  and  C_9 
REMARK    2  A    between atoms: C_9  and  N_10 
REMARK    3  A    between atoms: N_10  and  C_13 
REMARK    4  A    between atoms: C_16  and  O_17 
REMARK    5  A    between atoms: O_17  and  C_18 
ROOT
HETATM    1  C   UNL     1     -42.159  56.708 -55.534  1.00  0.00     0.164 A 
HETATM    2  N   UNL     1     -42.262  57.858 -56.230  1.00  0.00    -0.236 NA
HETATM    3  C   UNL     1     -42.682  57.760 -57.517  1.00  0.00     0.142 A 
HETATM    4  C   UNL     1     -42.994  56.560 -58.138  1.00  0.00     0.062 A 
HETATM    5  C   UNL     1     -43.429  56.539 -59.497  1.00  0.00     0.101 C 
HETATM    6  N   UNL     1     -43.778  56.526 -60.604  1.00  0.00    -0.191 NA
HETATM    7  C   UNL     1     -42.865  55.387 -57.395  1.00  0.00     0.028 A 
HETATM    8  C   UNL     1     -42.431  55.460 -56.071  1.00  0.00     0.059 A 
ENDROOT
BRANCH   1   9
HETATM    9  O   UNL     1     -41.705  56.742 -54.228  1.00  0.00    -0.329 OA
BRANCH   9  10
HETATM   10  C   UNL     1     -42.624  57.364 -53.317  1.00  0.00     0.130 C 
HETATM   11  C   UNL     1     -43.752  56.353 -53.057  1.00  0.00     0.034 C 
HETATM   12  C   UNL     1     -43.277  55.122 -52.279  1.00  0.00     0.035 C 
HETATM   13  C   UNL     1     -42.589  55.529 -50.974  1.00  0.00     0.186 C 
HETATM   14  C   UNL     1     -41.430  56.485 -51.241  1.00  0.00     0.035 C 
HETATM   15  C   UNL     1     -41.915  57.721 -52.001  1.00  0.00     0.034 C 
BRANCH  13  16
HETATM   16  N   UNL     1     -42.114  54.289 -50.285  1.00  0.00    -0.067 N 
HETATM   17  H   UNL     1     -42.593  53.454 -50.643  1.00  0.00     0.277 HD
HETATM   18  H   UNL     1     -42.376  54.354 -49.289  1.00  0.00     0.277 HD
BRANCH  16  19
HETATM   19  C   UNL     1     -40.637  54.049 -50.305  1.00  0.00     0.274 C 
BRANCH  19  20
HETATM   20  C   UNL     1     -40.277  52.776 -51.005  1.00  0.00     0.004 A 
HETATM   21  C   UNL     1     -40.198  52.720 -52.388  1.00  0.00     0.113 A 
HETATM   22  C   UNL     1     -39.920  51.554 -53.064  1.00  0.00     0.105 A 
HETATM   23  O   UNL     1     -40.362  53.779 -53.232  1.00  0.00    -0.322 OA
HETATM   24  C   UNL     1     -39.696  50.370 -52.398  1.00  0.00     0.040 A 
HETATM   25  O   UNL     1     -39.897  51.727 -54.409  1.00  0.00    -0.323 OA
HETATM   26  C   UNL     1     -39.763  50.387 -51.004  1.00  0.00     0.003 A 
HETATM   27  C   UNL     1     -40.055  51.577 -50.310  1.00  0.00     0.012 A 
HETATM   28  C   UNL     1     -40.253  53.117 -54.521  1.00  0.00     0.352 A 
ENDBRANCH  19  20
ENDBRANCH  16  19
ENDBRANCH  13  16
ENDBRANCH   9  10
ENDBRANCH   1   9
TORSDOF 5
ENDMDL
MODEL 5
REMARK VINA RESULT:      -7.8      3.191      5.610
REMARK  5 active torsions:
REMARK  status: ('A' for Active; 'I' for Inactive)
REMARK    1  A    between atoms: C_8  and  C_9 
REMARK    2  A    between atoms: C_9  and  N_10 
REMARK    3  A    between atoms: N_10  and  C_13 
REMARK    4  A    between atoms: C_16  and  O_17 
REMARK    5  A    between atoms: O_17  and  C_18 
ROOT
HETATM    1  C   UNL     1     -40.641  53.829 -53.709  1.00  0.00     0.164 A 
HETATM    2  N   UNL     1     -40.584  53.948 -52.366  1.00  0.00    -0.236 NA
HETATM    3  C   UNL     1     -40.202  52.847 -51.670  1.00  0.00     0.142 A 
HETATM    4  C   UNL     1     -39.883  51.632 -52.259  1.00  0.00     0.062 A 
HETATM    5  C   UNL     1     -39.490  50.519 -51.456  1.00  0.00     0.101 C 
HETATM    6  N   UNL     1     -39.175  49.616 -50.800  1.00  0.00    -0.191 NA
HETATM    7  C   UNL     1     -39.965  51.539 -53.647  1.00  0.00     0.028 A 
HETATM    8  C   UNL     1     -40.359  52.654 -54.387  1.00  0.00     0.059 A 
ENDROOT
BRANCH   1   9
HETATM    9  O   UNL     1     -41.055  54.907 -54.469  1.00  0.00    -0.329 OA
BRANCH   9  10
HETATM   10  C   UNL     1     -42.300  54.686 -55.149  1.00  0.00     0.130 C 
HETATM   11  C   UNL     1     -43.421  55.022 -54.151  1.00  0.00     0.034 C 
HETATM   12  C   UNL     1     -43.478  56.512 -53.804  1.00  0.00     0.035 C 
HETATM   13  C   UNL     1     -43.590  57.368 -55.068  1.00  0.00     0.186 C 
HETATM   14  C   UNL     1     -42.441  57.077 -56.029  1.00  0.00     0.035 C 
HETATM   15  C   UNL     1     -42.402  55.589 -56.388  1.00  0.00     0.034 C 
BRANCH  13  16
HETATM   16  N   UNL     1     -43.599  58.809 -54.664  1.00  0.00    -0.067 N 
HETATM   17  H   UNL     1     -44.097  58.945 -53.775  1.00  0.00     0.277 HD
HETATM   18  H   UNL     1     -44.138  59.336 -55.368  1.00  0.00     0.277 HD
BRANCH  16  19
HETATM   19  C   UNL     1     -42.264  59.479 -54.582  1.00  0.00     0.274 C 
BRANCH  19  20
HETATM   20  C   UNL     1     -41.710  59.477 -53.192  1.00  0.00     0.004 A 
HETATM   21  C   UNL     1     -42.389  60.094 -52.153  1.00  0.00     0.113 A 
HETATM   22  C   UNL     1     -41.883  60.155 -50.875  1.00  0.00     0.105 A 
HETATM   23  O   UNL     1     -43.613  60.689 -52.252  1.00  0.00    -0.322 OA
HETATM   24  C   UNL     1     -40.669  59.593 -50.552  1.00  0.00     0.040 A 
HETATM   25  O   UNL     1     -42.709  60.810 -50.020  1.00  0.00    -0.323 OA
HETATM   26  C   UNL     1     -39.956  58.958 -51.571  1.00  0.00     0.003 A 
HETATM   27  C   UNL     1     -40.468  58.901 -52.882  1.00  0.00     0.012 A 
HETATM   28  C   UNL     1     -43.767  61.216 -50.906  1.00  0.00     0.352 A 
ENDBRANCH  19  20
ENDBRANCH  16  19
ENDBRANCH  13  16
ENDBRANCH   9  10
ENDBRANCH   1   9
TORSDOF 5
ENDMDL
MODEL 6
REMARK VINA RESULT:      -7.6      1.229      1.920
REMARK  5 active torsions:
REMARK  status: ('A' for Active; 'I' for Inactive)
REMARK    1  A    between atoms: C_8  and  C_9 
REMARK    2  A    between atoms: C_9  and  N_10 
REMARK    3  A    between atoms: N_10  and  C_13 
REMARK    4  A    between atoms: C_16  and  O_17 
REMARK    5  A    between atoms: O_17  and  C_18 
ROOT
HETATM    1  C   UNL     1     -40.662  54.543 -53.157  1.00  0.00     0.164 A 
HETATM    2  N   UNL     1     -40.461  53.738 -52.093  1.00  0.00    -0.236 NA
HETATM    3  C   UNL     1     -40.141  52.446 -52.355  1.00  0.00     0.142 A 
HETATM    4  C   UNL     1     -40.022  51.923 -53.634  1.00  0.00     0.062 A 
HETATM    5  C   UNL     1     -39.682  50.550 -53.828  1.00  0.00     0.101 C 
HETATM    6  N   UNL     1     -39.410  49.432 -53.980  1.00  0.00    -0.191 NA
HETATM    7  C   UNL     1     -40.249  52.778 -54.712  1.00  0.00     0.028 A 
HETATM    8  C   UNL     1     -40.584  54.110 -54.471  1.00  0.00     0.059 A 
ENDROOT
BRANCH   1   9
HETATM    9  O   UNL     1     -41.022  55.862 -52.952  1.00  0.00    -0.329 OA
BRANCH   9  10
HETATM   10  C   UNL     1     -42.099  56.025 -52.016  1.00  0.00     0.130 C 
HETATM   11  C   UNL     1     -42.206  57.528 -51.712  1.00  0.00     0.034 C 
HETATM   12  C   UNL     1     -42.674  58.345 -52.920  1.00  0.00     0.035 C 
HETATM   13  C   UNL     1     -43.991  57.800 -53.476  1.00  0.00     0.186 C 
HETATM   14  C   UNL     1     -43.864  56.322 -53.835  1.00  0.00     0.035 C 
HETATM   15  C   UNL     1     -43.415  55.508 -52.619  1.00  0.00     0.034 C 
BRANCH  13  16
HETATM   16  N   UNL     1     -44.370  58.612 -54.674  1.00  0.00    -0.067 N 
HETATM   17  H   UNL     1     -44.206  59.614 -54.515  1.00  0.00     0.277 HD
HETATM   18  H   UNL     1     -45.387  58.516 -54.818  1.00  0.00     0.277 HD
BRANCH  16  19
HETATM   19  C   UNL     1     -43.733  58.214 -55.968  1.00  0.00     0.274 C 
BRANCH  19  20
HETATM   20  C   UNL     1     -44.741  57.935 -57.038  1.00  0.00     0.004 A 
HETATM   21  C   UNL     1     -44.361  57.383 -58.251  1.00  0.00     0.113 A 
HETATM   22  C   UNL     1     -45.255  57.162 -59.273  1.00  0.00     0.105 A 
HETATM   23  O   UNL     1     -43.097  56.984 -58.575  1.00  0.00    -0.322 OA
HETATM   24  C   UNL     1     -46.590  57.472 -59.143  1.00  0.00     0.040 A 
HETATM   25  O   UNL     1     -44.667  56.621 -60.369  1.00  0.00    -0.323 OA
HETATM   26  C   UNL     1     -47.013  58.027 -57.934  1.00  0.00     0.003 A 
HETATM   27  C   UNL     1     -46.099  58.261 -56.889  1.00  0.00     0.012 A 
HETATM   28  C   UNL     1     -43.289  56.579 -59.958  1.00  0.00     0.352 A 
ENDBRANCH  19  20
ENDBRANCH  16  19
ENDBRANCH  13  16
ENDBRANCH   9  10
ENDBRANCH   1   9
TORSDOF 5
ENDMDL
MODEL 7
REMARK VINA RESULT:      -7.4     15.172     18.115
REMARK  5 active torsions:
REMARK  status: ('A' for Active; 'I' for Inactive)
REMARK    1  A    between atoms: C_8  and  C_9 
REMARK    2  A    between atoms: C_9  and  N_10 
REMARK    3  A    between atoms: N_10  and  C_13 
REMARK    4  A    between atoms: C_16  and  O_17 
REMARK    5  A    between atoms: O_17  and  C_18 
ROOT
HETATM    1  C   UNL     1     -37.104  39.444 -59.071  1.00  0.00     0.164 A 
HETATM    2  N   UNL     1     -36.720  39.701 -60.339  1.00  0.00    -0.236 NA
HETATM    3  C   UNL     1     -37.524  39.233 -61.328  1.00  0.00     0.142 A 
HETATM    4  C   UNL     1     -38.688  38.514 -61.103  1.00  0.00     0.062 A 
HETATM    5  C   UNL     1     -39.480  38.055 -62.198  1.00  0.00     0.101 C 
HETATM    6  N   UNL     1     -40.119  37.680 -63.091  1.00  0.00    -0.191 NA
HETATM    7  C   UNL     1     -39.049  38.254 -59.781  1.00  0.00     0.028 A 
HETATM    8  C   UNL     1     -38.239  38.720 -58.746  1.00  0.00     0.059 A 
ENDROOT
BRANCH   1   9
HETATM    9  O   UNL     1     -36.309  39.868 -58.023  1.00  0.00    -0.329 OA
BRANCH   9  10
HETATM   10  C   UNL     1     -35.983  41.265 -58.076  1.00  0.00     0.130 C 
HETATM   11  C   UNL     1     -37.239  42.036 -57.635  1.00  0.00     0.034 C 
HETATM   12  C   UNL     1     -37.578  41.819 -56.158  1.00  0.00     0.035 C 
HETATM   13  C   UNL     1     -36.382  42.154 -55.264  1.00  0.00     0.186 C 
HETATM   14  C   UNL     1     -35.154  41.341 -55.664  1.00  0.00     0.035 C 
HETATM   15  C   UNL     1     -34.809  41.578 -57.137  1.00  0.00     0.034 C 
BRANCH  13  16
HETATM   16  N   UNL     1     -36.764  41.882 -53.842  1.00  0.00    -0.067 N 
HETATM   17  H   UNL     1     -36.859  40.873 -53.667  1.00  0.00     0.277 HD
HETATM   18  H   UNL     1     -37.701  42.282 -53.680  1.00  0.00     0.277 HD
BRANCH  16  19
HETATM   19  C   UNL     1     -35.875  42.477 -52.796  1.00  0.00     0.274 C 
BRANCH  19  20
HETATM   20  C   UNL     1     -35.328  41.445 -51.860  1.00  0.00     0.004 A 
HETATM   21  C   UNL     1     -36.130  40.422 -51.378  1.00  0.00     0.113 A 
HETATM   22  C   UNL     1     -35.672  39.489 -50.478  1.00  0.00     0.105 A 
HETATM   23  O   UNL     1     -37.429  40.203 -51.733  1.00  0.00    -0.322 OA
HETATM   24  C   UNL     1     -34.378  39.513 -50.008  1.00  0.00     0.040 A 
HETATM   25  O   UNL     1     -36.624  38.584 -50.138  1.00  0.00    -0.323 OA
HETATM   26  C   UNL     1     -33.538  40.527 -50.473  1.00  0.00     0.003 A 
HETATM   27  C   UNL     1     -34.006  41.488 -51.389  1.00  0.00     0.012 A 
HETATM   28  C   UNL     1     -37.759  39.080 -50.871  1.00  0.00     0.352 A 
ENDBRANCH  19  20
ENDBRANCH  16  19
ENDBRANCH  13  16
ENDBRANCH   9  10
ENDBRANCH   1   9
TORSDOF 5
ENDMDL
MODEL 8
REMARK VINA RESULT:      -7.4     15.337     18.638
REMARK  5 active torsions:
REMARK  status: ('A' for Active; 'I' for Inactive)
REMARK    1  A    between atoms: C_8  and  C_9 
REMARK    2  A    between atoms: C_9  and  N_10 
REMARK    3  A    between atoms: N_10  and  C_13 
REMARK    4  A    between atoms: C_16  and  O_17 
REMARK    5  A    between atoms: O_17  and  C_18 
ROOT
HETATM    1  C   UNL     1     -36.670  39.458 -59.028  1.00  0.00     0.164 A 
HETATM    2  N   UNL     1     -35.680  38.617 -59.389  1.00  0.00    -0.236 NA
HETATM    3  C   UNL     1     -35.648  38.231 -60.690  1.00  0.00     0.142 A 
HETATM    4  C   UNL     1     -36.568  38.645 -61.641  1.00  0.00     0.062 A 
HETATM    5  C   UNL     1     -36.467  38.193 -62.992  1.00  0.00     0.101 C 
HETATM    6  N   UNL     1     -36.384  37.821 -64.087  1.00  0.00    -0.191 NA
HETATM    7  C   UNL     1     -37.587  39.504 -61.233  1.00  0.00     0.028 A 
HETATM    8  C   UNL     1     -37.646  39.913 -59.900  1.00  0.00     0.059 A 
ENDROOT
BRANCH   1   9
HETATM    9  O   UNL     1     -36.773  39.860 -57.709  1.00  0.00    -0.329 OA
BRANCH   9  10
HETATM   10  C   UNL     1     -37.475  41.102 -57.540  1.00  0.00     0.130 C 
HETATM   11  C   UNL     1     -38.097  41.077 -56.134  1.00  0.00     0.034 C 
HETATM   12  C   UNL     1     -37.047  41.121 -55.020  1.00  0.00     0.035 C 
HETATM   13  C   UNL     1     -36.116  42.324 -55.190  1.00  0.00     0.186 C 
HETATM   14  C   UNL     1     -35.451  42.312 -56.564  1.00  0.00     0.035 C 
HETATM   15  C   UNL     1     -36.506  42.287 -57.673  1.00  0.00     0.034 C 
BRANCH  13  16
HETATM   16  N   UNL     1     -35.092  42.286 -54.100  1.00  0.00    -0.067 N 
HETATM   17  H   UNL     1     -34.794  43.233 -53.833  1.00  0.00     0.277 HD
HETATM   18  H   UNL     1     -34.248  41.822 -54.468  1.00  0.00     0.277 HD
BRANCH  16  19
HETATM   19  C   UNL     1     -35.472  41.530 -52.865  1.00  0.00     0.274 C 
BRANCH  19  20
HETATM   20  C   UNL     1     -34.285  40.934 -52.176  1.00  0.00     0.004 A 
HETATM   21  C   UNL     1     -33.388  40.132 -52.864  1.00  0.00     0.113 A 
HETATM   22  C   UNL     1     -32.317  39.527 -52.249  1.00  0.00     0.105 A 
HETATM   23  O   UNL     1     -33.437  39.859 -54.200  1.00  0.00    -0.322 OA
HETATM   24  C   UNL     1     -32.069  39.693 -50.905  1.00  0.00     0.040 A 
HETATM   25  O   UNL     1     -31.575  38.785 -53.109  1.00  0.00    -0.323 OA
HETATM   26  C   UNL     1     -32.948  40.498 -50.177  1.00  0.00     0.003 A 
HETATM   27  C   UNL     1     -34.050  41.111 -50.803  1.00  0.00     0.012 A 
HETATM   28  C   UNL     1     -32.326  38.930 -54.327  1.00  0.00     0.352 A 
ENDBRANCH  19  20
ENDBRANCH  16  19
ENDBRANCH  13  16
ENDBRANCH   9  10
ENDBRANCH   1   9
TORSDOF 5
ENDMDL
MODEL 9
REMARK VINA RESULT:      -7.3      1.620      2.239
REMARK  5 active torsions:
REMARK  status: ('A' for Active; 'I' for Inactive)
REMARK    1  A    between atoms: C_8  and  C_9 
REMARK    2  A    between atoms: C_9  and  N_10 
REMARK    3  A    between atoms: N_10  and  C_13 
REMARK    4  A    between atoms: C_16  and  O_17 
REMARK    5  A    between atoms: O_17  and  C_18 
ROOT
HETATM    1  C   UNL     1     -40.698  54.261 -53.875  1.00  0.00     0.164 A 
HETATM    2  N   UNL     1     -40.283  53.434 -54.857  1.00  0.00    -0.236 NA
HETATM    3  C   UNL     1     -39.960  52.167 -54.495  1.00  0.00     0.142 A 
HETATM    4  C   UNL     1     -40.026  51.694 -53.193  1.00  0.00     0.062 A 
HETATM    5  C   UNL     1     -39.668  50.346 -52.892  1.00  0.00     0.101 C 
HETATM    6  N   UNL     1     -39.372  49.250 -52.651  1.00  0.00    -0.191 NA
HETATM    7  C   UNL     1     -40.446  52.577 -52.199  1.00  0.00     0.028 A 
HETATM    8  C   UNL     1     -40.781  53.887 -52.543  1.00  0.00     0.059 A 
ENDROOT
BRANCH   1   9
HETATM    9  O   UNL     1     -41.011  55.573 -54.178  1.00  0.00    -0.329 OA
BRANCH   9  10
HETATM   10  C   UNL     1     -42.421  55.843 -54.173  1.00  0.00     0.130 C 
HETATM   11  C   UNL     1     -42.592  57.336 -54.499  1.00  0.00     0.034 C 
HETATM   12  C   UNL     1     -42.182  57.680 -55.934  1.00  0.00     0.035 C 
HETATM   13  C   UNL     1     -42.928  56.805 -56.944  1.00  0.00     0.186 C 
HETATM   14  C   UNL     1     -42.705  55.323 -56.654  1.00  0.00     0.035 C 
HETATM   15  C   UNL     1     -43.135  54.982 -55.225  1.00  0.00     0.034 C 
BRANCH  13  16
HETATM   16  N   UNL     1     -42.453  57.160 -58.318  1.00  0.00    -0.067 N 
HETATM   17  H   UNL     1     -41.426  57.194 -58.362  1.00  0.00     0.277 HD
HETATM   18  H   UNL     1     -42.772  58.117 -58.530  1.00  0.00     0.277 HD
BRANCH  16  19
HETATM   19  C   UNL     1     -42.960  56.300 -59.433  1.00  0.00     0.274 C 
BRANCH  19  20
HETATM   20  C   UNL     1     -44.347  56.673 -59.853  1.00  0.00     0.004 A 
HETATM   21  C   UNL     1     -44.690  57.995 -60.090  1.00  0.00     0.113 A 
HETATM   22  C   UNL     1     -45.967  58.376 -60.426  1.00  0.00     0.105 A 
HETATM   23  O   UNL     1     -43.832  59.055 -60.037  1.00  0.00    -0.322 OA
HETATM   24  C   UNL     1     -46.984  57.457 -60.557  1.00  0.00     0.040 A 
HETATM   25  O   UNL     1     -46.080  59.716 -60.606  1.00  0.00    -0.323 OA
HETATM   26  C   UNL     1     -46.677  56.113 -60.331  1.00  0.00     0.003 A 
HETATM   27  C   UNL     1     -45.372  55.722 -59.978  1.00  0.00     0.012 A 
HETATM   28  C   UNL     1     -44.748  60.156 -60.284  1.00  0.00     0.352 A 
ENDBRANCH  19  20
ENDBRANCH  16  19
ENDBRANCH  13  16
ENDBRANCH   9  10
ENDBRANCH   1   9
TORSDOF 5
ENDMDL
MODEL 10
REMARK VINA RESULT:      -7.3      3.240      7.770
REMARK  5 active torsions:
REMARK  status: ('A' for Active; 'I' for Inactive)
REMARK    1  A    between atoms: C_8  and  C_9 
REMARK    2  A    between atoms: C_9  and  N_10 
REMARK    3  A    between atoms: N_10  and  C_13 
REMARK    4  A    between atoms: C_16  and  O_17 
REMARK    5  A    between atoms: O_17  and  C_18 
ROOT
HETATM    1  C   UNL     1     -43.434  57.012 -53.718  1.00  0.00     0.164 A 
HETATM    2  N   UNL     1     -43.316  56.649 -55.012  1.00  0.00    -0.236 NA
HETATM    3  C   UNL     1     -44.067  57.335 -55.911  1.00  0.00     0.142 A 
HETATM    4  C   UNL     1     -44.936  58.360 -55.570  1.00  0.00     0.062 A 
HETATM    5  C   UNL     1     -45.692  59.034 -56.576  1.00  0.00     0.101 C 
HETATM    6  N   UNL     1     -46.309  59.576 -57.396  1.00  0.00    -0.191 NA
HETATM    7  C   UNL     1     -45.045  58.702 -54.223  1.00  0.00     0.028 A 
HETATM    8  C   UNL     1     -44.287  58.011 -53.277  1.00  0.00     0.059 A 
ENDROOT
BRANCH   1   9
HETATM    9  O   UNL     1     -42.719  56.328 -52.753  1.00  0.00    -0.329 OA
BRANCH   9  10
HETATM   10  C   UNL     1     -43.139  56.621 -51.411  1.00  0.00     0.130 C 
HETATM   11  C   UNL     1     -43.873  55.376 -50.889  1.00  0.00     0.034 C 
HETATM   12  C   UNL     1     -42.944  54.174 -50.703  1.00  0.00     0.035 C 
HETATM   13  C   UNL     1     -41.757  54.530 -49.806  1.00  0.00     0.186 C 
HETATM   14  C   UNL     1     -40.991  55.729 -50.360  1.00  0.00     0.035 C 
HETATM   15  C   UNL     1     -41.922  56.933 -50.525  1.00  0.00     0.034 C 
BRANCH  13  16
HETATM   16  N   UNL     1     -40.868  53.331 -49.699  1.00  0.00    -0.067 N 
HETATM   17  H   UNL     1     -41.386  52.463 -49.888  1.00  0.00     0.277 HD
HETATM   18  H   UNL     1     -40.547  53.255 -48.722  1.00  0.00     0.277 HD
BRANCH  16  19
HETATM   19  C   UNL     1     -39.630  53.351 -50.539  1.00  0.00     0.274 C 
BRANCH  19  20
HETATM   20  C   UNL     1     -39.723  52.427 -51.713  1.00  0.00     0.004 A 
HETATM   21  C   UNL     1     -40.067  52.902 -52.969  1.00  0.00     0.113 A 
HETATM   22  C   UNL     1     -40.212  52.073 -54.056  1.00  0.00     0.105 A 
HETATM   23  O   UNL     1     -40.284  54.212 -53.285  1.00  0.00    -0.322 OA
HETATM   24  C   UNL     1     -40.013  50.714 -53.959  1.00  0.00     0.040 A 
HETATM   25  O   UNL     1     -40.558  52.748 -55.181  1.00  0.00    -0.323 OA
HETATM   26  C   UNL     1     -39.661  50.197 -52.711  1.00  0.00     0.003 A 
HETATM   27  C   UNL     1     -39.520  51.043 -51.594  1.00  0.00     0.012 A 
HETATM   28  C   UNL     1     -40.680  54.090 -54.679  1.00  0.00     0.352 A 
ENDBRANCH  19  20
ENDBRANCH  16  19
ENDBRANCH  13  16
ENDBRANCH   9  10
ENDBRANCH   1   9
TORSDOF 5
ENDMDL
