MODEL 1
REMARK VINA RESULT:      -7.8      0.000      0.000
REMARK  11 active torsions:
REMARK  status: ('A' for Active; 'I' for Inactive)
REMARK    1  A    between atoms: O_2  and  C_3 
REMARK    2  A    between atoms: C_6  and  C_7 
REMARK    3  A    between atoms: C_7  and  S_8 
REMARK    4  A    between atoms: C_7  and  C_22 
REMARK    5  A    between atoms: S_8  and  C_9 
REMARK    6  A    between atoms: C_12  and  C_13 
REMARK    7  A    between atoms: C_22  and  C_23 
REMARK       I    between atoms: C_23  and  N_24 
REMARK    8  A    between atoms: N_24  and  C_25 
REMARK    9  A    between atoms: C_25  and  C_26 
REMARK   10  A    between atoms: C_26  and  C_27 
REMARK   11  A    between atoms: C_27  and  N_28 
ROOT
HETATM    1  C   UNL     1     -43.037  57.289 -57.402  1.00  0.00     0.097 C 
ENDROOT
BRANCH   1   2
HETATM    2  C   UNL     1     -43.990  56.931 -58.536  1.00  0.00    -0.043 A 
HETATM    3  C   UNL     1     -43.669  55.963 -59.501  1.00  0.00     0.011 A 
HETATM    4  C   UNL     1     -44.596  55.603 -60.482  1.00  0.00     0.037 A 
HETATM    5  C   UNL     1     -45.866  56.174 -60.491  1.00  0.00     0.068 A 
HETATM    6  C   UNL     1     -46.192  57.157 -59.561  1.00  0.00     0.037 A 
HETATM    7  C   UNL     1     -45.260  57.532 -58.589  1.00  0.00     0.011 A 
BRANCH   5   8
HETATM    8  O   UNL     1     -46.717  55.745 -61.471  1.00  0.00    -0.356 OA
HETATM    9  C   UNL     1     -47.822  56.623 -61.683  1.00  0.00     0.210 C 
ENDBRANCH   5   8
ENDBRANCH   1   2
BRANCH   1  10
HETATM   10  S   UNL     1     -43.764  56.890 -55.753  1.00  0.00    -0.080 SA
BRANCH  10  11
HETATM   11  C   UNL     1     -42.453  56.236 -54.862  1.00  0.00     0.190 A 
HETATM   12  N   UNL     1     -41.368  56.854 -54.476  1.00  0.00    -0.122 NA
HETATM   13  N   UNL     1     -40.583  55.936 -53.829  1.00  0.00    -0.129 NA
HETATM   14  C   UNL     1     -41.182  54.755 -53.874  1.00  0.00     0.162 A 
HETATM   15  N   UNL     1     -42.379  54.917 -54.534  1.00  0.00    -0.317 N 
HETATM   16  H   UNL     1     -43.076  54.213 -54.722  1.00  0.00     0.169 HD
BRANCH  14  17
HETATM   17  C   UNL     1     -40.673  53.503 -53.315  1.00  0.00     0.012 A 
HETATM   18  C   UNL     1     -40.496  53.394 -51.926  1.00  0.00     0.017 A 
HETATM   19  C   UNL     1     -39.999  52.221 -51.350  1.00  0.00     0.025 A 
HETATM   20  C   UNL     1     -39.667  51.141 -52.161  1.00  0.00     0.034 A 
HETATM   21 CL   UNL     1     -39.047  49.700 -51.460  1.00  0.00    -0.084 Cl
HETATM   22  C   UNL     1     -39.831  51.227 -53.543  1.00  0.00     0.025 A 
HETATM   23  C   UNL     1     -40.333  52.401 -54.118  1.00  0.00     0.017 A 
ENDBRANCH  14  17
ENDBRANCH  10  11
ENDBRANCH   1  10
BRANCH   1  24
HETATM   24  C   UNL     1     -42.469  58.696 -57.619  1.00  0.00     0.123 C 
BRANCH  24  25
HETATM   25  C   UNL     1     -42.954  59.691 -56.591  1.00  0.00     0.219 C 
HETATM   26  N   UNL     1     -42.094  59.895 -55.541  1.00  0.00    -0.361 N 
HETATM   27  H   UNL     1     -41.120  59.605 -55.664  1.00  0.00     0.162 HD
HETATM   28  O   UNL     1     -44.039  60.268 -56.666  1.00  0.00    -0.274 OA
BRANCH  26  29
HETATM   29  C   UNL     1     -42.421  60.676 -54.373  1.00  0.00     0.124 C 
BRANCH  29  30
HETATM   30  C   UNL     1     -41.989  60.041 -53.054  1.00  0.00     0.047 C 
BRANCH  30  31
HETATM   31  C   UNL     1     -43.039  59.236 -52.287  1.00  0.00     0.236 C 
BRANCH  31  32
HETATM   32  N   UNL     1     -42.555  57.899 -51.799  1.00  0.00    -0.067 N 
HETATM   33  H   UNL     1     -42.208  57.392 -52.643  1.00  0.00     0.280 HD
HETATM   34  C   UNL     1     -41.450  57.938 -50.761  1.00  0.00     0.261 C 
HETATM   35  C   UNL     1     -41.038  56.508 -50.391  1.00  0.00     0.195 C 
HETATM   36  O   UNL     1     -42.159  55.761 -49.905  1.00  0.00    -0.388 OA
HETATM   37  C   UNL     1     -43.184  55.652 -50.900  1.00  0.00     0.195 C 
HETATM   38  C   UNL     1     -43.709  57.036 -51.297  1.00  0.00     0.261 C 
ENDBRANCH  31  32
ENDBRANCH  30  31
ENDBRANCH  29  30
ENDBRANCH  26  29
ENDBRANCH  24  25
ENDBRANCH   1  24
TORSDOF 11
ENDMDL
MODEL 2
REMARK VINA RESULT:      -7.7      2.735      7.323
REMARK  11 active torsions:
REMARK  status: ('A' for Active; 'I' for Inactive)
REMARK    1  A    between atoms: O_2  and  C_3 
REMARK    2  A    between atoms: C_6  and  C_7 
REMARK    3  A    between atoms: C_7  and  S_8 
REMARK    4  A    between atoms: C_7  and  C_22 
REMARK    5  A    between atoms: S_8  and  C_9 
REMARK    6  A    between atoms: C_12  and  C_13 
REMARK    7  A    between atoms: C_22  and  C_23 
REMARK       I    between atoms: C_23  and  N_24 
REMARK    8  A    between atoms: N_24  and  C_25 
REMARK    9  A    between atoms: C_25  and  C_26 
REMARK   10  A    between atoms: C_26  and  C_27 
REMARK   11  A    between atoms: C_27  and  N_28 
ROOT
HETATM    1  C   UNL     1     -42.314  59.063 -51.877  1.00  0.00     0.097 C 
ENDROOT
BRANCH   1   2
HETATM    2  C   UNL     1     -43.421  59.745 -51.084  1.00  0.00    -0.043 A 
HETATM    3  C   UNL     1     -44.741  59.267 -51.085  1.00  0.00     0.011 A 
HETATM    4  C   UNL     1     -45.715  59.870 -50.286  1.00  0.00     0.037 A 
HETATM    5  C   UNL     1     -45.380  60.930 -49.448  1.00  0.00     0.068 A 
HETATM    6  C   UNL     1     -44.083  61.437 -49.456  1.00  0.00     0.037 A 
HETATM    7  C   UNL     1     -43.110  60.848 -50.268  1.00  0.00     0.011 A 
BRANCH   5   8
HETATM    8  O   UNL     1     -46.390  61.443 -48.683  1.00  0.00    -0.356 OA
HETATM    9  C   UNL     1     -46.084  61.472 -47.289  1.00  0.00     0.210 C 
ENDBRANCH   5   8
ENDBRANCH   1   2
BRANCH   1  10
HETATM   10  S   UNL     1     -40.972  58.440 -50.774  1.00  0.00    -0.080 SA
BRANCH  10  11
HETATM   11  C   UNL     1     -41.159  56.736 -50.804  1.00  0.00     0.190 A 
HETATM   12  N   UNL     1     -41.668  55.975 -49.870  1.00  0.00    -0.122 NA
HETATM   13  N   UNL     1     -41.582  54.679 -50.305  1.00  0.00    -0.129 NA
HETATM   14  C   UNL     1     -40.975  54.665 -51.483  1.00  0.00     0.162 A 
HETATM   15  N   UNL     1     -40.689  55.967 -51.824  1.00  0.00    -0.317 N 
HETATM   16  H   UNL     1     -40.242  56.297 -52.666  1.00  0.00     0.169 HD
BRANCH  14  17
HETATM   17  C   UNL     1     -40.669  53.481 -52.286  1.00  0.00     0.012 A 
HETATM   18  C   UNL     1     -39.905  52.446 -51.720  1.00  0.00     0.017 A 
HETATM   19  C   UNL     1     -39.579  51.303 -52.454  1.00  0.00     0.025 A 
HETATM   20  C   UNL     1     -40.009  51.183 -53.771  1.00  0.00     0.034 A 
HETATM   21 CL   UNL     1     -39.603  49.784 -54.682  1.00  0.00    -0.084 Cl
HETATM   22  C   UNL     1     -40.766  52.197 -54.355  1.00  0.00     0.025 A 
HETATM   23  C   UNL     1     -41.096  53.340 -53.617  1.00  0.00     0.017 A 
ENDBRANCH  14  17
ENDBRANCH  10  11
ENDBRANCH   1  10
BRANCH   1  24
HETATM   24  C   UNL     1     -41.916  59.931 -53.076  1.00  0.00     0.123 C 
BRANCH  24  25
HETATM   25  C   UNL     1     -41.913  59.169 -54.380  1.00  0.00     0.219 C 
HETATM   26  N   UNL     1     -42.205  57.834 -54.264  1.00  0.00    -0.361 N 
HETATM   27  H   UNL     1     -42.666  57.523 -53.404  1.00  0.00     0.162 HD
HETATM   28  O   UNL     1     -41.652  59.687 -55.467  1.00  0.00    -0.274 OA
BRANCH  26  29
HETATM   29  C   UNL     1     -42.102  56.890 -55.350  1.00  0.00     0.124 C 
BRANCH  29  30
HETATM   30  C   UNL     1     -43.410  56.651 -56.101  1.00  0.00     0.047 C 
BRANCH  30  31
HETATM   31  C   UNL     1     -43.488  57.148 -57.545  1.00  0.00     0.236 C 
BRANCH  31  32
HETATM   32  N   UNL     1     -44.466  56.394 -58.403  1.00  0.00    -0.067 N 
HETATM   33  H   UNL     1     -44.994  55.767 -57.757  1.00  0.00     0.280 HD
HETATM   34  C   UNL     1     -45.455  57.245 -59.177  1.00  0.00     0.261 C 
HETATM   35  C   UNL     1     -46.404  56.339 -59.972  1.00  0.00     0.195 C 
HETATM   36  O   UNL     1     -45.675  55.483 -60.858  1.00  0.00    -0.388 OA
HETATM   37  C   UNL     1     -44.788  54.621 -60.136  1.00  0.00     0.195 C 
HETATM   38  C   UNL     1     -43.753  55.434 -59.352  1.00  0.00     0.261 C 
ENDBRANCH  31  32
ENDBRANCH  30  31
ENDBRANCH  29  30
ENDBRANCH  26  29
ENDBRANCH  24  25
ENDBRANCH   1  24
TORSDOF 11
ENDMDL
MODEL 3
REMARK VINA RESULT:      -7.5      2.328      7.459
REMARK  11 active torsions:
REMARK  status: ('A' for Active; 'I' for Inactive)
REMARK    1  A    between atoms: O_2  and  C_3 
REMARK    2  A    between atoms: C_6  and  C_7 
REMARK    3  A    between atoms: C_7  and  S_8 
REMARK    4  A    between atoms: C_7  and  C_22 
REMARK    5  A    between atoms: S_8  and  C_9 
REMARK    6  A    between atoms: C_12  and  C_13 
REMARK    7  A    between atoms: C_22  and  C_23 
REMARK       I    between atoms: C_23  and  N_24 
REMARK    8  A    between atoms: N_24  and  C_25 
REMARK    9  A    between atoms: C_25  and  C_26 
REMARK   10  A    between atoms: C_26  and  C_27 
REMARK   11  A    between atoms: C_27  and  N_28 
ROOT
HETATM    1  C   UNL     1     -43.387  58.853 -52.343  1.00  0.00     0.097 C 
ENDROOT
BRANCH   1   2
HETATM    2  C   UNL     1     -41.931  58.933 -51.899  1.00  0.00    -0.043 A 
HETATM    3  C   UNL     1     -40.873  58.574 -52.751  1.00  0.00     0.011 A 
HETATM    4  C   UNL     1     -39.547  58.732 -52.340  1.00  0.00     0.037 A 
HETATM    5  C   UNL     1     -39.258  59.282 -51.094  1.00  0.00     0.068 A 
HETATM    6  C   UNL     1     -40.294  59.614 -50.225  1.00  0.00     0.037 A 
HETATM    7  C   UNL     1     -41.621  59.442 -50.626  1.00  0.00     0.011 A 
BRANCH   5   8
HETATM    8  O   UNL     1     -37.934  59.423 -50.785  1.00  0.00    -0.356 OA
HETATM    9  C   UNL     1     -37.713  59.984 -49.491  1.00  0.00     0.210 C 
ENDBRANCH   5   8
ENDBRANCH   1   2
BRANCH   1  10
HETATM   10  S   UNL     1     -44.269  57.453 -51.528  1.00  0.00    -0.080 SA
BRANCH  10  11
HETATM   11  C   UNL     1     -43.050  56.271 -51.286  1.00  0.00     0.190 A 
HETATM   12  N   UNL     1     -42.223  56.179 -50.278  1.00  0.00    -0.122 NA
HETATM   13  N   UNL     1     -41.401  55.109 -50.520  1.00  0.00    -0.129 NA
HETATM   14  C   UNL     1     -41.710  54.594 -51.701  1.00  0.00     0.162 A 
HETATM   15  N   UNL     1     -42.758  55.321 -52.215  1.00  0.00    -0.317 N 
HETATM   16  H   UNL     1     -43.236  55.174 -53.092  1.00  0.00     0.169 HD
BRANCH  14  17
HETATM   17  C   UNL     1     -41.061  53.450 -52.343  1.00  0.00     0.012 A 
HETATM   18  C   UNL     1     -41.354  53.161 -53.687  1.00  0.00     0.017 A 
HETATM   19  C   UNL     1     -40.769  52.072 -54.337  1.00  0.00     0.025 A 
HETATM   20  C   UNL     1     -39.884  51.251 -53.646  1.00  0.00     0.034 A 
HETATM   21 CL   UNL     1     -39.168  49.904 -54.436  1.00  0.00    -0.084 Cl
HETATM   22  C   UNL     1     -39.580  51.516 -52.311  1.00  0.00     0.025 A 
HETATM   23  C   UNL     1     -40.164  52.611 -51.663  1.00  0.00     0.017 A 
ENDBRANCH  14  17
ENDBRANCH  10  11
ENDBRANCH   1  10
BRANCH   1  24
HETATM   24  C   UNL     1     -43.476  58.972 -53.869  1.00  0.00     0.123 C 
BRANCH  24  25
HETATM   25  C   UNL     1     -43.944  57.698 -54.533  1.00  0.00     0.219 C 
HETATM   26  N   UNL     1     -42.937  56.906 -55.026  1.00  0.00    -0.361 N 
HETATM   27  H   UNL     1     -41.990  57.072 -54.675  1.00  0.00     0.162 HD
HETATM   28  O   UNL     1     -45.130  57.390 -54.647  1.00  0.00    -0.274 OA
BRANCH  26  29
HETATM   29  C   UNL     1     -43.159  55.732 -55.833  1.00  0.00     0.124 C 
BRANCH  29  30
HETATM   30  C   UNL     1     -42.910  55.939 -57.324  1.00  0.00     0.047 C 
BRANCH  30  31
HETATM   31  C   UNL     1     -43.854  56.886 -58.066  1.00  0.00     0.236 C 
BRANCH  31  32
HETATM   32  N   UNL     1     -44.808  56.196 -59.002  1.00  0.00    -0.067 N 
HETATM   33  H   UNL     1     -45.141  55.344 -58.498  1.00  0.00     0.280 HD
HETATM   34  C   UNL     1     -46.011  57.012 -59.435  1.00  0.00     0.261 C 
HETATM   35  C   UNL     1     -46.905  56.167 -60.351  1.00  0.00     0.195 C 
HETATM   36  O   UNL     1     -46.177  55.701 -61.492  1.00  0.00    -0.388 OA
HETATM   37  C   UNL     1     -45.078  54.868 -61.103  1.00  0.00     0.195 C 
HETATM   38  C   UNL     1     -44.087  55.643 -60.228  1.00  0.00     0.261 C 
ENDBRANCH  31  32
ENDBRANCH  30  31
ENDBRANCH  29  30
ENDBRANCH  26  29
ENDBRANCH  24  25
ENDBRANCH   1  24
TORSDOF 11
ENDMDL
MODEL 4
REMARK VINA RESULT:      -7.5      3.890      8.572
REMARK  11 active torsions:
REMARK  status: ('A' for Active; 'I' for Inactive)
REMARK    1  A    between atoms: O_2  and  C_3 
REMARK    2  A    between atoms: C_6  and  C_7 
REMARK    3  A    between atoms: C_7  and  S_8 
REMARK    4  A    between atoms: C_7  and  C_22 
REMARK    5  A    between atoms: S_8  and  C_9 
REMARK    6  A    between atoms: C_12  and  C_13 
REMARK    7  A    between atoms: C_22  and  C_23 
REMARK       I    between atoms: C_23  and  N_24 
REMARK    8  A    between atoms: N_24  and  C_25 
REMARK    9  A    between atoms: C_25  and  C_26 
REMARK   10  A    between atoms: C_26  and  C_27 
REMARK   11  A    between atoms: C_27  and  N_28 
ROOT
HETATM    1  C   UNL     1     -41.775  55.569 -51.996  1.00  0.00     0.097 C 
ENDROOT
BRANCH   1   2
HETATM    2  C   UNL     1     -41.023  54.349 -52.513  1.00  0.00    -0.043 A 
HETATM    3  C   UNL     1     -40.556  53.342 -51.653  1.00  0.00     0.011 A 
HETATM    4  C   UNL     1     -39.939  52.199 -52.166  1.00  0.00     0.037 A 
HETATM    5  C   UNL     1     -39.813  52.027 -53.542  1.00  0.00     0.068 A 
HETATM    6  C   UNL     1     -40.242  53.028 -54.409  1.00  0.00     0.037 A 
HETATM    7  C   UNL     1     -40.845  54.181 -53.898  1.00  0.00     0.011 A 
BRANCH   5   8
HETATM    8  O   UNL     1     -39.218  50.868 -53.957  1.00  0.00    -0.356 OA
HETATM    9  C   UNL     1     -40.152  49.873 -54.375  1.00  0.00     0.210 C 
ENDBRANCH   5   8
ENDBRANCH   1   2
BRANCH   1  10
HETATM   10  S   UNL     1     -41.037  56.206 -50.429  1.00  0.00    -0.080 SA
BRANCH  10  11
HETATM   11  C   UNL     1     -41.148  57.911 -50.575  1.00  0.00     0.190 A 
HETATM   12  N   UNL     1     -40.164  58.772 -50.604  1.00  0.00    -0.122 NA
HETATM   13  N   UNL     1     -40.717  60.023 -50.692  1.00  0.00    -0.129 NA
HETATM   14  C   UNL     1     -42.037  59.908 -50.664  1.00  0.00     0.162 A 
HETATM   15  N   UNL     1     -42.340  58.568 -50.584  1.00  0.00    -0.317 N 
HETATM   16  H   UNL     1     -43.256  58.147 -50.560  1.00  0.00     0.169 HD
BRANCH  14  17
HETATM   17  C   UNL     1     -43.003  61.005 -50.717  1.00  0.00     0.012 A 
HETATM   18  C   UNL     1     -44.265  60.780 -51.294  1.00  0.00     0.017 A 
HETATM   19  C   UNL     1     -45.214  61.802 -51.379  1.00  0.00     0.025 A 
HETATM   20  C   UNL     1     -44.910  63.068 -50.890  1.00  0.00     0.034 A 
HETATM   21 CL   UNL     1     -46.069  64.332 -51.000  1.00  0.00    -0.084 Cl
HETATM   22  C   UNL     1     -43.663  63.316 -50.317  1.00  0.00     0.025 A 
HETATM   23  C   UNL     1     -42.715  62.290 -50.229  1.00  0.00     0.017 A 
ENDBRANCH  14  17
ENDBRANCH  10  11
ENDBRANCH   1  10
BRANCH   1  24
HETATM   24  C   UNL     1     -43.285  55.306 -52.027  1.00  0.00     0.123 C 
BRANCH  24  25
HETATM   25  C   UNL     1     -44.063  56.418 -52.691  1.00  0.00     0.219 C 
HETATM   26  N   UNL     1     -44.168  56.308 -54.055  1.00  0.00    -0.361 N 
HETATM   27  H   UNL     1     -43.982  55.391 -54.471  1.00  0.00     0.162 HD
HETATM   28  O   UNL     1     -44.553  57.364 -52.074  1.00  0.00    -0.274 OA
BRANCH  26  29
HETATM   29  C   UNL     1     -44.725  57.332 -54.905  1.00  0.00     0.124 C 
BRANCH  29  30
HETATM   30  C   UNL     1     -43.734  57.929 -55.900  1.00  0.00     0.047 C 
BRANCH  30  31
HETATM   31  C   UNL     1     -42.486  57.106 -56.222  1.00  0.00     0.236 C 
BRANCH  31  32
HETATM   32  N   UNL     1     -42.325  56.777 -57.681  1.00  0.00    -0.067 N 
HETATM   33  H   UNL     1     -41.430  56.245 -57.759  1.00  0.00     0.280 HD
HETATM   34  C   UNL     1     -43.440  55.955 -58.297  1.00  0.00     0.261 C 
HETATM   35  C   UNL     1     -43.118  55.669 -59.769  1.00  0.00     0.195 C 
HETATM   36  O   UNL     1     -42.929  56.887 -60.499  1.00  0.00    -0.388 OA
HETATM   37  C   UNL     1     -41.831  57.642 -59.974  1.00  0.00     0.195 C 
HETATM   38  C   UNL     1     -42.084  58.033 -58.514  1.00  0.00     0.261 C 
ENDBRANCH  31  32
ENDBRANCH  30  31
ENDBRANCH  29  30
ENDBRANCH  26  29
ENDBRANCH  24  25
ENDBRANCH   1  24
TORSDOF 11
ENDMDL
MODEL 5
REMARK VINA RESULT:      -7.4      3.824      8.873
REMARK  11 active torsions:
REMARK  status: ('A' for Active; 'I' for Inactive)
REMARK    1  A    between atoms: O_2  and  C_3 
REMARK    2  A    between atoms: C_6  and  C_7 
REMARK    3  A    between atoms: C_7  and  S_8 
REMARK    4  A    between atoms: C_7  and  C_22 
REMARK    5  A    between atoms: S_8  and  C_9 
REMARK    6  A    between atoms: C_12  and  C_13 
REMARK    7  A    between atoms: C_22  and  C_23 
REMARK       I    between atoms: C_23  and  N_24 
REMARK    8  A    between atoms: N_24  and  C_25 
REMARK    9  A    between atoms: C_25  and  C_26 
REMARK   10  A    between atoms: C_26  and  C_27 
REMARK   11  A    between atoms: C_27  and  N_28 
ROOT
HETATM    1  C   UNL     1     -41.352  55.565 -52.333  1.00  0.00     0.097 C 
ENDROOT
BRANCH   1   2
HETATM    2  C   UNL     1     -40.873  54.139 -52.574  1.00  0.00    -0.043 A 
HETATM    3  C   UNL     1     -40.935  53.537 -53.841  1.00  0.00     0.011 A 
HETATM    4  C   UNL     1     -40.417  52.256 -54.045  1.00  0.00     0.037 A 
HETATM    5  C   UNL     1     -39.796  51.575 -53.002  1.00  0.00     0.068 A 
HETATM    6  C   UNL     1     -39.752  52.143 -51.731  1.00  0.00     0.037 A 
HETATM    7  C   UNL     1     -40.286  53.417 -51.519  1.00  0.00     0.011 A 
BRANCH   5   8
HETATM    8  O   UNL     1     -39.296  50.338 -53.297  1.00  0.00    -0.356 OA
HETATM    9  C   UNL     1     -39.710  49.851 -54.573  1.00  0.00     0.210 C 
ENDBRANCH   5   8
ENDBRANCH   1   2
BRANCH   1  10
HETATM   10  S   UNL     1     -41.042  56.100 -50.594  1.00  0.00    -0.080 SA
BRANCH  10  11
HETATM   11  C   UNL     1     -41.192  57.808 -50.645  1.00  0.00     0.190 A 
HETATM   12  N   UNL     1     -40.227  58.689 -50.680  1.00  0.00    -0.122 NA
HETATM   13  N   UNL     1     -40.806  59.931 -50.675  1.00  0.00    -0.129 NA
HETATM   14  C   UNL     1     -42.121  59.787 -50.586  1.00  0.00     0.162 A 
HETATM   15  N   UNL     1     -42.395  58.439 -50.561  1.00  0.00    -0.317 N 
HETATM   16  H   UNL     1     -43.300  57.997 -50.512  1.00  0.00     0.169 HD
BRANCH  14  17
HETATM   17  C   UNL     1     -43.109  60.865 -50.535  1.00  0.00     0.012 A 
HETATM   18  C   UNL     1     -44.476  60.541 -50.518  1.00  0.00     0.017 A 
HETATM   19  C   UNL     1     -45.455  61.538 -50.482  1.00  0.00     0.025 A 
HETATM   20  C   UNL     1     -45.076  62.876 -50.468  1.00  0.00     0.034 A 
HETATM   21 CL   UNL     1     -46.275  64.107 -50.434  1.00  0.00    -0.084 Cl
HETATM   22  C   UNL     1     -43.726  63.221 -50.488  1.00  0.00     0.025 A 
HETATM   23  C   UNL     1     -42.746  62.221 -50.519  1.00  0.00     0.017 A 
ENDBRANCH  14  17
ENDBRANCH  10  11
ENDBRANCH   1  10
BRANCH   1  24
HETATM   24  C   UNL     1     -42.763  55.747 -52.903  1.00  0.00     0.123 C 
BRANCH  24  25
HETATM   25  C   UNL     1     -42.858  56.891 -53.885  1.00  0.00     0.219 C 
HETATM   26  N   UNL     1     -42.567  56.557 -55.183  1.00  0.00    -0.361 N 
HETATM   27  H   UNL     1     -42.593  55.564 -55.433  1.00  0.00     0.162 HD
HETATM   28  O   UNL     1     -43.154  58.041 -53.559  1.00  0.00    -0.274 OA
BRANCH  26  29
HETATM   29  C   UNL     1     -42.441  57.517 -56.253  1.00  0.00     0.124 C 
BRANCH  29  30
HETATM   30  C   UNL     1     -43.001  57.042 -57.591  1.00  0.00     0.047 C 
BRANCH  30  31
HETATM   31  C   UNL     1     -44.424  57.474 -57.946  1.00  0.00     0.236 C 
BRANCH  31  32
HETATM   32  N   UNL     1     -45.129  56.547 -58.898  1.00  0.00    -0.067 N 
HETATM   33  H   UNL     1     -45.666  55.877 -58.304  1.00  0.00     0.280 HD
HETATM   34  C   UNL     1     -46.082  57.208 -59.875  1.00  0.00     0.261 C 
HETATM   35  C   UNL     1     -46.749  56.139 -60.750  1.00  0.00     0.195 C 
HETATM   36  O   UNL     1     -45.769  55.363 -61.448  1.00  0.00    -0.388 OA
HETATM   37  C   UNL     1     -44.905  54.673 -60.538  1.00  0.00     0.195 C 
HETATM   38  C   UNL     1     -44.140  55.664 -59.653  1.00  0.00     0.261 C 
ENDBRANCH  31  32
ENDBRANCH  30  31
ENDBRANCH  29  30
ENDBRANCH  26  29
ENDBRANCH  24  25
ENDBRANCH   1  24
TORSDOF 11
ENDMDL
MODEL 6
REMARK VINA RESULT:      -7.4      3.982      7.642
REMARK  11 active torsions:
REMARK  status: ('A' for Active; 'I' for Inactive)
REMARK    1  A    between atoms: O_2  and  C_3 
REMARK    2  A    between atoms: C_6  and  C_7 
REMARK    3  A    between atoms: C_7  and  S_8 
REMARK    4  A    between atoms: C_7  and  C_22 
REMARK    5  A    between atoms: S_8  and  C_9 
REMARK    6  A    between atoms: C_12  and  C_13 
REMARK    7  A    between atoms: C_22  and  C_23 
REMARK       I    between atoms: C_23  and  N_24 
REMARK    8  A    between atoms: N_24  and  C_25 
REMARK    9  A    between atoms: C_25  and  C_26 
REMARK   10  A    between atoms: C_26  and  C_27 
REMARK   11  A    between atoms: C_27  and  N_28 
ROOT
HETATM    1  C   UNL     1     -41.891  56.247 -53.540  1.00  0.00     0.097 C 
ENDROOT
BRANCH   1   2
HETATM    2  C   UNL     1     -41.189  54.896 -53.473  1.00  0.00    -0.043 A 
HETATM    3  C   UNL     1     -41.042  54.192 -52.266  1.00  0.00     0.011 A 
HETATM    4  C   UNL     1     -40.462  52.921 -52.251  1.00  0.00     0.037 A 
HETATM    5  C   UNL     1     -40.057  52.320 -53.440  1.00  0.00     0.068 A 
HETATM    6  C   UNL     1     -40.166  53.015 -54.642  1.00  0.00     0.037 A 
HETATM    7  C   UNL     1     -40.730  54.294 -54.658  1.00  0.00     0.011 A 
BRANCH   5   8
HETATM    8  O   UNL     1     -39.523  51.066 -53.335  1.00  0.00    -0.356 OA
HETATM    9  C   UNL     1     -40.089  50.133 -54.254  1.00  0.00     0.210 C 
ENDBRANCH   5   8
ENDBRANCH   1   2
BRANCH   1  10
HETATM   10  S   UNL     1     -43.505  56.129 -54.425  1.00  0.00    -0.080 SA
BRANCH  10  11
HETATM   11  C   UNL     1     -43.143  56.622 -56.027  1.00  0.00     0.190 A 
HETATM   12  N   UNL     1     -43.037  55.863 -57.087  1.00  0.00    -0.122 NA
HETATM   13  N   UNL     1     -42.699  56.674 -58.139  1.00  0.00    -0.129 NA
HETATM   14  C   UNL     1     -42.556  57.913 -57.692  1.00  0.00     0.162 A 
HETATM   15  N   UNL     1     -42.830  57.908 -56.343  1.00  0.00    -0.317 N 
HETATM   16  H   UNL     1     -42.824  58.695 -55.713  1.00  0.00     0.169 HD
BRANCH  14  17
HETATM   17  C   UNL     1     -42.184  59.083 -58.488  1.00  0.00     0.012 A 
HETATM   18  C   UNL     1     -42.305  59.028 -59.886  1.00  0.00     0.017 A 
HETATM   19  C   UNL     1     -41.950  60.117 -60.687  1.00  0.00     0.025 A 
HETATM   20  C   UNL     1     -41.461  61.277 -60.095  1.00  0.00     0.034 A 
HETATM   21 CL   UNL     1     -41.012  62.616 -61.075  1.00  0.00    -0.084 Cl
HETATM   22  C   UNL     1     -41.328  61.354 -58.710  1.00  0.00     0.025 A 
HETATM   23  C   UNL     1     -41.689  60.264 -57.909  1.00  0.00     0.017 A 
ENDBRANCH  14  17
ENDBRANCH  10  11
ENDBRANCH   1  10
BRANCH   1  24
HETATM   24  C   UNL     1     -40.901  57.330 -53.984  1.00  0.00     0.123 C 
BRANCH  24  25
HETATM   25  C   UNL     1     -40.486  58.246 -52.857  1.00  0.00     0.219 C 
HETATM   26  N   UNL     1     -41.196  58.082 -51.694  1.00  0.00    -0.361 N 
HETATM   27  H   UNL     1     -41.722  57.211 -51.579  1.00  0.00     0.162 HD
HETATM   28  O   UNL     1     -39.596  59.090 -52.963  1.00  0.00    -0.274 OA
BRANCH  26  29
HETATM   29  C   UNL     1     -41.078  58.952 -50.549  1.00  0.00     0.124 C 
BRANCH  29  30
HETATM   30  C   UNL     1     -41.821  60.278 -50.689  1.00  0.00     0.047 C 
BRANCH  30  31
HETATM   31  C   UNL     1     -43.341  60.216 -50.837  1.00  0.00     0.236 C 
BRANCH  31  32
HETATM   32  N   UNL     1     -43.839  60.528 -52.222  1.00  0.00    -0.067 N 
HETATM   33  H   UNL     1     -44.594  61.239 -52.103  1.00  0.00     0.280 HD
HETATM   34  C   UNL     1     -42.803  61.070 -53.187  1.00  0.00     0.261 C 
HETATM   35  C   UNL     1     -43.464  61.374 -54.537  1.00  0.00     0.195 C 
HETATM   36  O   UNL     1     -44.091  60.206 -55.076  1.00  0.00    -0.388 OA
HETATM   37  C   UNL     1     -45.124  59.722 -54.209  1.00  0.00     0.195 C 
HETATM   38  C   UNL     1     -44.551  59.330 -52.843  1.00  0.00     0.261 C 
ENDBRANCH  31  32
ENDBRANCH  30  31
ENDBRANCH  29  30
ENDBRANCH  26  29
ENDBRANCH  24  25
ENDBRANCH   1  24
TORSDOF 11
ENDMDL
MODEL 7
REMARK VINA RESULT:      -7.2      4.249      8.083
REMARK  11 active torsions:
REMARK  status: ('A' for Active; 'I' for Inactive)
REMARK    1  A    between atoms: O_2  and  C_3 
REMARK    2  A    between atoms: C_6  and  C_7 
REMARK    3  A    between atoms: C_7  and  S_8 
REMARK    4  A    between atoms: C_7  and  C_22 
REMARK    5  A    between atoms: S_8  and  C_9 
REMARK    6  A    between atoms: C_12  and  C_13 
REMARK    7  A    between atoms: C_22  and  C_23 
REMARK       I    between atoms: C_23  and  N_24 
REMARK    8  A    between atoms: N_24  and  C_25 
REMARK    9  A    between atoms: C_25  and  C_26 
REMARK   10  A    between atoms: C_26  and  C_27 
REMARK   11  A    between atoms: C_27  and  N_28 
ROOT
HETATM    1  C   UNL     1     -42.121  55.168 -52.858  1.00  0.00     0.097 C 
ENDROOT
BRANCH   1   2
HETATM    2  C   UNL     1     -41.247  53.928 -52.992  1.00  0.00    -0.043 A 
HETATM    3  C   UNL     1     -40.591  53.356 -51.890  1.00  0.00     0.011 A 
HETATM    4  C   UNL     1     -39.860  52.175 -52.033  1.00  0.00     0.037 A 
HETATM    5  C   UNL     1     -39.804  51.527 -53.265  1.00  0.00     0.068 A 
HETATM    6  C   UNL     1     -40.422  52.095 -54.375  1.00  0.00     0.037 A 
HETATM    7  C   UNL     1     -41.140  53.287 -54.239  1.00  0.00     0.011 A 
BRANCH   5   8
HETATM    8  O   UNL     1     -39.087  50.365 -53.308  1.00  0.00    -0.356 OA
HETATM    9  C   UNL     1     -39.572  49.368 -52.408  1.00  0.00     0.210 C 
ENDBRANCH   5   8
ENDBRANCH   1   2
BRANCH   1  10
HETATM   10  S   UNL     1     -41.954  55.938 -51.189  1.00  0.00    -0.080 SA
BRANCH  10  11
HETATM   11  C   UNL     1     -43.394  56.850 -51.000  1.00  0.00     0.190 A 
HETATM   12  N   UNL     1     -44.605  56.394 -50.816  1.00  0.00    -0.122 NA
HETATM   13  N   UNL     1     -45.445  57.475 -50.757  1.00  0.00    -0.129 NA
HETATM   14  C   UNL     1     -44.736  58.577 -50.956  1.00  0.00     0.162 A 
HETATM   15  N   UNL     1     -43.421  58.205 -51.119  1.00  0.00    -0.317 N 
HETATM   16  H   UNL     1     -42.628  58.809 -51.274  1.00  0.00     0.169 HD
BRANCH  14  17
HETATM   17  C   UNL     1     -45.252  59.945 -50.987  1.00  0.00     0.012 A 
HETATM   18  C   UNL     1     -44.623  60.933 -50.211  1.00  0.00     0.017 A 
HETATM   19  C   UNL     1     -45.090  62.250 -50.200  1.00  0.00     0.025 A 
HETATM   20  C   UNL     1     -46.199  62.595 -50.965  1.00  0.00     0.034 A 
HETATM   21 CL   UNL     1     -46.784  64.211 -50.948  1.00  0.00    -0.084 Cl
HETATM   22  C   UNL     1     -46.841  61.632 -51.741  1.00  0.00     0.025 A 
HETATM   23  C   UNL     1     -46.370  60.313 -51.754  1.00  0.00     0.017 A 
ENDBRANCH  14  17
ENDBRANCH  10  11
ENDBRANCH   1  10
BRANCH   1  24
HETATM   24  C   UNL     1     -43.532  54.874 -53.379  1.00  0.00     0.123 C 
BRANCH  24  25
HETATM   25  C   UNL     1     -43.910  55.724 -54.569  1.00  0.00     0.219 C 
HETATM   26  N   UNL     1     -44.953  56.588 -54.348  1.00  0.00    -0.361 N 
HETATM   27  H   UNL     1     -45.196  56.798 -53.376  1.00  0.00     0.162 HD
HETATM   28  O   UNL     1     -43.349  55.647 -55.662  1.00  0.00    -0.274 OA
BRANCH  26  29
HETATM   29  C   UNL     1     -45.581  57.374 -55.382  1.00  0.00     0.124 C 
BRANCH  29  30
HETATM   30  C   UNL     1     -45.109  58.825 -55.440  1.00  0.00     0.047 C 
BRANCH  30  31
HETATM   31  C   UNL     1     -43.709  59.083 -55.997  1.00  0.00     0.236 C 
BRANCH  31  32
HETATM   32  N   UNL     1     -42.748  59.668 -54.999  1.00  0.00    -0.067 N 
HETATM   33  H   UNL     1     -42.072  60.241 -55.551  1.00  0.00     0.280 HD
HETATM   34  C   UNL     1     -43.366  60.540 -53.923  1.00  0.00     0.261 C 
HETATM   35  C   UNL     1     -42.264  61.091 -53.009  1.00  0.00     0.195 C 
HETATM   36  O   UNL     1     -41.505  60.028 -52.422  1.00  0.00    -0.388 OA
HETATM   37  C   UNL     1     -40.855  59.237 -53.423  1.00  0.00     0.195 C 
HETATM   38  C   UNL     1     -41.881  58.588 -54.358  1.00  0.00     0.261 C 
ENDBRANCH  31  32
ENDBRANCH  30  31
ENDBRANCH  29  30
ENDBRANCH  26  29
ENDBRANCH  24  25
ENDBRANCH   1  24
TORSDOF 11
ENDMDL
MODEL 8
REMARK VINA RESULT:      -7.1      2.772      6.401
REMARK  11 active torsions:
REMARK  status: ('A' for Active; 'I' for Inactive)
REMARK    1  A    between atoms: O_2  and  C_3 
REMARK    2  A    between atoms: C_6  and  C_7 
REMARK    3  A    between atoms: C_7  and  S_8 
REMARK    4  A    between atoms: C_7  and  C_22 
REMARK    5  A    between atoms: S_8  and  C_9 
REMARK    6  A    between atoms: C_12  and  C_13 
REMARK    7  A    between atoms: C_22  and  C_23 
REMARK       I    between atoms: C_23  and  N_24 
REMARK    8  A    between atoms: N_24  and  C_25 
REMARK    9  A    between atoms: C_25  and  C_26 
REMARK   10  A    between atoms: C_26  and  C_27 
REMARK   11  A    between atoms: C_27  and  N_28 
ROOT
HETATM    1  C   UNL     1     -42.658  59.675 -52.574  1.00  0.00     0.097 C 
ENDROOT
BRANCH   1   2
HETATM    2  C   UNL     1     -43.573  59.959 -51.389  1.00  0.00    -0.043 A 
HETATM    3  C   UNL     1     -43.297  60.980 -50.464  1.00  0.00     0.011 A 
HETATM    4  C   UNL     1     -44.195  61.266 -49.433  1.00  0.00     0.037 A 
HETATM    5  C   UNL     1     -45.394  60.566 -49.332  1.00  0.00     0.068 A 
HETATM    6  C   UNL     1     -45.670  59.530 -50.220  1.00  0.00     0.037 A 
HETATM    7  C   UNL     1     -44.766  59.230 -51.242  1.00  0.00     0.011 A 
BRANCH   5   8
HETATM    8  O   UNL     1     -46.223  60.928 -48.307  1.00  0.00    -0.356 OA
HETATM    9  C   UNL     1     -45.658  60.701 -47.016  1.00  0.00     0.210 C 
ENDBRANCH   5   8
ENDBRANCH   1   2
BRANCH   1  10
HETATM   10  S   UNL     1     -41.058  58.933 -52.033  1.00  0.00    -0.080 SA
BRANCH  10  11
HETATM   11  C   UNL     1     -41.396  57.257 -51.895  1.00  0.00     0.190 A 
HETATM   12  N   UNL     1     -42.250  56.683 -51.089  1.00  0.00    -0.122 NA
HETATM   13  N   UNL     1     -42.161  55.331 -51.294  1.00  0.00    -0.129 NA
HETATM   14  C   UNL     1     -41.214  55.098 -52.191  1.00  0.00     0.162 A 
HETATM   15  N   UNL     1     -40.705  56.313 -52.590  1.00  0.00    -0.317 N 
HETATM   16  H   UNL     1     -39.982  56.481 -53.273  1.00  0.00     0.169 HD
BRANCH  14  17
HETATM   17  C   UNL     1     -40.790  53.787 -52.682  1.00  0.00     0.012 A 
HETATM   18  C   UNL     1     -40.071  52.934 -51.827  1.00  0.00     0.017 A 
HETATM   19  C   UNL     1     -39.635  51.678 -52.256  1.00  0.00     0.025 A 
HETATM   20  C   UNL     1     -39.908  51.261 -53.555  1.00  0.00     0.034 A 
HETATM   21 CL   UNL     1     -39.365  49.722 -54.093  1.00  0.00    -0.084 Cl
HETATM   22  C   UNL     1     -40.616  52.090 -54.422  1.00  0.00     0.025 A 
HETATM   23  C   UNL     1     -41.057  53.347 -53.989  1.00  0.00     0.017 A 
ENDBRANCH  14  17
ENDBRANCH  10  11
ENDBRANCH   1  10
BRANCH   1  24
HETATM   24  C   UNL     1     -42.611  60.893 -53.503  1.00  0.00     0.123 C 
BRANCH  24  25
HETATM   25  C   UNL     1     -43.787  60.958 -54.449  1.00  0.00     0.219 C 
HETATM   26  N   UNL     1     -43.465  60.814 -55.775  1.00  0.00    -0.361 N 
HETATM   27  H   UNL     1     -42.554  60.405 -55.998  1.00  0.00     0.162 HD
HETATM   28  O   UNL     1     -44.947  61.144 -54.077  1.00  0.00    -0.274 OA
BRANCH  26  29
HETATM   29  C   UNL     1     -44.402  61.002 -56.856  1.00  0.00     0.124 C 
BRANCH  29  30
HETATM   30  C   UNL     1     -44.737  59.726 -57.624  1.00  0.00     0.047 C 
BRANCH  30  31
HETATM   31  C   UNL     1     -45.647  58.711 -56.930  1.00  0.00     0.236 C 
BRANCH  31  32
HETATM   32  N   UNL     1     -44.923  57.521 -56.363  1.00  0.00    -0.067 N 
HETATM   33  H   UNL     1     -45.535  56.696 -56.549  1.00  0.00     0.280 HD
HETATM   34  C   UNL     1     -43.547  57.252 -56.939  1.00  0.00     0.261 C 
HETATM   35  C   UNL     1     -42.954  55.994 -56.293  1.00  0.00     0.195 C 
HETATM   36  O   UNL     1     -42.885  56.132 -54.869  1.00  0.00    -0.388 OA
HETATM   37  C   UNL     1     -44.187  56.315 -54.301  1.00  0.00     0.195 C 
HETATM   38  C   UNL     1     -44.845  57.589 -54.840  1.00  0.00     0.261 C 
ENDBRANCH  31  32
ENDBRANCH  30  31
ENDBRANCH  29  30
ENDBRANCH  26  29
ENDBRANCH  24  25
ENDBRANCH   1  24
TORSDOF 11
ENDMDL
MODEL 9
REMARK VINA RESULT:      -7.0      3.045      4.151
REMARK  11 active torsions:
REMARK  status: ('A' for Active; 'I' for Inactive)
REMARK    1  A    between atoms: O_2  and  C_3 
REMARK    2  A    between atoms: C_6  and  C_7 
REMARK    3  A    between atoms: C_7  and  S_8 
REMARK    4  A    between atoms: C_7  and  C_22 
REMARK    5  A    between atoms: S_8  and  C_9 
REMARK    6  A    between atoms: C_12  and  C_13 
REMARK    7  A    between atoms: C_22  and  C_23 
REMARK       I    between atoms: C_23  and  N_24 
REMARK    8  A    between atoms: N_24  and  C_25 
REMARK    9  A    between atoms: C_25  and  C_26 
REMARK   10  A    between atoms: C_26  and  C_27 
REMARK   11  A    between atoms: C_27  and  N_28 
ROOT
HETATM    1  C   UNL     1     -43.196  57.529 -56.035  1.00  0.00     0.097 C 
ENDROOT
BRANCH   1   2
HETATM    2  C   UNL     1     -42.723  58.601 -57.009  1.00  0.00    -0.043 A 
HETATM    3  C   UNL     1     -42.303  59.869 -56.574  1.00  0.00     0.011 A 
HETATM    4  C   UNL     1     -41.802  60.802 -57.485  1.00  0.00     0.037 A 
HETATM    5  C   UNL     1     -41.679  60.473 -58.832  1.00  0.00     0.068 A 
HETATM    6  C   UNL     1     -42.120  59.233 -59.286  1.00  0.00     0.037 A 
HETATM    7  C   UNL     1     -42.638  58.303 -58.380  1.00  0.00     0.011 A 
BRANCH   5   8
HETATM    8  O   UNL     1     -41.158  61.437 -59.648  1.00  0.00    -0.356 OA
HETATM    9  C   UNL     1     -40.914  62.673 -58.976  1.00  0.00     0.210 C 
ENDBRANCH   5   8
ENDBRANCH   1   2
BRANCH   1  10
HETATM   10  S   UNL     1     -42.833  55.833 -56.664  1.00  0.00    -0.080 SA
BRANCH  10  11
HETATM   11  C   UNL     1     -41.813  55.149 -55.467  1.00  0.00     0.190 A 
HETATM   12  N   UNL     1     -40.791  54.356 -55.654  1.00  0.00    -0.122 NA
HETATM   13  N   UNL     1     -40.298  54.026 -54.418  1.00  0.00    -0.129 NA
HETATM   14  C   UNL     1     -41.061  54.587 -53.492  1.00  0.00     0.162 A 
HETATM   15  N   UNL     1     -42.041  55.307 -54.135  1.00  0.00    -0.317 N 
HETATM   16  H   UNL     1     -42.772  55.861 -53.715  1.00  0.00     0.169 HD
BRANCH  14  17
HETATM   17  C   UNL     1     -40.891  54.472 -52.043  1.00  0.00     0.012 A 
HETATM   18  C   UNL     1     -40.249  53.339 -51.516  1.00  0.00     0.017 A 
HETATM   19  C   UNL     1     -40.077  53.181 -50.138  1.00  0.00     0.025 A 
HETATM   20  C   UNL     1     -40.551  54.157 -49.267  1.00  0.00     0.034 A 
HETATM   21 CL   UNL     1     -40.351  53.964 -47.572  1.00  0.00    -0.084 Cl
HETATM   22  C   UNL     1     -41.194  55.288 -49.767  1.00  0.00     0.025 A 
HETATM   23  C   UNL     1     -41.363  55.447 -51.148  1.00  0.00     0.017 A 
ENDBRANCH  14  17
ENDBRANCH  10  11
ENDBRANCH   1  10
BRANCH   1  24
HETATM   24  C   UNL     1     -44.624  57.836 -55.570  1.00  0.00     0.123 C 
BRANCH  24  25
HETATM   25  C   UNL     1     -44.729  58.028 -54.076  1.00  0.00     0.219 C 
HETATM   26  N   UNL     1     -45.385  59.169 -53.689  1.00  0.00    -0.361 N 
HETATM   27  H   UNL     1     -45.978  59.631 -54.383  1.00  0.00     0.162 HD
HETATM   28  O   UNL     1     -44.252  57.241 -53.257  1.00  0.00    -0.274 OA
BRANCH  26  29
HETATM   29  C   UNL     1     -45.462  59.631 -52.325  1.00  0.00     0.124 C 
BRANCH  29  30
HETATM   30  C   UNL     1     -44.632  60.879 -52.038  1.00  0.00     0.047 C 
BRANCH  30  31
HETATM   31  C   UNL     1     -43.476  60.738 -51.047  1.00  0.00     0.236 C 
BRANCH  31  32
HETATM   32  N   UNL     1     -42.367  59.838 -51.519  1.00  0.00    -0.067 N 
HETATM   33  H   UNL     1     -42.727  58.863 -51.425  1.00  0.00     0.280 HD
HETATM   34  C   UNL     1     -41.905  60.056 -52.947  1.00  0.00     0.261 C 
HETATM   35  C   UNL     1     -40.803  59.046 -53.293  1.00  0.00     0.195 C 
HETATM   36  O   UNL     1     -39.702  59.157 -52.385  1.00  0.00    -0.388 OA
HETATM   37  C   UNL     1     -40.107  58.883 -51.038  1.00  0.00     0.195 C 
HETATM   38  C   UNL     1     -41.170  59.883 -50.573  1.00  0.00     0.261 C 
ENDBRANCH  31  32
ENDBRANCH  30  31
ENDBRANCH  29  30
ENDBRANCH  26  29
ENDBRANCH  24  25
ENDBRANCH   1  24
TORSDOF 11
ENDMDL
MODEL 10
REMARK VINA RESULT:      -7.0      3.943      8.601
REMARK  11 active torsions:
REMARK  status: ('A' for Active; 'I' for Inactive)
REMARK    1  A    between atoms: O_2  and  C_3 
REMARK    2  A    between atoms: C_6  and  C_7 
REMARK    3  A    between atoms: C_7  and  S_8 
REMARK    4  A    between atoms: C_7  and  C_22 
REMARK    5  A    between atoms: S_8  and  C_9 
REMARK    6  A    between atoms: C_12  and  C_13 
REMARK    7  A    between atoms: C_22  and  C_23 
REMARK       I    between atoms: C_23  and  N_24 
REMARK    8  A    between atoms: N_24  and  C_25 
REMARK    9  A    between atoms: C_25  and  C_26 
REMARK   10  A    between atoms: C_26  and  C_27 
REMARK   11  A    between atoms: C_27  and  N_28 
ROOT
HETATM    1  C   UNL     1     -41.799  55.254 -53.134  1.00  0.00     0.097 C 
ENDROOT
BRANCH   1   2
HETATM    2  C   UNL     1     -41.057  53.923 -53.158  1.00  0.00    -0.043 A 
HETATM    3  C   UNL     1     -40.498  53.361 -51.999  1.00  0.00     0.011 A 
HETATM    4  C   UNL     1     -39.892  52.103 -52.040  1.00  0.00     0.037 A 
HETATM    5  C   UNL     1     -39.869  51.373 -53.226  1.00  0.00     0.068 A 
HETATM    6  C   UNL     1     -40.390  51.927 -54.392  1.00  0.00     0.037 A 
HETATM    7  C   UNL     1     -40.981  53.193 -54.358  1.00  0.00     0.011 A 
BRANCH   5   8
HETATM    8  O   UNL     1     -39.277  50.142 -53.170  1.00  0.00    -0.356 OA
HETATM    9  C   UNL     1     -39.561  49.435 -51.963  1.00  0.00     0.210 C 
ENDBRANCH   5   8
ENDBRANCH   1   2
BRANCH   1  10
HETATM   10  S   UNL     1     -41.551  56.139 -51.534  1.00  0.00    -0.080 SA
BRANCH  10  11
HETATM   11  C   UNL     1     -43.065  56.882 -51.225  1.00  0.00     0.190 A 
HETATM   12  N   UNL     1     -44.148  56.315 -50.762  1.00  0.00    -0.122 NA
HETATM   13  N   UNL     1     -45.123  57.276 -50.711  1.00  0.00    -0.129 NA
HETATM   14  C   UNL     1     -44.631  58.408 -51.193  1.00  0.00     0.162 A 
HETATM   15  N   UNL     1     -43.317  58.183 -51.534  1.00  0.00    -0.317 N 
HETATM   16  H   UNL     1     -42.660  58.846 -51.915  1.00  0.00     0.169 HD
BRANCH  14  17
HETATM   17  C   UNL     1     -45.349  59.676 -51.331  1.00  0.00     0.012 A 
HETATM   18  C   UNL     1     -45.514  60.497 -50.203  1.00  0.00     0.017 A 
HETATM   19  C   UNL     1     -46.203  61.709 -50.285  1.00  0.00     0.025 A 
HETATM   20  C   UNL     1     -46.743  62.114 -51.502  1.00  0.00     0.034 A 
HETATM   21 CL   UNL     1     -47.601  63.600 -51.608  1.00  0.00    -0.084 Cl
HETATM   22  C   UNL     1     -46.594  61.315 -52.634  1.00  0.00     0.025 A 
HETATM   23  C   UNL     1     -45.900  60.103 -52.551  1.00  0.00     0.017 A 
ENDBRANCH  14  17
ENDBRANCH  10  11
ENDBRANCH   1  10
BRANCH   1  24
HETATM   24  C   UNL     1     -43.233  55.063 -53.638  1.00  0.00     0.123 C 
BRANCH  24  25
HETATM   25  C   UNL     1     -43.554  55.921 -54.840  1.00  0.00     0.219 C 
HETATM   26  N   UNL     1     -44.350  57.007 -54.572  1.00  0.00    -0.361 N 
HETATM   27  H   UNL     1     -44.424  57.310 -53.598  1.00  0.00     0.162 HD
HETATM   28  O   UNL     1     -43.157  55.669 -55.978  1.00  0.00    -0.274 OA
BRANCH  26  29
HETATM   29  C   UNL     1     -44.908  57.865 -55.588  1.00  0.00     0.124 C 
BRANCH  29  30
HETATM   30  C   UNL     1     -43.881  58.738 -56.306  1.00  0.00     0.047 C 
BRANCH  30  31
HETATM   31  C   UNL     1     -44.288  59.329 -57.656  1.00  0.00     0.236 C 
BRANCH  31  32
HETATM   32  N   UNL     1     -43.717  58.604 -58.843  1.00  0.00    -0.067 N 
HETATM   33  H   UNL     1     -43.871  59.228 -59.665  1.00  0.00     0.280 HD
HETATM   34  C   UNL     1     -42.242  58.261 -58.758  1.00  0.00     0.261 C 
HETATM   35  C   UNL     1     -41.799  57.561 -60.049  1.00  0.00     0.195 C 
HETATM   36  O   UNL     1     -42.577  56.383 -60.287  1.00  0.00    -0.388 OA
HETATM   37  C   UNL     1     -43.966  56.698 -60.442  1.00  0.00     0.195 C 
HETATM   38  C   UNL     1     -44.523  57.350 -59.173  1.00  0.00     0.261 C 
ENDBRANCH  31  32
ENDBRANCH  30  31
ENDBRANCH  29  30
ENDBRANCH  26  29
ENDBRANCH  24  25
ENDBRANCH   1  24
TORSDOF 11
ENDMDL
