MODEL 1
REMARK VINA RESULT:      -7.6      0.000      0.000
REMARK  4 active torsions:
REMARK  status: ('A' for Active; 'I' for Inactive)
REMARK    1  A    between atoms: O_2  and  C_3 
REMARK    2  A    between atoms: C_4  and  C_5 
REMARK    3  A    between atoms: C_9  and  N_10 
REMARK    4  A    between atoms: C_13  and  C_14 
ROOT
HETATM    1  C   UNL     1     -41.536  57.306 -54.332  1.00  0.00     0.167 C 
HETATM    2  N   UNL     1     -42.121  56.929 -55.613  1.00  0.00    -0.074 N 
HETATM    3  C   UNL     1     -42.422  55.645 -55.980  1.00  0.00     0.736 A 
HETATM    4  N   UNL     1     -42.969  55.663 -57.167  1.00  0.00     0.131 NA
HETATM    5  C   UNL     1     -42.934  56.986 -57.502  1.00  0.00     0.753 A 
HETATM    6  N   UNL     1     -42.439  57.807 -56.580  1.00  0.00     0.037 NA
HETATM    7  N   UNL     1     -42.153  54.602 -55.170  1.00  0.00    -0.214 N 
HETATM    8  C   UNL     1     -41.811  54.839 -53.771  1.00  0.00     0.135 C 
HETATM    9  C   UNL     1     -40.900  56.077 -53.652  1.00  0.00     0.063 C 
HETATM   10  H   UNL     1     -42.609  53.719 -55.381  1.00  0.00     0.178 HD
ENDROOT
BRANCH   1  11
HETATM   11  C   UNL     1     -42.537  58.011 -53.421  1.00  0.00     0.001 A 
HETATM   12  C   UNL     1     -42.115  59.084 -52.618  1.00  0.00     0.076 A 
HETATM   13  C   UNL     1     -42.992  59.705 -51.722  1.00  0.00     0.037 A 
HETATM   14  C   UNL     1     -44.318  59.286 -51.641  1.00  0.00     0.003 A 
HETATM   15  C   UNL     1     -44.764  58.242 -52.447  1.00  0.00     0.001 A 
HETATM   16  C   UNL     1     -43.882  57.608 -53.325  1.00  0.00     0.012 A 
BRANCH  12  17
HETATM   17  O   UNL     1     -40.801  59.471 -52.678  1.00  0.00    -0.355 OA
HETATM   18  C   UNL     1     -40.112  59.170 -51.461  1.00  0.00     0.210 C 
ENDBRANCH  12  17
ENDBRANCH   1  11
BRANCH   8  19
HETATM   19  C   UNL     1     -41.140  53.611 -53.179  1.00  0.00    -0.035 A 
HETATM   20  C   UNL     1     -40.706  52.544 -53.984  1.00  0.00     0.010 A 
HETATM   21  C   UNL     1     -40.088  51.427 -53.417  1.00  0.00     0.019 A 
HETATM   22  C   UNL     1     -39.886  51.373 -52.040  1.00  0.00     0.011 A 
HETATM   23 BR   UNL     1     -39.051  49.860 -51.271  1.00  0.00    -0.051 Br
HETATM   24  C   UNL     1     -40.294  52.426 -51.226  1.00  0.00     0.019 A 
HETATM   25  C   UNL     1     -40.916  53.541 -51.793  1.00  0.00     0.010 A 
ENDBRANCH   8  19
BRANCH   5  26
HETATM   26  N   UNL     1     -43.420  57.356 -58.683  1.00  0.00    -0.229 N 
HETATM   27  H   UNL     1     -43.657  56.617 -59.330  1.00  0.00     0.174 HD
HETATM   28  H   UNL     1     -44.043  58.151 -58.691  1.00  0.00     0.174 HD
ENDBRANCH   5  26
TORSDOF 4
ENDMDL
MODEL 2
REMARK VINA RESULT:      -7.6      2.655      5.043
REMARK  4 active torsions:
REMARK  status: ('A' for Active; 'I' for Inactive)
REMARK    1  A    between atoms: O_2  and  C_3 
REMARK    2  A    between atoms: C_4  and  C_5 
REMARK    3  A    between atoms: C_9  and  N_10 
REMARK    4  A    between atoms: C_13  and  C_14 
ROOT
HETATM    1  C   UNL     1     -43.921  56.307 -56.439  1.00  0.00     0.167 C 
HETATM    2  N   UNL     1     -44.227  57.363 -55.482  1.00  0.00    -0.074 N 
HETATM    3  C   UNL     1     -43.610  57.513 -54.269  1.00  0.00     0.736 A 
HETATM    4  N   UNL     1     -44.089  58.578 -53.682  1.00  0.00     0.131 NA
HETATM    5  C   UNL     1     -45.035  59.016 -54.562  1.00  0.00     0.753 A 
HETATM    6  N   UNL     1     -45.150  58.318 -55.688  1.00  0.00     0.037 NA
HETATM    7  N   UNL     1     -42.673  56.642 -53.846  1.00  0.00    -0.214 N 
HETATM    8  C   UNL     1     -42.084  55.696 -54.789  1.00  0.00     0.135 C 
HETATM    9  C   UNL     1     -43.166  55.157 -55.743  1.00  0.00     0.063 C 
HETATM   10  H   UNL     1     -42.087  56.931 -53.068  1.00  0.00     0.178 HD
ENDROOT
BRANCH   1  11
HETATM   11  C   UNL     1     -43.169  56.829 -57.660  1.00  0.00     0.001 A 
HETATM   12  C   UNL     1     -43.207  56.108 -58.865  1.00  0.00     0.076 A 
HETATM   13  C   UNL     1     -42.473  56.524 -59.980  1.00  0.00     0.037 A 
HETATM   14  C   UNL     1     -41.715  57.692 -59.920  1.00  0.00     0.003 A 
HETATM   15  C   UNL     1     -41.685  58.436 -58.745  1.00  0.00     0.001 A 
HETATM   16  C   UNL     1     -42.401  58.008 -57.624  1.00  0.00     0.012 A 
BRANCH  12  17
HETATM   17  O   UNL     1     -43.928  54.942 -58.909  1.00  0.00    -0.355 OA
HETATM   18  C   UNL     1     -44.675  54.837 -60.125  1.00  0.00     0.210 C 
ENDBRANCH  12  17
ENDBRANCH   1  11
BRANCH   8  19
HETATM   19  C   UNL     1     -41.405  54.562 -54.039  1.00  0.00    -0.035 A 
HETATM   20  C   UNL     1     -41.413  54.493 -52.634  1.00  0.00     0.010 A 
HETATM   21  C   UNL     1     -40.786  53.438 -51.967  1.00  0.00     0.019 A 
HETATM   22  C   UNL     1     -40.155  52.434 -52.699  1.00  0.00     0.011 A 
HETATM   23 BR   UNL     1     -39.305  51.007 -51.797  1.00  0.00    -0.051 Br
HETATM   24  C   UNL     1     -40.150  52.475 -54.090  1.00  0.00     0.019 A 
HETATM   25  C   UNL     1     -40.774  53.533 -54.758  1.00  0.00     0.010 A 
ENDBRANCH   8  19
BRANCH   5  26
HETATM   26  N   UNL     1     -45.733  60.106 -54.256  1.00  0.00    -0.229 N 
HETATM   27  H   UNL     1     -45.530  60.941 -54.787  1.00  0.00     0.174 HD
HETATM   28  H   UNL     1     -46.706  59.973 -54.019  1.00  0.00     0.174 HD
ENDBRANCH   5  26
TORSDOF 4
ENDMDL
MODEL 3
REMARK VINA RESULT:      -7.4      3.561      5.942
REMARK  4 active torsions:
REMARK  status: ('A' for Active; 'I' for Inactive)
REMARK    1  A    between atoms: O_2  and  C_3 
REMARK    2  A    between atoms: C_4  and  C_5 
REMARK    3  A    between atoms: C_9  and  N_10 
REMARK    4  A    between atoms: C_13  and  C_14 
ROOT
HETATM    1  C   UNL     1     -42.290  55.593 -53.112  1.00  0.00     0.167 C 
HETATM    2  N   UNL     1     -41.445  54.468 -53.493  1.00  0.00    -0.074 N 
HETATM    3  C   UNL     1     -41.149  54.121 -54.784  1.00  0.00     0.736 A 
HETATM    4  N   UNL     1     -40.338  53.097 -54.771  1.00  0.00     0.131 NA
HETATM    5  C   UNL     1     -40.207  52.825 -53.440  1.00  0.00     0.753 A 
HETATM    6  N   UNL     1     -40.851  53.643 -52.613  1.00  0.00     0.037 NA
HETATM    7  N   UNL     1     -41.669  54.797 -55.828  1.00  0.00    -0.214 N 
HETATM    8  C   UNL     1     -42.315  56.088 -55.608  1.00  0.00     0.135 C 
HETATM    9  C   UNL     1     -43.146  56.048 -54.311  1.00  0.00     0.063 C 
HETATM   10  H   UNL     1     -41.234  54.658 -56.736  1.00  0.00     0.178 HD
ENDROOT
BRANCH   1  11
HETATM   11  C   UNL     1     -41.488  56.744 -52.511  1.00  0.00     0.001 A 
HETATM   12  C   UNL     1     -41.453  56.916 -51.117  1.00  0.00     0.076 A 
HETATM   13  C   UNL     1     -40.784  58.001 -50.539  1.00  0.00     0.037 A 
HETATM   14  C   UNL     1     -40.108  58.913 -51.347  1.00  0.00     0.003 A 
HETATM   15  C   UNL     1     -40.108  58.746 -52.729  1.00  0.00     0.001 A 
HETATM   16  C   UNL     1     -40.795  57.675 -53.306  1.00  0.00     0.012 A 
BRANCH  12  17
HETATM   17  O   UNL     1     -42.146  56.034 -50.328  1.00  0.00    -0.355 OA
HETATM   18  C   UNL     1     -41.284  55.383 -49.392  1.00  0.00     0.210 C 
ENDBRANCH  12  17
ENDBRANCH   1  11
BRANCH   8  19
HETATM   19  C   UNL     1     -43.185  56.450 -56.801  1.00  0.00    -0.035 A 
HETATM   20  C   UNL     1     -43.155  55.705 -57.993  1.00  0.00     0.010 A 
HETATM   21  C   UNL     1     -43.967  56.055 -59.074  1.00  0.00     0.019 A 
HETATM   22  C   UNL     1     -44.826  57.146 -58.969  1.00  0.00     0.011 A 
HETATM   23 BR   UNL     1     -45.924  57.621 -60.433  1.00  0.00    -0.051 Br
HETATM   24  C   UNL     1     -44.883  57.887 -57.792  1.00  0.00     0.019 A 
HETATM   25  C   UNL     1     -44.067  57.539 -56.712  1.00  0.00     0.010 A 
ENDBRANCH   8  19
BRANCH   5  26
HETATM   26  N   UNL     1     -39.434  51.808 -53.072  1.00  0.00    -0.229 N 
HETATM   27  H   UNL     1     -38.455  51.869 -53.315  1.00  0.00     0.174 HD
HETATM   28  H   UNL     1     -39.629  51.389 -52.174  1.00  0.00     0.174 HD
ENDBRANCH   5  26
TORSDOF 4
ENDMDL
MODEL 4
REMARK VINA RESULT:      -7.4      2.525      4.652
REMARK  4 active torsions:
REMARK  status: ('A' for Active; 'I' for Inactive)
REMARK    1  A    between atoms: O_2  and  C_3 
REMARK    2  A    between atoms: C_4  and  C_5 
REMARK    3  A    between atoms: C_9  and  N_10 
REMARK    4  A    between atoms: C_13  and  C_14 
ROOT
HETATM    1  C   UNL     1     -43.747  57.081 -55.588  1.00  0.00     0.167 C 
HETATM    2  N   UNL     1     -43.022  58.259 -55.130  1.00  0.00    -0.074 N 
HETATM    3  C   UNL     1     -41.801  58.227 -54.512  1.00  0.00     0.736 A 
HETATM    4  N   UNL     1     -41.417  59.453 -54.271  1.00  0.00     0.131 NA
HETATM    5  C   UNL     1     -42.469  60.198 -54.720  1.00  0.00     0.753 A 
HETATM    6  N   UNL     1     -43.471  59.518 -55.270  1.00  0.00     0.037 NA
HETATM    7  N   UNL     1     -41.182  57.061 -54.242  1.00  0.00    -0.214 N 
HETATM    8  C   UNL     1     -41.655  55.827 -54.862  1.00  0.00     0.135 C 
HETATM    9  C   UNL     1     -43.195  55.814 -54.904  1.00  0.00     0.063 C 
HETATM   10  H   UNL     1     -40.193  57.101 -54.012  1.00  0.00     0.178 HD
ENDROOT
BRANCH   1  11
HETATM   11  C   UNL     1     -43.750  56.955 -57.109  1.00  0.00     0.001 A 
HETATM   12  C   UNL     1     -44.810  57.499 -57.853  1.00  0.00     0.076 A 
HETATM   13  C   UNL     1     -44.876  57.340 -59.241  1.00  0.00     0.037 A 
HETATM   14  C   UNL     1     -43.860  56.665 -59.914  1.00  0.00     0.003 A 
HETATM   15  C   UNL     1     -42.787  56.141 -59.200  1.00  0.00     0.001 A 
HETATM   16  C   UNL     1     -42.733  56.280 -57.810  1.00  0.00     0.012 A 
BRANCH  12  17
HETATM   17  O   UNL     1     -45.823  58.136 -57.182  1.00  0.00    -0.355 OA
HETATM   18  C   UNL     1     -46.944  58.376 -58.038  1.00  0.00     0.210 C 
ENDBRANCH  12  17
ENDBRANCH   1  11
BRANCH   8  19
HETATM   19  C   UNL     1     -41.121  54.621 -54.108  1.00  0.00    -0.035 A 
HETATM   20  C   UNL     1     -40.618  53.492 -54.778  1.00  0.00     0.010 A 
HETATM   21  C   UNL     1     -40.128  52.396 -54.063  1.00  0.00     0.019 A 
HETATM   22  C   UNL     1     -40.124  52.425 -52.670  1.00  0.00     0.011 A 
HETATM   23 BR   UNL     1     -39.463  50.943 -51.702  1.00  0.00    -0.051 Br
HETATM   24  C   UNL     1     -40.602  53.540 -51.988  1.00  0.00     0.019 A 
HETATM   25  C   UNL     1     -41.097  54.634 -52.703  1.00  0.00     0.010 A 
ENDBRANCH   8  19
BRANCH   5  26
HETATM   26  N   UNL     1     -42.402  61.522 -54.613  1.00  0.00    -0.229 N 
HETATM   27  H   UNL     1     -43.278  62.024 -54.625  1.00  0.00     0.174 HD
HETATM   28  H   UNL     1     -41.701  61.894 -53.988  1.00  0.00     0.174 HD
ENDBRANCH   5  26
TORSDOF 4
ENDMDL
MODEL 5
REMARK VINA RESULT:      -7.0      2.696      4.332
REMARK  4 active torsions:
REMARK  status: ('A' for Active; 'I' for Inactive)
REMARK    1  A    between atoms: O_2  and  C_3 
REMARK    2  A    between atoms: C_4  and  C_5 
REMARK    3  A    between atoms: C_9  and  N_10 
REMARK    4  A    between atoms: C_13  and  C_14 
ROOT
HETATM    1  C   UNL     1     -43.856  56.442 -54.392  1.00  0.00     0.167 C 
HETATM    2  N   UNL     1     -44.005  56.931 -53.027  1.00  0.00    -0.074 N 
HETATM    3  C   UNL     1     -43.266  56.494 -51.961  1.00  0.00     0.736 A 
HETATM    4  N   UNL     1     -43.622  57.164 -50.897  1.00  0.00     0.131 NA
HETATM    5  C   UNL     1     -44.623  57.968 -51.361  1.00  0.00     0.753 A 
HETATM    6  N   UNL     1     -44.888  57.876 -52.661  1.00  0.00     0.037 NA
HETATM    7  N   UNL     1     -42.344  55.521 -52.099  1.00  0.00    -0.214 N 
HETATM    8  C   UNL     1     -41.905  55.121 -53.432  1.00  0.00     0.135 C 
HETATM    9  C   UNL     1     -43.105  55.095 -54.398  1.00  0.00     0.063 C 
HETATM   10  H   UNL     1     -41.668  55.410 -51.348  1.00  0.00     0.178 HD
ENDROOT
BRANCH   1  11
HETATM   11  C   UNL     1     -43.198  57.469 -55.308  1.00  0.00     0.001 A 
HETATM   12  C   UNL     1     -43.034  57.183 -56.674  1.00  0.00     0.076 A 
HETATM   13  C   UNL     1     -42.373  58.075 -57.525  1.00  0.00     0.037 A 
HETATM   14  C   UNL     1     -41.897  59.287 -57.031  1.00  0.00     0.003 A 
HETATM   15  C   UNL     1     -42.073  59.602 -55.687  1.00  0.00     0.001 A 
HETATM   16  C   UNL     1     -42.713  58.701 -54.832  1.00  0.00     0.012 A 
BRANCH  12  17
HETATM   17  O   UNL     1     -43.476  55.974 -57.149  1.00  0.00    -0.355 OA
HETATM   18  C   UNL     1     -43.459  55.939 -58.579  1.00  0.00     0.210 C 
ENDBRANCH  12  17
ENDBRANCH   1  11
BRANCH   8  19
HETATM   19  C   UNL     1     -41.222  53.764 -53.376  1.00  0.00    -0.035 A 
HETATM   20  C   UNL     1     -41.252  52.875 -54.464  1.00  0.00     0.010 A 
HETATM   21  C   UNL     1     -40.613  51.634 -54.390  1.00  0.00     0.019 A 
HETATM   22  C   UNL     1     -39.929  51.277 -53.231  1.00  0.00     0.011 A 
HETATM   23 BR   UNL     1     -39.067  49.598 -53.130  1.00  0.00    -0.051 Br
HETATM   24  C   UNL     1     -39.874  52.149 -52.149  1.00  0.00     0.019 A 
HETATM   25  C   UNL     1     -40.516  53.389 -52.221  1.00  0.00     0.010 A 
ENDBRANCH   8  19
BRANCH   5  26
HETATM   26  N   UNL     1     -45.223  58.793 -50.508  1.00  0.00    -0.229 N 
HETATM   27  H   UNL     1     -44.638  59.472 -50.042  1.00  0.00     0.174 HD
HETATM   28  H   UNL     1     -46.144  59.121 -50.763  1.00  0.00     0.174 HD
ENDBRANCH   5  26
TORSDOF 4
ENDMDL
MODEL 6
REMARK VINA RESULT:      -6.9     15.997     18.330
REMARK  4 active torsions:
REMARK  status: ('A' for Active; 'I' for Inactive)
REMARK    1  A    between atoms: O_2  and  C_3 
REMARK    2  A    between atoms: C_4  and  C_5 
REMARK    3  A    between atoms: C_9  and  N_10 
REMARK    4  A    between atoms: C_13  and  C_14 
ROOT
HETATM    1  C   UNL     1     -36.332  39.482 -56.112  1.00  0.00     0.167 C 
HETATM    2  N   UNL     1     -36.501  40.296 -54.916  1.00  0.00    -0.074 N 
HETATM    3  C   UNL     1     -35.472  40.832 -54.190  1.00  0.00     0.736 A 
HETATM    4  N   UNL     1     -35.969  41.538 -53.209  1.00  0.00     0.131 NA
HETATM    5  C   UNL     1     -37.315  41.360 -53.353  1.00  0.00     0.753 A 
HETATM    6  N   UNL     1     -37.696  40.621 -54.392  1.00  0.00     0.037 NA
HETATM    7  N   UNL     1     -34.186  40.602 -54.522  1.00  0.00    -0.214 N 
HETATM    8  C   UNL     1     -33.864  40.029 -55.824  1.00  0.00     0.135 C 
HETATM    9  C   UNL     1     -34.891  38.940 -56.190  1.00  0.00     0.063 C 
HETATM   10  H   UNL     1     -33.483  41.209 -54.108  1.00  0.00     0.178 HD
ENDROOT
BRANCH   1  11
HETATM   11  C   UNL     1     -36.734  40.225 -57.383  1.00  0.00     0.001 A 
HETATM   12  C   UNL     1     -37.312  39.519 -58.452  1.00  0.00     0.076 A 
HETATM   13  C   UNL     1     -37.627  40.159 -59.655  1.00  0.00     0.037 A 
HETATM   14  C   UNL     1     -37.405  41.527 -59.796  1.00  0.00     0.003 A 
HETATM   15  C   UNL     1     -36.858  42.251 -58.740  1.00  0.00     0.001 A 
HETATM   16  C   UNL     1     -36.522  41.606 -57.546  1.00  0.00     0.012 A 
BRANCH  12  17
HETATM   17  O   UNL     1     -37.500  38.166 -58.320  1.00  0.00    -0.355 OA
HETATM   18  C   UNL     1     -38.689  37.738 -58.989  1.00  0.00     0.210 C 
ENDBRANCH  12  17
ENDBRANCH   1  11
BRANCH   8  19
HETATM   19  C   UNL     1     -32.452  39.465 -55.816  1.00  0.00    -0.035 A 
HETATM   20  C   UNL     1     -32.097  38.371 -55.008  1.00  0.00     0.010 A 
HETATM   21  C   UNL     1     -30.794  37.867 -55.021  1.00  0.00     0.019 A 
HETATM   22  C   UNL     1     -29.837  38.446 -55.851  1.00  0.00     0.011 A 
HETATM   23 BR   UNL     1     -28.073  37.766 -55.868  1.00  0.00    -0.051 Br
HETATM   24  C   UNL     1     -30.173  39.519 -56.671  1.00  0.00     0.019 A 
HETATM   25  C   UNL     1     -31.475  40.026 -56.655  1.00  0.00     0.010 A 
ENDBRANCH   8  19
BRANCH   5  26
HETATM   26  N   UNL     1     -38.131  41.954 -52.488  1.00  0.00    -0.229 N 
HETATM   27  H   UNL     1     -39.084  42.102 -52.790  1.00  0.00     0.174 HD
HETATM   28  H   UNL     1     -38.022  41.707 -51.514  1.00  0.00     0.174 HD
ENDBRANCH   5  26
TORSDOF 4
ENDMDL
MODEL 7
REMARK VINA RESULT:      -6.8      1.548      2.147
REMARK  4 active torsions:
REMARK  status: ('A' for Active; 'I' for Inactive)
REMARK    1  A    between atoms: O_2  and  C_3 
REMARK    2  A    between atoms: C_4  and  C_5 
REMARK    3  A    between atoms: C_9  and  N_10 
REMARK    4  A    between atoms: C_13  and  C_14 
ROOT
HETATM    1  C   UNL     1     -41.710  58.851 -54.216  1.00  0.00     0.167 C 
HETATM    2  N   UNL     1     -41.891  58.896 -55.662  1.00  0.00    -0.074 N 
HETATM    3  C   UNL     1     -41.984  57.792 -56.467  1.00  0.00     0.736 A 
HETATM    4  N   UNL     1     -42.183  58.183 -57.698  1.00  0.00     0.131 NA
HETATM    5  C   UNL     1     -42.154  59.544 -57.597  1.00  0.00     0.753 A 
HETATM    6  N   UNL     1     -41.994  60.033 -56.371  1.00  0.00     0.037 NA
HETATM    7  N   UNL     1     -41.873  56.547 -55.964  1.00  0.00    -0.214 N 
HETATM    8  C   UNL     1     -41.948  56.337 -54.522  1.00  0.00     0.135 C 
HETATM    9  C   UNL     1     -41.198  57.463 -53.785  1.00  0.00     0.063 C 
HETATM   10  H   UNL     1     -42.188  55.778 -56.551  1.00  0.00     0.178 HD
ENDROOT
BRANCH   1  11
HETATM   11  C   UNL     1     -42.972  59.257 -53.460  1.00  0.00     0.001 A 
HETATM   12  C   UNL     1     -42.881  59.667 -52.119  1.00  0.00     0.076 A 
HETATM   13  C   UNL     1     -44.027  59.979 -51.380  1.00  0.00     0.037 A 
HETATM   14  C   UNL     1     -45.282  59.922 -51.981  1.00  0.00     0.003 A 
HETATM   15  C   UNL     1     -45.392  59.544 -53.316  1.00  0.00     0.001 A 
HETATM   16  C   UNL     1     -44.250  59.211 -54.049  1.00  0.00     0.012 A 
BRANCH  12  17
HETATM   17  O   UNL     1     -41.646  59.691 -51.523  1.00  0.00    -0.355 OA
HETATM   18  C   UNL     1     -41.675  60.424 -50.295  1.00  0.00     0.210 C 
ENDBRANCH  12  17
ENDBRANCH   1  11
BRANCH   8  19
HETATM   19  C   UNL     1     -41.378  54.975 -54.159  1.00  0.00    -0.035 A 
HETATM   20  C   UNL     1     -41.513  54.436 -52.867  1.00  0.00     0.010 A 
HETATM   21  C   UNL     1     -40.984  53.181 -52.558  1.00  0.00     0.019 A 
HETATM   22  C   UNL     1     -40.327  52.446 -53.542  1.00  0.00     0.011 A 
HETATM   23 BR   UNL     1     -39.610  50.748 -53.124  1.00  0.00    -0.051 Br
HETATM   24  C   UNL     1     -40.197  52.954 -54.831  1.00  0.00     0.019 A 
HETATM   25  C   UNL     1     -40.721  54.213 -55.139  1.00  0.00     0.010 A 
ENDBRANCH   8  19
BRANCH   5  26
HETATM   26  N   UNL     1     -42.321  60.267 -58.700  1.00  0.00    -0.229 N 
HETATM   27  H   UNL     1     -42.464  61.259 -58.577  1.00  0.00     0.174 HD
HETATM   28  H   UNL     1     -41.765  60.009 -59.504  1.00  0.00     0.174 HD
ENDBRANCH   5  26
TORSDOF 4
ENDMDL
MODEL 8
REMARK VINA RESULT:      -6.8      2.844      4.260
REMARK  4 active torsions:
REMARK  status: ('A' for Active; 'I' for Inactive)
REMARK    1  A    between atoms: O_2  and  C_3 
REMARK    2  A    between atoms: C_4  and  C_5 
REMARK    3  A    between atoms: C_9  and  N_10 
REMARK    4  A    between atoms: C_13  and  C_14 
ROOT
HETATM    1  C   UNL     1     -43.496  57.408 -53.358  1.00  0.00     0.167 C 
HETATM    2  N   UNL     1     -42.785  58.067 -52.271  1.00  0.00    -0.074 N 
HETATM    3  C   UNL     1     -41.606  57.624 -51.733  1.00  0.00     0.736 A 
HETATM    4  N   UNL     1     -41.221  58.465 -50.810  1.00  0.00     0.131 NA
HETATM    5  C   UNL     1     -42.231  59.383 -50.789  1.00  0.00     0.753 A 
HETATM    6  N   UNL     1     -43.206  59.196 -51.674  1.00  0.00     0.037 NA
HETATM    7  N   UNL     1     -41.024  56.487 -52.162  1.00  0.00    -0.214 N 
HETATM    8  C   UNL     1     -41.474  55.864 -53.402  1.00  0.00     0.135 C 
HETATM    9  C   UNL     1     -43.008  55.953 -53.511  1.00  0.00     0.063 C 
HETATM   10  H   UNL     1     -40.051  56.338 -51.908  1.00  0.00     0.178 HD
ENDROOT
BRANCH   1  11
HETATM   11  C   UNL     1     -43.403  58.184 -54.669  1.00  0.00     0.001 A 
HETATM   12  C   UNL     1     -44.415  59.096 -55.014  1.00  0.00     0.076 A 
HETATM   13  C   UNL     1     -44.393  59.771 -56.239  1.00  0.00     0.037 A 
HETATM   14  C   UNL     1     -43.337  59.572 -57.125  1.00  0.00     0.003 A 
HETATM   15  C   UNL     1     -42.310  58.693 -56.792  1.00  0.00     0.001 A 
HETATM   16  C   UNL     1     -42.344  58.002 -55.578  1.00  0.00     0.012 A 
BRANCH  12  17
HETATM   17  O   UNL     1     -45.468  59.264 -54.152  1.00  0.00    -0.355 OA
HETATM   18  C   UNL     1     -45.662  60.644 -53.829  1.00  0.00     0.210 C 
ENDBRANCH  12  17
ENDBRANCH   1  11
BRANCH   8  19
HETATM   19  C   UNL     1     -41.007  54.419 -53.464  1.00  0.00    -0.035 A 
HETATM   20  C   UNL     1     -40.909  53.724 -54.683  1.00  0.00     0.010 A 
HETATM   21  C   UNL     1     -40.473  52.397 -54.715  1.00  0.00     0.019 A 
HETATM   22  C   UNL     1     -40.119  51.757 -53.530  1.00  0.00     0.011 A 
HETATM   23 BR   UNL     1     -39.530  49.961 -53.573  1.00  0.00    -0.051 Br
HETATM   24  C   UNL     1     -40.192  52.432 -52.315  1.00  0.00     0.019 A 
HETATM   25  C   UNL     1     -40.633  53.758 -52.282  1.00  0.00     0.010 A 
ENDBRANCH   8  19
BRANCH   5  26
HETATM   26  N   UNL     1     -42.152  60.397 -49.932  1.00  0.00    -0.229 N 
HETATM   27  H   UNL     1     -41.232  60.777 -49.760  1.00  0.00     0.174 HD
HETATM   28  H   UNL     1     -42.900  61.075 -49.958  1.00  0.00     0.174 HD
ENDBRANCH   5  26
TORSDOF 4
ENDMDL
MODEL 9
REMARK VINA RESULT:      -6.7      3.355      5.766
REMARK  4 active torsions:
REMARK  status: ('A' for Active; 'I' for Inactive)
REMARK    1  A    between atoms: O_2  and  C_3 
REMARK    2  A    between atoms: C_4  and  C_5 
REMARK    3  A    between atoms: C_9  and  N_10 
REMARK    4  A    between atoms: C_13  and  C_14 
ROOT
HETATM    1  C   UNL     1     -42.853  56.379 -51.986  1.00  0.00     0.167 C 
HETATM    2  N   UNL     1     -41.941  55.249 -51.857  1.00  0.00    -0.074 N 
HETATM    3  C   UNL     1     -41.245  54.691 -52.895  1.00  0.00     0.736 A 
HETATM    4  N   UNL     1     -40.493  53.729 -52.430  1.00  0.00     0.131 NA
HETATM    5  C   UNL     1     -40.805  53.708 -51.101  1.00  0.00     0.753 A 
HETATM    6  N   UNL     1     -41.675  54.628 -50.694  1.00  0.00     0.037 NA
HETATM    7  N   UNL     1     -41.390  55.139 -54.157  1.00  0.00    -0.214 N 
HETATM    8  C   UNL     1     -42.059  56.413 -54.403  1.00  0.00     0.135 C 
HETATM    9  C   UNL     1     -43.267  56.565 -53.459  1.00  0.00     0.063 C 
HETATM   10  H   UNL     1     -40.684  54.861 -54.834  1.00  0.00     0.178 HD
ENDROOT
BRANCH   1  11
HETATM   11  C   UNL     1     -42.279  57.659 -51.386  1.00  0.00     0.001 A 
HETATM   12  C   UNL     1     -43.133  58.737 -51.093  1.00  0.00     0.076 A 
HETATM   13  C   UNL     1     -42.628  59.947 -50.607  1.00  0.00     0.037 A 
HETATM   14  C   UNL     1     -41.262  60.089 -50.370  1.00  0.00     0.003 A 
HETATM   15  C   UNL     1     -40.402  59.025 -50.628  1.00  0.00     0.001 A 
HETATM   16  C   UNL     1     -40.904  57.823 -51.135  1.00  0.00     0.012 A 
BRANCH  12  17
HETATM   17  O   UNL     1     -44.472  58.604 -51.357  1.00  0.00    -0.355 OA
HETATM   18  C   UNL     1     -45.244  59.565 -50.633  1.00  0.00     0.210 C 
ENDBRANCH  12  17
ENDBRANCH   1  11
BRANCH   8  19
HETATM   19  C   UNL     1     -42.489  56.509 -55.858  1.00  0.00    -0.035 A 
HETATM   20  C   UNL     1     -42.552  57.741 -56.532  1.00  0.00     0.010 A 
HETATM   21  C   UNL     1     -42.946  57.804 -57.870  1.00  0.00     0.019 A 
HETATM   22  C   UNL     1     -43.269  56.633 -58.551  1.00  0.00     0.011 A 
HETATM   23 BR   UNL     1     -43.805  56.717 -60.362  1.00  0.00    -0.051 Br
HETATM   24  C   UNL     1     -43.198  55.401 -57.907  1.00  0.00     0.019 A 
HETATM   25  C   UNL     1     -42.808  55.339 -56.566  1.00  0.00     0.010 A 
ENDBRANCH   8  19
BRANCH   5  26
HETATM   26  N   UNL     1     -40.204  52.816 -50.320  1.00  0.00    -0.229 N 
HETATM   27  H   UNL     1     -40.625  51.899 -50.269  1.00  0.00     0.174 HD
HETATM   28  H   UNL     1     -39.194  52.827 -50.309  1.00  0.00     0.174 HD
ENDBRANCH   5  26
TORSDOF 4
ENDMDL
MODEL 10
REMARK VINA RESULT:      -6.3      3.590      6.253
REMARK  4 active torsions:
REMARK  status: ('A' for Active; 'I' for Inactive)
REMARK    1  A    between atoms: O_2  and  C_3 
REMARK    2  A    between atoms: C_4  and  C_5 
REMARK    3  A    between atoms: C_9  and  N_10 
REMARK    4  A    between atoms: C_13  and  C_14 
ROOT
HETATM    1  C   UNL     1     -42.684  56.341 -53.638  1.00  0.00     0.167 C 
HETATM    2  N   UNL     1     -41.873  55.212 -54.077  1.00  0.00    -0.074 N 
HETATM    3  C   UNL     1     -41.413  55.037 -55.354  1.00  0.00     0.736 A 
HETATM    4  N   UNL     1     -40.687  53.951 -55.396  1.00  0.00     0.131 NA
HETATM    5  C   UNL     1     -40.776  53.472 -54.121  1.00  0.00     0.753 A 
HETATM    6  N   UNL     1     -41.477  54.213 -53.268  1.00  0.00     0.037 NA
HETATM    7  N   UNL     1     -41.722  55.907 -56.336  1.00  0.00    -0.214 N 
HETATM    8  C   UNL     1     -42.301  57.204 -56.001  1.00  0.00     0.135 C 
HETATM    9  C   UNL     1     -43.317  57.047 -54.853  1.00  0.00     0.063 C 
HETATM   10  H   UNL     1     -41.166  55.865 -57.186  1.00  0.00     0.178 HD
ENDROOT
BRANCH   1  11
HETATM   11  C   UNL     1     -41.903  57.309 -52.755  1.00  0.00     0.001 A 
HETATM   12  C   UNL     1     -42.394  57.643 -51.481  1.00  0.00     0.076 A 
HETATM   13  C   UNL     1     -41.737  58.580 -50.677  1.00  0.00     0.037 A 
HETATM   14  C   UNL     1     -40.556  59.172 -51.118  1.00  0.00     0.003 A 
HETATM   15  C   UNL     1     -40.038  58.836 -52.365  1.00  0.00     0.001 A 
HETATM   16  C   UNL     1     -40.706  57.917 -53.178  1.00  0.00     0.012 A 
BRANCH  12  17
HETATM   17  O   UNL     1     -43.574  57.082 -51.064  1.00  0.00    -0.355 OA
HETATM   18  C   UNL     1     -44.659  58.008 -51.173  1.00  0.00     0.210 C 
ENDBRANCH  12  17
ENDBRANCH   1  11
BRANCH   8  19
HETATM   19  C   UNL     1     -42.955  57.820 -57.227  1.00  0.00    -0.035 A 
HETATM   20  C   UNL     1     -44.292  57.550 -57.567  1.00  0.00     0.010 A 
HETATM   21  C   UNL     1     -44.873  58.132 -58.697  1.00  0.00     0.019 A 
HETATM   22  C   UNL     1     -44.125  58.998 -59.490  1.00  0.00     0.011 A 
HETATM   23 BR   UNL     1     -44.910  59.784 -61.020  1.00  0.00    -0.051 Br
HETATM   24  C   UNL     1     -42.805  59.291 -59.162  1.00  0.00     0.019 A 
HETATM   25  C   UNL     1     -42.222  58.706 -58.034  1.00  0.00     0.010 A 
ENDBRANCH   8  19
BRANCH   5  26
HETATM   26  N   UNL     1     -40.140  52.344 -53.820  1.00  0.00    -0.229 N 
HETATM   27  H   UNL     1     -39.894  52.205 -52.850  1.00  0.00     0.174 HD
HETATM   28  H   UNL     1     -40.429  51.511 -54.314  1.00  0.00     0.174 HD
ENDBRANCH   5  26
TORSDOF 4
ENDMDL
