MODEL 1
REMARK VINA RESULT:      -8.9      0.000      0.000
REMARK  6 active torsions:
REMARK  status: ('A' for Active; 'I' for Inactive)
REMARK    1  A    between atoms: C_2  and  O_3 
REMARK    2  A    between atoms: O_3  and  C_4 
REMARK    3  A    between atoms: C_7  and  N_8 
REMARK    4  A    between atoms: C_11  and  N_12 
REMARK    5  A    between atoms: C_16  and  O_17 
REMARK    6  A    between atoms: C_16  and  C_18 
ROOT
HETATM    1  N   UNL     1     -43.011  57.476 -55.309  1.00  0.00    -0.251 N 
HETATM    2  C   UNL     1     -43.370  56.781 -54.173  1.00  0.00     0.262 C 
HETATM    3  O   UNL     1     -43.863  55.668 -54.063  1.00  0.00    -0.270 OA
HETATM    4  C   UNL     1     -43.049  57.660 -52.979  1.00  0.00     0.289 C 
HETATM    5  C   UNL     1     -41.879  58.457 -53.507  1.00  0.00     0.146 C 
HETATM    6  C   UNL     1     -42.185  58.528 -54.974  1.00  0.00     0.233 C 
HETATM    7  O   UNL     1     -41.710  59.411 -55.669  1.00  0.00    -0.273 OA
ENDROOT
BRANCH   4   8
HETATM    8  N   UNL     1     -42.701  56.973 -51.625  1.00  0.00    -0.058 N 
HETATM    9  H   UNL     1     -42.980  57.611 -50.865  1.00  0.00     0.281 HD
HETATM   10  C   UNL     1     -43.470  55.670 -51.481  1.00  0.00     0.239 C 
HETATM   11  C   UNL     1     -43.102  54.947 -50.199  1.00  0.00     0.071 C 
HETATM   12  C   UNL     1     -41.596  54.649 -50.109  1.00  0.00     0.088 C 
HETATM   13  C   UNL     1     -40.903  56.019 -50.164  1.00  0.00     0.071 C 
HETATM   14  C   UNL     1     -41.199  56.762 -51.457  1.00  0.00     0.239 C 
BRANCH  12  15
HETATM   15  O   UNL     1     -41.367  54.126 -48.800  1.00  0.00    -0.385 OA
HETATM   16  H   UNL     1     -40.956  53.244 -48.862  1.00  0.00     0.211 HD
ENDBRANCH  12  15
BRANCH  12  17
HETATM   17  C   UNL     1     -41.062  53.628 -51.122  1.00  0.00    -0.024 A 
HETATM   18  C   UNL     1     -40.224  52.570 -50.715  1.00  0.00     0.011 A 
HETATM   19  C   UNL     1     -39.728  51.634 -51.629  1.00  0.00     0.020 A 
HETATM   20  C   UNL     1     -40.084  51.721 -52.970  1.00  0.00     0.011 A 
HETATM   21 BR   UNL     1     -39.412  50.463 -54.206  1.00  0.00    -0.051 Br
HETATM   22  C   UNL     1     -40.947  52.722 -53.396  1.00  0.00     0.020 A 
HETATM   23  C   UNL     1     -41.441  53.658 -52.477  1.00  0.00     0.011 A 
ENDBRANCH  12  17
ENDBRANCH   4   8
BRANCH   1  24
HETATM   24  C   UNL     1     -43.461  57.168 -56.632  1.00  0.00     0.045 A 
HETATM   25  C   UNL     1     -44.413  57.968 -57.285  1.00  0.00     0.033 A 
HETATM   26  C   UNL     1     -44.785  57.724 -58.614  1.00  0.00     0.039 A 
HETATM   27  C   UNL     1     -44.207  56.685 -59.334  1.00  0.00     0.068 A 
HETATM   28  C   UNL     1     -43.304  55.846 -58.695  1.00  0.00     0.039 A 
HETATM   29  C   UNL     1     -42.937  56.087 -57.360  1.00  0.00     0.033 A 
BRANCH  27  30
HETATM   30  O   UNL     1     -44.610  56.579 -60.634  1.00  0.00    -0.352 OA
BRANCH  30  31
HETATM   31  C   UNL     1     -45.555  55.546 -60.916  1.00  0.00     0.171 C 
HETATM   32  C   UNL     1     -46.938  56.172 -60.946  1.00  0.00     0.034 C 
ENDBRANCH  30  31
ENDBRANCH  27  30
ENDBRANCH   1  24
TORSDOF 6
ENDMDL
MODEL 2
REMARK VINA RESULT:      -8.7      1.951      3.190
REMARK  6 active torsions:
REMARK  status: ('A' for Active; 'I' for Inactive)
REMARK    1  A    between atoms: C_2  and  O_3 
REMARK    2  A    between atoms: O_3  and  C_4 
REMARK    3  A    between atoms: C_7  and  N_8 
REMARK    4  A    between atoms: C_11  and  N_12 
REMARK    5  A    between atoms: C_16  and  O_17 
REMARK    6  A    between atoms: C_16  and  C_18 
ROOT
HETATM    1  N   UNL     1     -44.201  57.161 -57.915  1.00  0.00    -0.251 N 
HETATM    2  C   UNL     1     -44.139  57.664 -56.633  1.00  0.00     0.262 C 
HETATM    3  O   UNL     1     -44.951  58.342 -56.020  1.00  0.00    -0.270 OA
HETATM    4  C   UNL     1     -42.813  57.231 -56.036  1.00  0.00     0.289 C 
HETATM    5  C   UNL     1     -42.574  55.929 -56.764  1.00  0.00     0.146 C 
HETATM    6  C   UNL     1     -43.249  56.178 -58.081  1.00  0.00     0.233 C 
HETATM    7  O   UNL     1     -42.936  55.541 -59.073  1.00  0.00    -0.273 OA
ENDROOT
BRANCH   4   8
HETATM    8  N   UNL     1     -42.721  57.042 -54.493  1.00  0.00    -0.058 N 
HETATM    9  H   UNL     1     -43.080  57.899 -54.046  1.00  0.00     0.281 HD
HETATM   10  C   UNL     1     -43.576  55.865 -54.053  1.00  0.00     0.239 C 
HETATM   11  C   UNL     1     -43.454  55.618 -52.560  1.00  0.00     0.071 C 
HETATM   12  C   UNL     1     -42.000  55.368 -52.127  1.00  0.00     0.088 C 
HETATM   13  C   UNL     1     -41.232  56.640 -52.519  1.00  0.00     0.071 C 
HETATM   14  C   UNL     1     -41.278  56.901 -54.016  1.00  0.00     0.239 C 
BRANCH  12  15
HETATM   15  O   UNL     1     -42.010  55.319 -50.699  1.00  0.00    -0.385 OA
HETATM   16  H   UNL     1     -41.888  56.216 -50.336  1.00  0.00     0.211 HD
ENDBRANCH  12  15
BRANCH  12  17
HETATM   17  C   UNL     1     -41.372  54.065 -52.637  1.00  0.00    -0.024 A 
HETATM   18  C   UNL     1     -41.704  53.545 -53.904  1.00  0.00     0.011 A 
HETATM   19  C   UNL     1     -41.141  52.356 -54.380  1.00  0.00     0.020 A 
HETATM   20  C   UNL     1     -40.209  51.675 -53.607  1.00  0.00     0.011 A 
HETATM   21 BR   UNL     1     -39.451  50.068 -54.243  1.00  0.00    -0.051 Br
HETATM   22  C   UNL     1     -39.823  52.185 -52.374  1.00  0.00     0.020 A 
HETATM   23  C   UNL     1     -40.389  53.376 -51.901  1.00  0.00     0.011 A 
ENDBRANCH  12  17
ENDBRANCH   4   8
BRANCH   1  24
HETATM   24  C   UNL     1     -45.099  57.620 -58.931  1.00  0.00     0.045 A 
HETATM   25  C   UNL     1     -46.185  56.837 -59.355  1.00  0.00     0.033 A 
HETATM   26  C   UNL     1     -47.120  57.323 -60.279  1.00  0.00     0.039 A 
HETATM   27  C   UNL     1     -47.005  58.608 -60.796  1.00  0.00     0.068 A 
HETATM   28  C   UNL     1     -45.911  59.382 -60.435  1.00  0.00     0.039 A 
HETATM   29  C   UNL     1     -44.971  58.892 -59.513  1.00  0.00     0.033 A 
BRANCH  27  30
HETATM   30  O   UNL     1     -48.004  58.988 -61.646  1.00  0.00    -0.352 OA
BRANCH  30  31
HETATM   31  C   UNL     1     -48.650  57.935 -62.364  1.00  0.00     0.171 C 
HETATM   32  C   UNL     1     -50.055  58.396 -62.706  1.00  0.00     0.034 C 
ENDBRANCH  30  31
ENDBRANCH  27  30
ENDBRANCH   1  24
TORSDOF 6
ENDMDL
MODEL 3
REMARK VINA RESULT:      -8.6      3.460      9.304
REMARK  6 active torsions:
REMARK  status: ('A' for Active; 'I' for Inactive)
REMARK    1  A    between atoms: C_2  and  O_3 
REMARK    2  A    between atoms: O_3  and  C_4 
REMARK    3  A    between atoms: C_7  and  N_8 
REMARK    4  A    between atoms: C_11  and  N_12 
REMARK    5  A    between atoms: C_16  and  O_17 
REMARK    6  A    between atoms: C_16  and  C_18 
ROOT
HETATM    1  N   UNL     1     -42.231  55.401 -54.654  1.00  0.00    -0.251 N 
HETATM    2  C   UNL     1     -42.878  55.053 -55.820  1.00  0.00     0.262 C 
HETATM    3  O   UNL     1     -43.419  54.002 -56.129  1.00  0.00    -0.270 OA
HETATM    4  C   UNL     1     -42.820  56.252 -56.750  1.00  0.00     0.289 C 
HETATM    5  C   UNL     1     -42.786  57.391 -55.758  1.00  0.00     0.146 C 
HETATM    6  C   UNL     1     -42.079  56.770 -54.590  1.00  0.00     0.233 C 
HETATM    7  O   UNL     1     -41.507  57.463 -53.766  1.00  0.00    -0.273 OA
ENDROOT
BRANCH   4   8
HETATM    8  N   UNL     1     -43.963  56.439 -57.790  1.00  0.00    -0.058 N 
HETATM    9  H   UNL     1     -44.677  55.717 -57.610  1.00  0.00     0.281 HD
HETATM   10  C   UNL     1     -44.602  57.809 -57.633  1.00  0.00     0.239 C 
HETATM   11  C   UNL     1     -45.678  58.044 -58.677  1.00  0.00     0.071 C 
HETATM   12  C   UNL     1     -45.138  57.906 -60.111  1.00  0.00     0.088 C 
HETATM   13  C   UNL     1     -44.604  56.469 -60.211  1.00  0.00     0.071 C 
HETATM   14  C   UNL     1     -43.485  56.200 -59.219  1.00  0.00     0.239 C 
BRANCH  12  15
HETATM   15  O   UNL     1     -46.273  57.983 -60.976  1.00  0.00    -0.385 OA
HETATM   16  H   UNL     1     -46.087  58.592 -61.714  1.00  0.00     0.211 HD
ENDBRANCH  12  15
BRANCH  12  17
HETATM   17  C   UNL     1     -44.140  58.985 -60.549  1.00  0.00    -0.024 A 
HETATM   18  C   UNL     1     -44.556  60.314 -60.769  1.00  0.00     0.011 A 
HETATM   19  C   UNL     1     -43.656  61.307 -61.172  1.00  0.00     0.020 A 
HETATM   20  C   UNL     1     -42.312  60.997 -61.336  1.00  0.00     0.011 A 
HETATM   21 BR   UNL     1     -41.097  62.332 -61.885  1.00  0.00    -0.051 Br
HETATM   22  C   UNL     1     -41.861  59.708 -61.081  1.00  0.00     0.020 A 
HETATM   23  C   UNL     1     -42.764  58.716 -60.678  1.00  0.00     0.011 A 
ENDBRANCH  12  17
ENDBRANCH   4   8
BRANCH   1  24
HETATM   24  C   UNL     1     -41.756  54.471 -53.674  1.00  0.00     0.045 A 
HETATM   25  C   UNL     1     -40.757  53.532 -53.982  1.00  0.00     0.033 A 
HETATM   26  C   UNL     1     -40.223  52.685 -53.001  1.00  0.00     0.039 A 
HETATM   27  C   UNL     1     -40.660  52.760 -51.684  1.00  0.00     0.068 A 
HETATM   28  C   UNL     1     -41.685  53.641 -51.365  1.00  0.00     0.039 A 
HETATM   29  C   UNL     1     -42.224  54.485 -52.350  1.00  0.00     0.033 A 
BRANCH  27  30
HETATM   30  O   UNL     1     -40.030  51.922 -50.810  1.00  0.00    -0.352 OA
BRANCH  30  31
HETATM   31  C   UNL     1     -39.378  50.789 -51.387  1.00  0.00     0.171 C 
HETATM   32  C   UNL     1     -39.838  49.553 -50.637  1.00  0.00     0.034 C 
ENDBRANCH  30  31
ENDBRANCH  27  30
ENDBRANCH   1  24
TORSDOF 6
ENDMDL
MODEL 4
REMARK VINA RESULT:      -8.6      5.145      8.587
REMARK  6 active torsions:
REMARK  status: ('A' for Active; 'I' for Inactive)
REMARK    1  A    between atoms: C_2  and  O_3 
REMARK    2  A    between atoms: O_3  and  C_4 
REMARK    3  A    between atoms: C_7  and  N_8 
REMARK    4  A    between atoms: C_11  and  N_12 
REMARK    5  A    between atoms: C_16  and  O_17 
REMARK    6  A    between atoms: C_16  and  C_18 
ROOT
HETATM    1  N   UNL     1     -42.557  55.570 -51.762  1.00  0.00    -0.251 N 
HETATM    2  C   UNL     1     -42.328  56.842 -52.243  1.00  0.00     0.262 C 
HETATM    3  O   UNL     1     -41.607  57.212 -53.157  1.00  0.00    -0.270 OA
HETATM    4  C   UNL     1     -43.160  57.801 -51.411  1.00  0.00     0.289 C 
HETATM    5  C   UNL     1     -44.323  56.919 -51.021  1.00  0.00     0.146 C 
HETATM    6  C   UNL     1     -43.684  55.562 -50.969  1.00  0.00     0.233 C 
HETATM    7  O   UNL     1     -44.181  54.664 -50.310  1.00  0.00    -0.273 OA
ENDROOT
BRANCH   4   8
HETATM    8  N   UNL     1     -43.648  59.124 -52.072  1.00  0.00    -0.058 N 
HETATM    9  H   UNL     1     -43.544  59.025 -53.094  1.00  0.00     0.281 HD
HETATM   10  C   UNL     1     -45.113  59.367 -51.749  1.00  0.00     0.239 C 
HETATM   11  C   UNL     1     -45.598  60.683 -52.328  1.00  0.00     0.071 C 
HETATM   12  C   UNL     1     -44.771  61.880 -51.828  1.00  0.00     0.088 C 
HETATM   13  C   UNL     1     -43.330  61.600 -52.280  1.00  0.00     0.071 C 
HETATM   14  C   UNL     1     -42.779  60.316 -51.682  1.00  0.00     0.239 C 
BRANCH  12  15
HETATM   15  O   UNL     1     -45.221  63.015 -52.570  1.00  0.00    -0.385 OA
HETATM   16  H   UNL     1     -46.038  63.369 -52.172  1.00  0.00     0.211 HD
ENDBRANCH  12  15
BRANCH  12  17
HETATM   17  C   UNL     1     -44.916  62.207 -50.336  1.00  0.00    -0.024 A 
HETATM   18  C   UNL     1     -44.219  63.288 -49.758  1.00  0.00     0.011 A 
HETATM   19  C   UNL     1     -44.339  63.594 -48.398  1.00  0.00     0.020 A 
HETATM   20  C   UNL     1     -45.183  62.841 -47.592  1.00  0.00     0.011 A 
HETATM   21 BR   UNL     1     -45.344  63.249 -45.756  1.00  0.00    -0.051 Br
HETATM   22  C   UNL     1     -45.921  61.800 -48.140  1.00  0.00     0.020 A 
HETATM   23  C   UNL     1     -45.798  61.496 -49.502  1.00  0.00     0.011 A 
ENDBRANCH  12  17
ENDBRANCH   4   8
BRANCH   1  24
HETATM   24  C   UNL     1     -41.721  54.436 -52.020  1.00  0.00     0.045 A 
HETATM   25  C   UNL     1     -41.726  53.795 -53.270  1.00  0.00     0.033 A 
HETATM   26  C   UNL     1     -40.842  52.746 -53.557  1.00  0.00     0.039 A 
HETATM   27  C   UNL     1     -39.919  52.316 -52.610  1.00  0.00     0.068 A 
HETATM   28  C   UNL     1     -39.932  52.896 -51.348  1.00  0.00     0.039 A 
HETATM   29  C   UNL     1     -40.823  53.943 -51.060  1.00  0.00     0.033 A 
BRANCH  27  30
HETATM   30  O   UNL     1     -39.077  51.324 -53.022  1.00  0.00    -0.352 OA
BRANCH  30  31
HETATM   31  C   UNL     1     -39.663  50.032 -53.188  1.00  0.00     0.171 C 
HETATM   32  C   UNL     1     -39.767  49.753 -54.676  1.00  0.00     0.034 C 
ENDBRANCH  30  31
ENDBRANCH  27  30
ENDBRANCH   1  24
TORSDOF 6
ENDMDL
MODEL 5
REMARK VINA RESULT:      -8.4      3.269      9.136
REMARK  6 active torsions:
REMARK  status: ('A' for Active; 'I' for Inactive)
REMARK    1  A    between atoms: C_2  and  O_3 
REMARK    2  A    between atoms: O_3  and  C_4 
REMARK    3  A    between atoms: C_7  and  N_8 
REMARK    4  A    between atoms: C_11  and  N_12 
REMARK    5  A    between atoms: C_16  and  O_17 
REMARK    6  A    between atoms: C_16  and  C_18 
ROOT
HETATM    1  N   UNL     1     -43.674  57.126 -53.307  1.00  0.00    -0.251 N 
HETATM    2  C   UNL     1     -43.429  56.549 -54.535  1.00  0.00     0.262 C 
HETATM    3  O   UNL     1     -42.895  55.483 -54.803  1.00  0.00    -0.270 OA
HETATM    4  C   UNL     1     -43.950  57.498 -55.598  1.00  0.00     0.289 C 
HETATM    5  C   UNL     1     -45.081  58.174 -54.860  1.00  0.00     0.146 C 
HETATM    6  C   UNL     1     -44.591  58.146 -53.441  1.00  0.00     0.233 C 
HETATM    7  O   UNL     1     -45.019  58.938 -52.618  1.00  0.00    -0.273 OA
ENDROOT
BRANCH   4   8
HETATM    8  N   UNL     1     -44.433  56.901 -56.953  1.00  0.00    -0.058 N 
HETATM    9  H   UNL     1     -44.935  56.023 -56.751  1.00  0.00     0.281 HD
HETATM   10  C   UNL     1     -45.386  57.862 -57.644  1.00  0.00     0.239 C 
HETATM   11  C   UNL     1     -45.824  57.333 -58.997  1.00  0.00     0.071 C 
HETATM   12  C   UNL     1     -44.631  57.057 -59.929  1.00  0.00     0.088 C 
HETATM   13  C   UNL     1     -43.776  56.009 -59.199  1.00  0.00     0.071 C 
HETATM   14  C   UNL     1     -43.268  56.513 -57.858  1.00  0.00     0.239 C 
BRANCH  12  15
HETATM   15  O   UNL     1     -45.167  56.415 -61.087  1.00  0.00    -0.385 OA
HETATM   16  H   UNL     1     -45.347  57.077 -61.779  1.00  0.00     0.211 HD
ENDBRANCH  12  15
BRANCH  12  17
HETATM   17  C   UNL     1     -43.855  58.295 -60.395  1.00  0.00    -0.024 A 
HETATM   18  C   UNL     1     -42.455  58.256 -60.558  1.00  0.00     0.011 A 
HETATM   19  C   UNL     1     -41.735  59.379 -60.979  1.00  0.00     0.020 A 
HETATM   20  C   UNL     1     -42.405  60.560 -61.275  1.00  0.00     0.011 A 
HETATM   21 BR   UNL     1     -41.436  62.078 -61.838  1.00  0.00    -0.051 Br
HETATM   22  C   UNL     1     -43.789  60.617 -61.171  1.00  0.00     0.020 A 
HETATM   23  C   UNL     1     -44.507  59.491 -60.749  1.00  0.00     0.011 A 
ENDBRANCH  12  17
ENDBRANCH   4   8
BRANCH   1  24
HETATM   24  C   UNL     1     -43.040  56.742 -52.082  1.00  0.00     0.045 A 
HETATM   25  C   UNL     1     -43.451  55.602 -51.371  1.00  0.00     0.033 A 
HETATM   26  C   UNL     1     -42.771  55.171 -50.225  1.00  0.00     0.039 A 
HETATM   27  C   UNL     1     -41.654  55.856 -49.761  1.00  0.00     0.068 A 
HETATM   28  C   UNL     1     -41.260  57.017 -50.414  1.00  0.00     0.039 A 
HETATM   29  C   UNL     1     -41.946  57.452 -51.560  1.00  0.00     0.033 A 
BRANCH  27  30
HETATM   30  O   UNL     1     -41.045  55.311 -48.668  1.00  0.00    -0.352 OA
BRANCH  30  31
HETATM   31  C   UNL     1     -40.586  53.966 -48.812  1.00  0.00     0.171 C 
HETATM   32  C   UNL     1     -39.423  53.971 -49.788  1.00  0.00     0.034 C 
ENDBRANCH  30  31
ENDBRANCH  27  30
ENDBRANCH   1  24
TORSDOF 6
ENDMDL
MODEL 6
REMARK VINA RESULT:      -8.4      3.118      7.583
REMARK  6 active torsions:
REMARK  status: ('A' for Active; 'I' for Inactive)
REMARK    1  A    between atoms: C_2  and  O_3 
REMARK    2  A    between atoms: O_3  and  C_4 
REMARK    3  A    between atoms: C_7  and  N_8 
REMARK    4  A    between atoms: C_11  and  N_12 
REMARK    5  A    between atoms: C_16  and  O_17 
REMARK    6  A    between atoms: C_16  and  C_18 
ROOT
HETATM    1  N   UNL     1     -42.401  55.494 -52.151  1.00  0.00    -0.251 N 
HETATM    2  C   UNL     1     -42.223  56.746 -52.700  1.00  0.00     0.262 C 
HETATM    3  O   UNL     1     -41.642  57.075 -53.724  1.00  0.00    -0.270 OA
HETATM    4  C   UNL     1     -42.898  57.748 -51.781  1.00  0.00     0.289 C 
HETATM    5  C   UNL     1     -44.006  56.906 -51.192  1.00  0.00     0.146 C 
HETATM    6  C   UNL     1     -43.395  55.535 -51.197  1.00  0.00     0.233 C 
HETATM    7  O   UNL     1     -43.803  54.668 -50.444  1.00  0.00    -0.273 OA
ENDROOT
BRANCH   4   8
HETATM    8  N   UNL     1     -43.454  59.064 -52.400  1.00  0.00    -0.058 N 
HETATM    9  H   UNL     1     -43.851  59.631 -51.635  1.00  0.00     0.281 HD
HETATM   10  C   UNL     1     -42.336  59.850 -53.064  1.00  0.00     0.239 C 
HETATM   11  C   UNL     1     -42.861  61.107 -53.732  1.00  0.00     0.071 C 
HETATM   12  C   UNL     1     -43.946  60.802 -54.779  1.00  0.00     0.088 C 
HETATM   13  C   UNL     1     -45.073  60.100 -54.007  1.00  0.00     0.071 C 
HETATM   14  C   UNL     1     -44.609  58.803 -53.363  1.00  0.00     0.239 C 
BRANCH  12  15
HETATM   15  O   UNL     1     -44.463  62.065 -55.201  1.00  0.00    -0.385 OA
HETATM   16  H   UNL     1     -45.436  62.057 -55.154  1.00  0.00     0.211 HD
ENDBRANCH  12  15
BRANCH  12  17
HETATM   17  C   UNL     1     -43.468  60.050 -56.027  1.00  0.00    -0.024 A 
HETATM   18  C   UNL     1     -44.333  59.190 -56.734  1.00  0.00     0.011 A 
HETATM   19  C   UNL     1     -43.909  58.496 -57.872  1.00  0.00     0.020 A 
HETATM   20  C   UNL     1     -42.614  58.669 -58.345  1.00  0.00     0.011 A 
HETATM   21 BR   UNL     1     -42.036  57.730 -59.877  1.00  0.00    -0.051 Br
HETATM   22  C   UNL     1     -41.750  59.546 -57.700  1.00  0.00     0.020 A 
HETATM   23  C   UNL     1     -42.179  60.239 -56.561  1.00  0.00     0.011 A 
ENDBRANCH  12  17
ENDBRANCH   4   8
BRANCH   1  24
HETATM   24  C   UNL     1     -41.638  54.334 -52.500  1.00  0.00     0.045 A 
HETATM   25  C   UNL     1     -41.794  53.702 -53.745  1.00  0.00     0.033 A 
HETATM   26  C   UNL     1     -40.983  52.625 -54.125  1.00  0.00     0.039 A 
HETATM   27  C   UNL     1     -39.984  52.155 -53.281  1.00  0.00     0.068 A 
HETATM   28  C   UNL     1     -39.845  52.726 -52.022  1.00  0.00     0.039 A 
HETATM   29  C   UNL     1     -40.664  53.802 -51.639  1.00  0.00     0.033 A 
BRANCH  27  30
HETATM   30  O   UNL     1     -39.225  51.138 -53.782  1.00  0.00    -0.352 OA
BRANCH  30  31
HETATM   31  C   UNL     1     -39.790  49.830 -53.689  1.00  0.00     0.171 C 
HETATM   32  C   UNL     1     -39.624  49.349 -52.259  1.00  0.00     0.034 C 
ENDBRANCH  30  31
ENDBRANCH  27  30
ENDBRANCH   1  24
TORSDOF 6
ENDMDL
MODEL 7
REMARK VINA RESULT:      -8.3      5.114      8.059
REMARK  6 active torsions:
REMARK  status: ('A' for Active; 'I' for Inactive)
REMARK    1  A    between atoms: C_2  and  O_3 
REMARK    2  A    between atoms: O_3  and  C_4 
REMARK    3  A    between atoms: C_7  and  N_8 
REMARK    4  A    between atoms: C_11  and  N_12 
REMARK    5  A    between atoms: C_16  and  O_17 
REMARK    6  A    between atoms: C_16  and  C_18 
ROOT
HETATM    1  N   UNL     1     -42.071  57.082 -52.583  1.00  0.00    -0.251 N 
HETATM    2  C   UNL     1     -42.913  57.961 -53.231  1.00  0.00     0.262 C 
HETATM    3  O   UNL     1     -43.636  57.779 -54.200  1.00  0.00    -0.270 OA
HETATM    4  C   UNL     1     -42.809  59.300 -52.523  1.00  0.00     0.289 C 
HETATM    5  C   UNL     1     -42.480  58.862 -51.115  1.00  0.00     0.146 C 
HETATM    6  C   UNL     1     -41.718  57.591 -51.351  1.00  0.00     0.233 C 
HETATM    7  O   UNL     1     -40.947  57.160 -50.511  1.00  0.00    -0.273 OA
ENDROOT
BRANCH   4   8
HETATM    8  N   UNL     1     -44.044  60.249 -52.547  1.00  0.00    -0.058 N 
HETATM    9  H   UNL     1     -44.324  60.379 -53.531  1.00  0.00     0.281 HD
HETATM   10  C   UNL     1     -45.203  59.628 -51.785  1.00  0.00     0.239 C 
HETATM   11  C   UNL     1     -46.399  60.561 -51.737  1.00  0.00     0.071 C 
HETATM   12  C   UNL     1     -46.055  61.919 -51.103  1.00  0.00     0.088 C 
HETATM   13  C   UNL     1     -44.950  62.516 -51.989  1.00  0.00     0.071 C 
HETATM   14  C   UNL     1     -43.707  61.642 -52.025  1.00  0.00     0.239 C 
BRANCH  12  15
HETATM   15  O   UNL     1     -47.208  62.745 -51.274  1.00  0.00    -0.385 OA
HETATM   16  H   UNL     1     -47.780  62.375 -51.971  1.00  0.00     0.211 HD
ENDBRANCH  12  15
BRANCH  12  17
HETATM   17  C   UNL     1     -45.719  61.885 -49.607  1.00  0.00    -0.024 A 
HETATM   18  C   UNL     1     -45.776  60.681 -48.877  1.00  0.00     0.011 A 
HETATM   19  C   UNL     1     -45.475  60.636 -47.511  1.00  0.00     0.020 A 
HETATM   20  C   UNL     1     -45.082  61.794 -46.851  1.00  0.00     0.011 A 
HETATM   21 BR   UNL     1     -44.681  61.739 -45.008  1.00  0.00    -0.051 Br
HETATM   22  C   UNL     1     -44.969  62.988 -47.553  1.00  0.00     0.020 A 
HETATM   23  C   UNL     1     -45.271  63.029 -48.920  1.00  0.00     0.011 A 
ENDBRANCH  12  17
ENDBRANCH   4   8
BRANCH   1  24
HETATM   24  C   UNL     1     -41.607  55.843 -53.129  1.00  0.00     0.045 A 
HETATM   25  C   UNL     1     -40.773  55.808 -54.258  1.00  0.00     0.033 A 
HETATM   26  C   UNL     1     -40.240  54.604 -54.737  1.00  0.00     0.039 A 
HETATM   27  C   UNL     1     -40.514  53.401 -54.095  1.00  0.00     0.068 A 
HETATM   28  C   UNL     1     -41.380  53.401 -53.010  1.00  0.00     0.039 A 
HETATM   29  C   UNL     1     -41.918  54.609 -52.534  1.00  0.00     0.033 A 
BRANCH  27  30
HETATM   30  O   UNL     1     -39.897  52.304 -54.622  1.00  0.00    -0.352 OA
BRANCH  30  31
HETATM   31  C   UNL     1     -39.647  51.229 -53.714  1.00  0.00     0.171 C 
HETATM   32  C   UNL     1     -39.983  49.930 -54.423  1.00  0.00     0.034 C 
ENDBRANCH  30  31
ENDBRANCH  27  30
ENDBRANCH   1  24
TORSDOF 6
ENDMDL
MODEL 8
REMARK VINA RESULT:      -8.2      2.963      4.075
REMARK  6 active torsions:
REMARK  status: ('A' for Active; 'I' for Inactive)
REMARK    1  A    between atoms: C_2  and  O_3 
REMARK    2  A    between atoms: O_3  and  C_4 
REMARK    3  A    between atoms: C_7  and  N_8 
REMARK    4  A    between atoms: C_11  and  N_12 
REMARK    5  A    between atoms: C_16  and  O_17 
REMARK    6  A    between atoms: C_16  and  C_18 
ROOT
HETATM    1  N   UNL     1     -42.949  57.701 -58.616  1.00  0.00    -0.251 N 
HETATM    2  C   UNL     1     -42.684  58.046 -57.307  1.00  0.00     0.262 C 
HETATM    3  O   UNL     1     -42.806  59.124 -56.744  1.00  0.00    -0.270 OA
HETATM    4  C   UNL     1     -42.172  56.804 -56.602  1.00  0.00     0.289 C 
HETATM    5  C   UNL     1     -42.878  55.715 -57.375  1.00  0.00     0.146 C 
HETATM    6  C   UNL     1     -43.004  56.330 -58.739  1.00  0.00     0.233 C 
HETATM    7  O   UNL     1     -43.146  55.630 -59.728  1.00  0.00    -0.273 OA
ENDROOT
BRANCH   4   8
HETATM    8  N   UNL     1     -42.421  56.664 -55.071  1.00  0.00    -0.058 N 
HETATM    9  H   UNL     1     -42.886  57.525 -54.746  1.00  0.00     0.281 HD
HETATM   10  C   UNL     1     -43.329  55.479 -54.789  1.00  0.00     0.239 C 
HETATM   11  C   UNL     1     -43.537  55.281 -53.299  1.00  0.00     0.071 C 
HETATM   12  C   UNL     1     -42.211  55.083 -52.546  1.00  0.00     0.088 C 
HETATM   13  C   UNL     1     -41.399  56.361 -52.804  1.00  0.00     0.071 C 
HETATM   14  C   UNL     1     -41.117  56.576 -54.283  1.00  0.00     0.239 C 
BRANCH  12  15
HETATM   15  O   UNL     1     -42.536  55.077 -51.155  1.00  0.00    -0.385 OA
HETATM   16  H   UNL     1     -43.355  54.570 -51.009  1.00  0.00     0.211 HD
ENDBRANCH  12  15
BRANCH  12  17
HETATM   17  C   UNL     1     -41.461  53.782 -52.859  1.00  0.00    -0.024 A 
HETATM   18  C   UNL     1     -41.633  53.122 -54.092  1.00  0.00     0.011 A 
HETATM   19  C   UNL     1     -40.958  51.933 -54.388  1.00  0.00     0.020 A 
HETATM   20  C   UNL     1     -40.071  51.392 -53.465  1.00  0.00     0.011 A 
HETATM   21 BR   UNL     1     -39.163  49.786 -53.859  1.00  0.00    -0.051 Br
HETATM   22  C   UNL     1     -39.842  52.043 -52.259  1.00  0.00     0.020 A 
HETATM   23  C   UNL     1     -40.520  53.234 -51.966  1.00  0.00     0.011 A 
ENDBRANCH  12  17
ENDBRANCH   4   8
BRANCH   1  24
HETATM   24  C   UNL     1     -43.106  58.634 -59.690  1.00  0.00     0.045 A 
HETATM   25  C   UNL     1     -44.365  59.159 -60.024  1.00  0.00     0.033 A 
HETATM   26  C   UNL     1     -44.508  60.143 -61.012  1.00  0.00     0.039 A 
HETATM   27  C   UNL     1     -43.399  60.640 -61.686  1.00  0.00     0.068 A 
HETATM   28  C   UNL     1     -42.150  60.098 -61.414  1.00  0.00     0.039 A 
HETATM   29  C   UNL     1     -42.008  59.107 -60.427  1.00  0.00     0.033 A 
BRANCH  27  30
HETATM   30  O   UNL     1     -43.657  61.631 -62.587  1.00  0.00    -0.352 OA
BRANCH  30  31
HETATM   31  C   UNL     1     -42.649  62.634 -62.722  1.00  0.00     0.171 C 
HETATM   32  C   UNL     1     -42.984  63.474 -63.941  1.00  0.00     0.034 C 
ENDBRANCH  30  31
ENDBRANCH  27  30
ENDBRANCH   1  24
TORSDOF 6
ENDMDL
MODEL 9
REMARK VINA RESULT:      -8.1      4.991      8.233
REMARK  6 active torsions:
REMARK  status: ('A' for Active; 'I' for Inactive)
REMARK    1  A    between atoms: C_2  and  O_3 
REMARK    2  A    between atoms: O_3  and  C_4 
REMARK    3  A    between atoms: C_7  and  N_8 
REMARK    4  A    between atoms: C_11  and  N_12 
REMARK    5  A    between atoms: C_16  and  O_17 
REMARK    6  A    between atoms: C_16  and  C_18 
ROOT
HETATM    1  N   UNL     1     -42.866  56.507 -52.799  1.00  0.00    -0.251 N 
HETATM    2  C   UNL     1     -42.736  57.263 -51.653  1.00  0.00     0.262 C 
HETATM    3  O   UNL     1     -41.762  57.428 -50.934  1.00  0.00    -0.270 OA
HETATM    4  C   UNL     1     -44.079  57.914 -51.380  1.00  0.00     0.289 C 
HETATM    5  C   UNL     1     -44.631  58.048 -52.780  1.00  0.00     0.146 C 
HETATM    6  C   UNL     1     -44.010  56.873 -53.476  1.00  0.00     0.233 C 
HETATM    7  O   UNL     1     -44.515  56.407 -54.483  1.00  0.00    -0.273 OA
ENDROOT
BRANCH   4   8
HETATM    8  N   UNL     1     -44.103  59.277 -50.628  1.00  0.00    -0.058 N 
HETATM    9  H   UNL     1     -43.580  59.162 -49.746  1.00  0.00     0.281 HD
HETATM   10  C   UNL     1     -43.426  60.353 -51.462  1.00  0.00     0.239 C 
HETATM   11  C   UNL     1     -43.492  61.707 -50.781  1.00  0.00     0.071 C 
HETATM   12  C   UNL     1     -44.937  62.141 -50.484  1.00  0.00     0.088 C 
HETATM   13  C   UNL     1     -45.510  61.054 -49.561  1.00  0.00     0.071 C 
HETATM   14  C   UNL     1     -45.516  59.685 -50.221  1.00  0.00     0.239 C 
BRANCH  12  15
HETATM   15  O   UNL     1     -44.845  63.335 -49.703  1.00  0.00    -0.385 OA
HETATM   16  H   UNL     1     -45.669  63.849 -49.786  1.00  0.00     0.211 HD
ENDBRANCH  12  15
BRANCH  12  17
HETATM   17  C   UNL     1     -45.801  62.450 -51.713  1.00  0.00    -0.024 A 
HETATM   18  C   UNL     1     -47.204  62.322 -51.666  1.00  0.00     0.011 A 
HETATM   19  C   UNL     1     -48.003  62.597 -52.781  1.00  0.00     0.020 A 
HETATM   20  C   UNL     1     -47.416  63.034 -53.962  1.00  0.00     0.011 A 
HETATM   21 BR   UNL     1     -48.491  63.401 -55.469  1.00  0.00    -0.051 Br
HETATM   22  C   UNL     1     -46.041  63.218 -54.027  1.00  0.00     0.020 A 
HETATM   23  C   UNL     1     -45.244  62.941 -52.908  1.00  0.00     0.011 A 
ENDBRANCH  12  17
ENDBRANCH   4   8
BRANCH   1  24
HETATM   24  C   UNL     1     -41.964  55.472 -53.202  1.00  0.00     0.045 A 
HETATM   25  C   UNL     1     -41.915  54.240 -52.528  1.00  0.00     0.033 A 
HETATM   26  C   UNL     1     -41.102  53.192 -52.978  1.00  0.00     0.039 A 
HETATM   27  C   UNL     1     -40.324  53.337 -54.121  1.00  0.00     0.068 A 
HETATM   28  C   UNL     1     -40.312  54.562 -54.774  1.00  0.00     0.039 A 
HETATM   29  C   UNL     1     -41.123  55.615 -54.318  1.00  0.00     0.033 A 
BRANCH  27  30
HETATM   30  O   UNL     1     -39.616  52.230 -54.490  1.00  0.00    -0.352 OA
BRANCH  30  31
HETATM   31  C   UNL     1     -39.662  51.126 -53.585  1.00  0.00     0.171 C 
HETATM   32  C   UNL     1     -39.916  49.867 -54.396  1.00  0.00     0.034 C 
ENDBRANCH  30  31
ENDBRANCH  27  30
ENDBRANCH   1  24
TORSDOF 6
ENDMDL
MODEL 10
REMARK VINA RESULT:      -8.0      3.272      4.247
REMARK  6 active torsions:
REMARK  status: ('A' for Active; 'I' for Inactive)
REMARK    1  A    between atoms: C_2  and  O_3 
REMARK    2  A    between atoms: O_3  and  C_4 
REMARK    3  A    between atoms: C_7  and  N_8 
REMARK    4  A    between atoms: C_11  and  N_12 
REMARK    5  A    between atoms: C_16  and  O_17 
REMARK    6  A    between atoms: C_16  and  C_18 
ROOT
HETATM    1  N   UNL     1     -42.992  59.043 -57.541  1.00  0.00    -0.251 N 
HETATM    2  C   UNL     1     -42.317  58.866 -56.352  1.00  0.00     0.262 C 
HETATM    3  O   UNL     1     -41.586  59.637 -55.747  1.00  0.00    -0.270 OA
HETATM    4  C   UNL     1     -42.626  57.466 -55.854  1.00  0.00     0.289 C 
HETATM    5  C   UNL     1     -44.007  57.249 -56.426  1.00  0.00     0.146 C 
HETATM    6  C   UNL     1     -43.960  58.071 -57.681  1.00  0.00     0.233 C 
HETATM    7  O   UNL     1     -44.717  57.839 -58.608  1.00  0.00    -0.273 OA
ENDROOT
BRANCH   4   8
HETATM    8  N   UNL     1     -42.599  57.201 -54.320  1.00  0.00    -0.058 N 
HETATM    9  H   UNL     1     -42.954  58.046 -53.847  1.00  0.00     0.281 HD
HETATM   10  C   UNL     1     -43.499  56.028 -53.971  1.00  0.00     0.239 C 
HETATM   11  C   UNL     1     -43.442  55.706 -52.488  1.00  0.00     0.071 C 
HETATM   12  C   UNL     1     -42.012  55.398 -52.013  1.00  0.00     0.088 C 
HETATM   13  C   UNL     1     -41.198  56.666 -52.314  1.00  0.00     0.071 C 
HETATM   14  C   UNL     1     -41.180  57.000 -53.797  1.00  0.00     0.239 C 
BRANCH  12  15
HETATM   15  O   UNL     1     -42.079  55.282 -50.590  1.00  0.00    -0.385 OA
HETATM   16  H   UNL     1     -41.180  55.220 -50.220  1.00  0.00     0.211 HD
ENDBRANCH  12  15
BRANCH  12  17
HETATM   17  C   UNL     1     -41.397  54.105 -52.561  1.00  0.00    -0.024 A 
HETATM   18  C   UNL     1     -40.499  53.341 -51.787  1.00  0.00     0.011 A 
HETATM   19  C   UNL     1     -39.929  52.162 -52.278  1.00  0.00     0.020 A 
HETATM   20  C   UNL     1     -40.267  51.704 -53.545  1.00  0.00     0.011 A 
HETATM   21 BR   UNL     1     -39.495  50.116 -54.211  1.00  0.00    -0.051 Br
HETATM   22  C   UNL     1     -41.186  52.407 -54.315  1.00  0.00     0.020 A 
HETATM   23  C   UNL     1     -41.755  53.588 -53.821  1.00  0.00     0.011 A 
ENDBRANCH  12  17
ENDBRANCH   4   8
BRANCH   1  24
HETATM   24  C   UNL     1     -42.703  60.064 -58.501  1.00  0.00     0.045 A 
HETATM   25  C   UNL     1     -42.083  59.762 -59.725  1.00  0.00     0.033 A 
HETATM   26  C   UNL     1     -41.885  60.743 -60.706  1.00  0.00     0.039 A 
HETATM   27  C   UNL     1     -42.310  62.050 -60.499  1.00  0.00     0.068 A 
HETATM   28  C   UNL     1     -42.875  62.387 -59.276  1.00  0.00     0.039 A 
HETATM   29  C   UNL     1     -43.068  61.404 -58.291  1.00  0.00     0.033 A 
BRANCH  27  30
HETATM   30  O   UNL     1     -42.110  62.903 -61.546  1.00  0.00    -0.352 OA
BRANCH  30  31
HETATM   31  C   UNL     1     -41.237  64.007 -61.297  1.00  0.00     0.171 C 
HETATM   32  C   UNL     1     -39.810  63.529 -61.495  1.00  0.00     0.034 C 
ENDBRANCH  30  31
ENDBRANCH  27  30
ENDBRANCH   1  24
TORSDOF 6
ENDMDL
