MODEL 1
REMARK VINA RESULT:      -7.7      0.000      0.000
REMARK  9 active torsions:
REMARK  status: ('A' for Active; 'I' for Inactive)
REMARK    1  A    between atoms: C_2  and  C_3 
REMARK    2  A    between atoms: C_3  and  C_4 
REMARK    3  A    between atoms: C_4  and  N_5 
REMARK    4  A    between atoms: C_9  and  C_10 
REMARK    5  A    between atoms: C_13  and  C_14 
REMARK    6  A    between atoms: C_14  and  O_15 
REMARK    7  A    between atoms: C_20  and  C_21 
REMARK       I    between atoms: C_21  and  N_22 
REMARK    8  A    between atoms: N_22  and  C_23 
REMARK    9  A    between atoms: C_24  and  O_25 
ROOT
HETATM    1  N   UNL     1     -41.997  58.456 -51.949  1.00  0.00    -0.303 N 
HETATM    2  C   UNL     1     -40.751  58.484 -52.570  1.00  0.00     0.323 C 
HETATM    3  O   UNL     1     -39.806  59.178 -52.202  1.00  0.00    -0.247 OA
HETATM    4  N   UNL     1     -40.603  57.719 -53.682  1.00  0.00    -0.330 N 
HETATM    5  C   UNL     1     -41.527  56.711 -54.138  1.00  0.00     0.160 C 
HETATM    6  C   UNL     1     -42.884  56.925 -53.531  1.00  0.00     0.059 C 
HETATM    7  C   UNL     1     -43.055  57.650 -52.403  1.00  0.00     0.026 C 
HETATM    8  C   UNL     1     -44.331  57.612 -51.593  1.00  0.00     0.069 C 
HETATM    9  H   UNL     1     -39.666  57.720 -54.061  1.00  0.00     0.165 HD
ENDROOT
BRANCH   6  10
HETATM   10  C   UNL     1     -43.989  56.217 -54.238  1.00  0.00     0.256 C 
HETATM   11  N   UNL     1     -44.848  56.877 -55.068  1.00  0.00    -0.321 N 
HETATM   12  H   UNL     1     -45.680  56.326 -55.264  1.00  0.00     0.169 HD
HETATM   13  O   UNL     1     -44.157  55.010 -54.068  1.00  0.00    -0.267 OA
BRANCH  11  14
HETATM   14  C   UNL     1     -44.899  58.192 -55.568  1.00  0.00     0.068 A 
HETATM   15  C   UNL     1     -44.508  58.367 -56.908  1.00  0.00     0.095 A 
HETATM   16  C   UNL     1     -44.588  59.618 -57.521  1.00  0.00     0.039 A 
HETATM   17  C   UNL     1     -45.069  60.707 -56.797  1.00  0.00     0.003 A 
HETATM   18  C   UNL     1     -45.429  60.550 -55.458  1.00  0.00     0.002 A 
HETATM   19  C   UNL     1     -45.332  59.299 -54.839  1.00  0.00     0.032 A 
BRANCH  15  20
HETATM   20  O   UNL     1     -44.039  57.269 -57.591  1.00  0.00    -0.354 OA
HETATM   21  C   UNL     1     -42.641  57.377 -57.863  1.00  0.00     0.210 C 
ENDBRANCH  15  20
ENDBRANCH  11  14
ENDBRANCH   6  10
BRANCH   5  22
HETATM   22  C   UNL     1     -40.960  55.321 -53.860  1.00  0.00    -0.031 A 
HETATM   23  C   UNL     1     -40.954  54.779 -52.564  1.00  0.00     0.010 A 
HETATM   24  C   UNL     1     -40.542  53.461 -52.342  1.00  0.00     0.018 A 
HETATM   25  C   UNL     1     -40.119  52.663 -53.411  1.00  0.00     0.039 A 
HETATM   26  C   UNL     1     -40.075  53.210 -54.699  1.00  0.00     0.018 A 
HETATM   27  C   UNL     1     -40.490  54.528 -54.919  1.00  0.00     0.010 A 
BRANCH  25  28
HETATM   28  C   UNL     1     -39.769  51.242 -53.132  1.00  0.00     0.292 C 
HETATM   29  O   UNL     1     -39.920  50.341 -53.943  1.00  0.00    -0.259 OA
BRANCH  28  30
HETATM   30  O   UNL     1     -39.240  51.110 -51.890  1.00  0.00    -0.323 OA
HETATM   31  C   UNL     1     -39.501  49.846 -51.280  1.00  0.00     0.213 C 
ENDBRANCH  28  30
ENDBRANCH  25  28
ENDBRANCH   5  22
BRANCH   1  32
HETATM   32  C   UNL     1     -42.225  59.494 -50.935  1.00  0.00     0.133 C 
BRANCH  32  33
HETATM   33  C   UNL     1     -42.725  60.825 -51.494  1.00  0.00     0.020 C 
BRANCH  33  34
HETATM   34  C   UNL     1     -43.993  61.258 -50.751  1.00  0.00    -0.003 C 
HETATM   35  C   UNL     1     -45.206  61.290 -51.664  1.00  0.00     0.005 C 
ENDBRANCH  33  34
ENDBRANCH  32  33
ENDBRANCH   1  32
TORSDOF 9
ENDMDL
MODEL 2
REMARK VINA RESULT:      -7.4      1.460      2.200
REMARK  9 active torsions:
REMARK  status: ('A' for Active; 'I' for Inactive)
REMARK    1  A    between atoms: C_2  and  C_3 
REMARK    2  A    between atoms: C_3  and  C_4 
REMARK    3  A    between atoms: C_4  and  N_5 
REMARK    4  A    between atoms: C_9  and  C_10 
REMARK    5  A    between atoms: C_13  and  C_14 
REMARK    6  A    between atoms: C_14  and  O_15 
REMARK    7  A    between atoms: C_20  and  C_21 
REMARK       I    between atoms: C_21  and  N_22 
REMARK    8  A    between atoms: N_22  and  C_23 
REMARK    9  A    between atoms: C_24  and  O_25 
ROOT
HETATM    1  N   UNL     1     -41.973  58.978 -52.814  1.00  0.00    -0.303 N 
HETATM    2  C   UNL     1     -40.624  58.675 -52.984  1.00  0.00     0.323 C 
HETATM    3  O   UNL     1     -39.698  59.355 -52.545  1.00  0.00    -0.247 OA
HETATM    4  N   UNL     1     -40.331  57.576 -53.725  1.00  0.00    -0.330 N 
HETATM    5  C   UNL     1     -41.275  56.572 -54.149  1.00  0.00     0.160 C 
HETATM    6  C   UNL     1     -42.676  57.108 -54.095  1.00  0.00     0.059 C 
HETATM    7  C   UNL     1     -43.003  58.177 -53.336  1.00  0.00     0.026 C 
HETATM    8  C   UNL     1     -44.434  58.536 -53.002  1.00  0.00     0.069 C 
HETATM    9  H   UNL     1     -39.345  57.360 -53.768  1.00  0.00     0.165 HD
ENDROOT
BRANCH   6  10
HETATM   10  C   UNL     1     -43.663  56.321 -54.889  1.00  0.00     0.256 C 
HETATM   11  N   UNL     1     -43.868  56.559 -56.216  1.00  0.00    -0.321 N 
HETATM   12  H   UNL     1     -44.731  56.132 -56.547  1.00  0.00     0.169 HD
HETATM   13  O   UNL     1     -44.332  55.442 -54.345  1.00  0.00    -0.267 OA
BRANCH  11  14
HETATM   14  C   UNL     1     -43.237  57.384 -57.165  1.00  0.00     0.068 A 
HETATM   15  C   UNL     1     -42.896  56.782 -58.390  1.00  0.00     0.095 A 
HETATM   16  C   UNL     1     -42.330  57.528 -59.424  1.00  0.00     0.039 A 
HETATM   17  C   UNL     1     -42.105  58.892 -59.242  1.00  0.00     0.003 A 
HETATM   18  C   UNL     1     -42.411  59.491 -58.019  1.00  0.00     0.002 A 
HETATM   19  C   UNL     1     -42.962  58.738 -56.978  1.00  0.00     0.032 A 
BRANCH  15  20
HETATM   20  O   UNL     1     -43.132  55.434 -58.534  1.00  0.00    -0.354 OA
HETATM   21  C   UNL     1     -44.007  55.167 -59.631  1.00  0.00     0.210 C 
ENDBRANCH  15  20
ENDBRANCH  11  14
ENDBRANCH   6  10
BRANCH   5  22
HETATM   22  C   UNL     1     -41.088  55.302 -53.322  1.00  0.00    -0.031 A 
HETATM   23  C   UNL     1     -40.627  54.110 -53.906  1.00  0.00     0.010 A 
HETATM   24  C   UNL     1     -40.346  52.989 -53.118  1.00  0.00     0.018 A 
HETATM   25  C   UNL     1     -40.531  53.035 -51.732  1.00  0.00     0.039 A 
HETATM   26  C   UNL     1     -41.037  54.203 -51.147  1.00  0.00     0.018 A 
HETATM   27  C   UNL     1     -41.315  55.324 -51.937  1.00  0.00     0.010 A 
BRANCH  25  28
HETATM   28  C   UNL     1     -40.140  51.843 -50.930  1.00  0.00     0.292 C 
HETATM   29  O   UNL     1     -40.392  51.720 -49.741  1.00  0.00    -0.259 OA
BRANCH  28  30
HETATM   30  O   UNL     1     -39.510  50.925 -51.705  1.00  0.00    -0.323 OA
HETATM   31  C   UNL     1     -39.466  49.617 -51.136  1.00  0.00     0.213 C 
ENDBRANCH  28  30
ENDBRANCH  25  28
ENDBRANCH   5  22
BRANCH   1  32
HETATM   32  C   UNL     1     -42.261  60.309 -52.265  1.00  0.00     0.133 C 
BRANCH  32  33
HETATM   33  C   UNL     1     -42.196  60.394 -50.741  1.00  0.00     0.020 C 
BRANCH  33  34
HETATM   34  C   UNL     1     -43.184  61.450 -50.236  1.00  0.00    -0.003 C 
HETATM   35  C   UNL     1     -44.603  60.915 -50.164  1.00  0.00     0.005 C 
ENDBRANCH  33  34
ENDBRANCH  32  33
ENDBRANCH   1  32
TORSDOF 9
ENDMDL
MODEL 3
REMARK VINA RESULT:      -7.3      0.890      1.641
REMARK  9 active torsions:
REMARK  status: ('A' for Active; 'I' for Inactive)
REMARK    1  A    between atoms: C_2  and  C_3 
REMARK    2  A    between atoms: C_3  and  C_4 
REMARK    3  A    between atoms: C_4  and  N_5 
REMARK    4  A    between atoms: C_9  and  C_10 
REMARK    5  A    between atoms: C_13  and  C_14 
REMARK    6  A    between atoms: C_14  and  O_15 
REMARK    7  A    between atoms: C_20  and  C_21 
REMARK       I    between atoms: C_21  and  N_22 
REMARK    8  A    between atoms: N_22  and  C_23 
REMARK    9  A    between atoms: C_24  and  O_25 
ROOT
HETATM    1  N   UNL     1     -42.072  58.477 -52.055  1.00  0.00    -0.303 N 
HETATM    2  C   UNL     1     -40.757  58.492 -52.515  1.00  0.00     0.323 C 
HETATM    3  O   UNL     1     -39.853  59.157 -52.014  1.00  0.00    -0.247 OA
HETATM    4  N   UNL     1     -40.485  57.749 -53.619  1.00  0.00    -0.330 N 
HETATM    5  C   UNL     1     -41.363  56.773 -54.212  1.00  0.00     0.160 C 
HETATM    6  C   UNL     1     -42.781  57.002 -53.774  1.00  0.00     0.059 C 
HETATM    7  C   UNL     1     -43.079  57.704 -52.659  1.00  0.00     0.026 C 
HETATM    8  C   UNL     1     -44.448  57.675 -52.016  1.00  0.00     0.069 C 
HETATM    9  H   UNL     1     -39.508  57.740 -53.877  1.00  0.00     0.165 HD
ENDROOT
BRANCH   6  10
HETATM   10  C   UNL     1     -43.802  56.334 -54.632  1.00  0.00     0.256 C 
HETATM   11  N   UNL     1     -44.235  56.894 -55.798  1.00  0.00    -0.321 N 
HETATM   12  H   UNL     1     -45.095  56.462 -56.127  1.00  0.00     0.169 HD
HETATM   13  O   UNL     1     -44.290  55.259 -54.286  1.00  0.00    -0.267 OA
BRANCH  11  14
HETATM   14  C   UNL     1     -43.841  58.025 -56.539  1.00  0.00     0.068 A 
HETATM   15  C   UNL     1     -44.404  59.254 -56.152  1.00  0.00     0.095 A 
HETATM   16  C   UNL     1     -44.028  60.444 -56.776  1.00  0.00     0.039 A 
HETATM   17  C   UNL     1     -43.075  60.414 -57.793  1.00  0.00     0.003 A 
HETATM   18  C   UNL     1     -42.534  59.195 -58.205  1.00  0.00     0.002 A 
HETATM   19  C   UNL     1     -42.926  58.001 -57.591  1.00  0.00     0.032 A 
BRANCH  15  20
HETATM   20  O   UNL     1     -45.341  59.245 -55.144  1.00  0.00    -0.354 OA
HETATM   21  C   UNL     1     -45.452  60.524 -54.518  1.00  0.00     0.210 C 
ENDBRANCH  15  20
ENDBRANCH  11  14
ENDBRANCH   6  10
BRANCH   5  22
HETATM   22  C   UNL     1     -40.861  55.365 -53.901  1.00  0.00    -0.031 A 
HETATM   23  C   UNL     1     -40.924  54.836 -52.601  1.00  0.00     0.010 A 
HETATM   24  C   UNL     1     -40.572  53.506 -52.352  1.00  0.00     0.018 A 
HETATM   25  C   UNL     1     -40.142  52.681 -53.396  1.00  0.00     0.039 A 
HETATM   26  C   UNL     1     -40.029  53.213 -54.687  1.00  0.00     0.018 A 
HETATM   27  C   UNL     1     -40.384  54.543 -54.935  1.00  0.00     0.010 A 
BRANCH  25  28
HETATM   28  C   UNL     1     -39.858  51.251 -53.093  1.00  0.00     0.292 C 
HETATM   29  O   UNL     1     -40.054  50.343 -53.886  1.00  0.00    -0.259 OA
BRANCH  28  30
HETATM   30  O   UNL     1     -39.332  51.117 -51.849  1.00  0.00    -0.323 OA
HETATM   31  C   UNL     1     -39.529  49.826 -51.272  1.00  0.00     0.213 C 
ENDBRANCH  28  30
ENDBRANCH  25  28
ENDBRANCH   5  22
BRANCH   1  32
HETATM   32  C   UNL     1     -42.406  59.496 -51.052  1.00  0.00     0.133 C 
BRANCH  32  33
HETATM   33  C   UNL     1     -42.807  60.850 -51.635  1.00  0.00     0.020 C 
BRANCH  33  34
HETATM   34  C   UNL     1     -43.539  61.678 -50.573  1.00  0.00    -0.003 C 
HETATM   35  C   UNL     1     -44.731  60.937 -49.995  1.00  0.00     0.005 C 
ENDBRANCH  33  34
ENDBRANCH  32  33
ENDBRANCH   1  32
TORSDOF 9
ENDMDL
MODEL 4
REMARK VINA RESULT:      -7.3      2.368      7.058
REMARK  9 active torsions:
REMARK  status: ('A' for Active; 'I' for Inactive)
REMARK    1  A    between atoms: C_2  and  C_3 
REMARK    2  A    between atoms: C_3  and  C_4 
REMARK    3  A    between atoms: C_4  and  N_5 
REMARK    4  A    between atoms: C_9  and  C_10 
REMARK    5  A    between atoms: C_13  and  C_14 
REMARK    6  A    between atoms: C_14  and  O_15 
REMARK    7  A    between atoms: C_20  and  C_21 
REMARK       I    between atoms: C_21  and  N_22 
REMARK    8  A    between atoms: N_22  and  C_23 
REMARK    9  A    between atoms: C_24  and  O_25 
ROOT
HETATM    1  N   UNL     1     -41.343  54.398 -53.878  1.00  0.00    -0.303 N 
HETATM    2  C   UNL     1     -40.502  54.946 -54.843  1.00  0.00     0.323 C 
HETATM    3  O   UNL     1     -39.428  54.457 -55.188  1.00  0.00    -0.247 OA
HETATM    4  N   UNL     1     -40.890  56.123 -55.398  1.00  0.00    -0.330 N 
HETATM    5  C   UNL     1     -42.189  56.731 -55.255  1.00  0.00     0.160 C 
HETATM    6  C   UNL     1     -42.903  56.177 -54.056  1.00  0.00     0.059 C 
HETATM    7  C   UNL     1     -42.563  54.990 -53.507  1.00  0.00     0.026 C 
HETATM    8  C   UNL     1     -43.451  54.257 -52.527  1.00  0.00     0.069 C 
HETATM    9  H   UNL     1     -40.284  56.449 -56.137  1.00  0.00     0.165 HD
ENDROOT
BRANCH   6  10
HETATM   10  C   UNL     1     -44.044  57.012 -53.583  1.00  0.00     0.256 C 
HETATM   11  N   UNL     1     -43.914  57.877 -52.536  1.00  0.00    -0.321 N 
HETATM   12  H   UNL     1     -44.819  58.172 -52.177  1.00  0.00     0.169 HD
HETATM   13  O   UNL     1     -45.144  56.920 -54.129  1.00  0.00    -0.267 OA
BRANCH  11  14
HETATM   14  C   UNL     1     -42.821  58.311 -51.763  1.00  0.00     0.068 A 
HETATM   15  C   UNL     1     -42.664  59.702 -51.627  1.00  0.00     0.095 A 
HETATM   16  C   UNL     1     -41.654  60.235 -50.826  1.00  0.00     0.039 A 
HETATM   17  C   UNL     1     -40.793  59.376 -50.144  1.00  0.00     0.003 A 
HETATM   18  C   UNL     1     -40.922  57.995 -50.298  1.00  0.00     0.002 A 
HETATM   19  C   UNL     1     -41.924  57.462 -51.116  1.00  0.00     0.032 A 
BRANCH  15  20
HETATM   20  O   UNL     1     -43.531  60.519 -52.314  1.00  0.00    -0.354 OA
HETATM   21  C   UNL     1     -42.850  61.303 -53.295  1.00  0.00     0.210 C 
ENDBRANCH  15  20
ENDBRANCH  11  14
ENDBRANCH   6  10
BRANCH   5  22
HETATM   22  C   UNL     1     -42.982  56.571 -56.550  1.00  0.00    -0.031 A 
HETATM   23  C   UNL     1     -43.648  57.660 -57.139  1.00  0.00     0.010 A 
HETATM   24  C   UNL     1     -44.270  57.528 -58.385  1.00  0.00     0.018 A 
HETATM   25  C   UNL     1     -44.246  56.304 -59.061  1.00  0.00     0.039 A 
HETATM   26  C   UNL     1     -43.628  55.201 -58.459  1.00  0.00     0.018 A 
HETATM   27  C   UNL     1     -43.004  55.335 -57.214  1.00  0.00     0.010 A 
BRANCH  25  28
HETATM   28  C   UNL     1     -44.852  56.239 -60.420  1.00  0.00     0.292 C 
HETATM   29  O   UNL     1     -44.431  55.517 -61.311  1.00  0.00    -0.259 OA
BRANCH  28  30
HETATM   30  O   UNL     1     -45.932  57.055 -60.507  1.00  0.00    -0.323 OA
HETATM   31  C   UNL     1     -47.171  56.362 -60.657  1.00  0.00     0.213 C 
ENDBRANCH  28  30
ENDBRANCH  25  28
ENDBRANCH   5  22
BRANCH   1  32
HETATM   32  C   UNL     1     -40.775  53.294 -53.092  1.00  0.00     0.133 C 
BRANCH  32  33
HETATM   33  C   UNL     1     -40.843  51.929 -53.777  1.00  0.00     0.020 C 
BRANCH  33  34
HETATM   34  C   UNL     1     -39.502  51.203 -53.624  1.00  0.00    -0.003 C 
HETATM   35  C   UNL     1     -39.487  49.875 -54.358  1.00  0.00     0.005 C 
ENDBRANCH  33  34
ENDBRANCH  32  33
ENDBRANCH   1  32
TORSDOF 9
ENDMDL
MODEL 5
REMARK VINA RESULT:      -7.1      1.777      2.498
REMARK  9 active torsions:
REMARK  status: ('A' for Active; 'I' for Inactive)
REMARK    1  A    between atoms: C_2  and  C_3 
REMARK    2  A    between atoms: C_3  and  C_4 
REMARK    3  A    between atoms: C_4  and  N_5 
REMARK    4  A    between atoms: C_9  and  C_10 
REMARK    5  A    between atoms: C_13  and  C_14 
REMARK    6  A    between atoms: C_14  and  O_15 
REMARK    7  A    between atoms: C_20  and  C_21 
REMARK       I    between atoms: C_21  and  N_22 
REMARK    8  A    between atoms: N_22  and  C_23 
REMARK    9  A    between atoms: C_24  and  O_25 
ROOT
HETATM    1  N   UNL     1     -42.854  57.835 -53.616  1.00  0.00    -0.303 N 
HETATM    2  C   UNL     1     -41.475  57.994 -53.497  1.00  0.00     0.323 C 
HETATM    3  O   UNL     1     -40.931  58.822 -52.769  1.00  0.00    -0.247 OA
HETATM    4  N   UNL     1     -40.697  57.201 -54.278  1.00  0.00    -0.330 N 
HETATM    5  C   UNL     1     -41.151  56.062 -55.035  1.00  0.00     0.160 C 
HETATM    6  C   UNL     1     -42.636  56.127 -55.249  1.00  0.00     0.059 C 
HETATM    7  C   UNL     1     -43.438  56.878 -54.463  1.00  0.00     0.026 C 
HETATM    8  C   UNL     1     -44.942  56.714 -54.437  1.00  0.00     0.069 C 
HETATM    9  H   UNL     1     -39.706  57.306 -54.111  1.00  0.00     0.165 HD
ENDROOT
BRANCH   6  10
HETATM   10  C   UNL     1     -43.135  55.249 -56.346  1.00  0.00     0.256 C 
HETATM   11  N   UNL     1     -43.438  55.745 -57.580  1.00  0.00    -0.321 N 
HETATM   12  H   UNL     1     -43.996  55.090 -58.123  1.00  0.00     0.169 HD
HETATM   13  O   UNL     1     -43.300  54.046 -56.146  1.00  0.00    -0.267 OA
BRANCH  11  14
HETATM   14  C   UNL     1     -43.282  57.006 -58.187  1.00  0.00     0.068 A 
HETATM   15  C   UNL     1     -44.319  57.420 -59.042  1.00  0.00     0.095 A 
HETATM   16  C   UNL     1     -44.295  58.681 -59.639  1.00  0.00     0.039 A 
HETATM   17  C   UNL     1     -43.233  59.545 -59.376  1.00  0.00     0.003 A 
HETATM   18  C   UNL     1     -42.185  59.130 -58.553  1.00  0.00     0.002 A 
HETATM   19  C   UNL     1     -42.201  57.858 -57.971  1.00  0.00     0.032 A 
BRANCH  15  20
HETATM   20  O   UNL     1     -45.350  56.542 -59.278  1.00  0.00    -0.354 OA
HETATM   21  C   UNL     1     -46.593  57.224 -59.451  1.00  0.00     0.210 C 
ENDBRANCH  15  20
ENDBRANCH  11  14
ENDBRANCH   6  10
BRANCH   5  22
HETATM   22  C   UNL     1     -40.702  54.772 -54.352  1.00  0.00    -0.031 A 
HETATM   23  C   UNL     1     -40.931  54.550 -52.983  1.00  0.00     0.010 A 
HETATM   24  C   UNL     1     -40.623  53.318 -52.397  1.00  0.00     0.018 A 
HETATM   25  C   UNL     1     -40.070  52.288 -53.165  1.00  0.00     0.039 A 
HETATM   26  C   UNL     1     -39.793  52.517 -54.519  1.00  0.00     0.018 A 
HETATM   27  C   UNL     1     -40.105  53.749 -55.105  1.00  0.00     0.010 A 
BRANCH  25  28
HETATM   28  C   UNL     1     -39.837  50.971 -52.512  1.00  0.00     0.292 C 
HETATM   29  O   UNL     1     -39.658  49.934 -53.132  1.00  0.00    -0.259 OA
BRANCH  28  30
HETATM   30  O   UNL     1     -39.820  51.098 -51.161  1.00  0.00    -0.323 OA
HETATM   31  C   UNL     1     -39.846  49.855 -50.461  1.00  0.00     0.213 C 
ENDBRANCH  28  30
ENDBRANCH  25  28
ENDBRANCH   5  22
BRANCH   1  32
HETATM   32  C   UNL     1     -43.671  58.883 -52.990  1.00  0.00     0.133 C 
BRANCH  32  33
HETATM   33  C   UNL     1     -43.764  58.789 -51.467  1.00  0.00     0.020 C 
BRANCH  33  34
HETATM   34  C   UNL     1     -44.777  57.709 -51.074  1.00  0.00    -0.003 C 
HETATM   35  C   UNL     1     -44.107  56.379 -50.780  1.00  0.00     0.005 C 
ENDBRANCH  33  34
ENDBRANCH  32  33
ENDBRANCH   1  32
TORSDOF 9
ENDMDL
MODEL 6
REMARK VINA RESULT:      -7.0      2.237      6.476
REMARK  9 active torsions:
REMARK  status: ('A' for Active; 'I' for Inactive)
REMARK    1  A    between atoms: C_2  and  C_3 
REMARK    2  A    between atoms: C_3  and  C_4 
REMARK    3  A    between atoms: C_4  and  N_5 
REMARK    4  A    between atoms: C_9  and  C_10 
REMARK    5  A    between atoms: C_13  and  C_14 
REMARK    6  A    between atoms: C_14  and  O_15 
REMARK    7  A    between atoms: C_20  and  C_21 
REMARK       I    between atoms: C_21  and  N_22 
REMARK    8  A    between atoms: N_22  and  C_23 
REMARK    9  A    between atoms: C_24  and  O_25 
ROOT
HETATM    1  N   UNL     1     -41.633  55.240 -52.207  1.00  0.00    -0.303 N 
HETATM    2  C   UNL     1     -41.697  54.678 -53.479  1.00  0.00     0.323 C 
HETATM    3  O   UNL     1     -41.895  53.486 -53.704  1.00  0.00    -0.247 OA
HETATM    4  N   UNL     1     -41.480  55.512 -54.529  1.00  0.00    -0.330 N 
HETATM    5  C   UNL     1     -41.424  56.951 -54.462  1.00  0.00     0.160 C 
HETATM    6  C   UNL     1     -41.157  57.405 -53.056  1.00  0.00     0.059 C 
HETATM    7  C   UNL     1     -41.400  56.610 -51.991  1.00  0.00     0.026 C 
HETATM    8  C   UNL     1     -41.457  57.136 -50.574  1.00  0.00     0.069 C 
HETATM    9  H   UNL     1     -41.600  55.075 -55.432  1.00  0.00     0.165 HD
ENDROOT
BRANCH   6  10
HETATM   10  C   UNL     1     -40.673  58.811 -52.949  1.00  0.00     0.256 C 
HETATM   11  N   UNL     1     -41.538  59.858 -52.817  1.00  0.00    -0.321 N 
HETATM   12  H   UNL     1     -41.085  60.748 -53.014  1.00  0.00     0.169 HD
HETATM   13  O   UNL     1     -39.468  59.054 -52.998  1.00  0.00    -0.267 OA
BRANCH  11  14
HETATM   14  C   UNL     1     -42.930  59.952 -52.628  1.00  0.00     0.068 A 
HETATM   15  C   UNL     1     -43.629  60.779 -53.526  1.00  0.00     0.095 A 
HETATM   16  C   UNL     1     -45.018  60.887 -53.468  1.00  0.00     0.039 A 
HETATM   17  C   UNL     1     -45.724  60.159 -52.512  1.00  0.00     0.003 A 
HETATM   18  C   UNL     1     -45.037  59.360 -51.597  1.00  0.00     0.002 A 
HETATM   19  C   UNL     1     -43.642  59.267 -51.645  1.00  0.00     0.032 A 
BRANCH  15  20
HETATM   20  O   UNL     1     -42.899  61.483 -54.456  1.00  0.00    -0.354 OA
HETATM   21  C   UNL     1     -43.475  62.763 -54.717  1.00  0.00     0.210 C 
ENDBRANCH  15  20
ENDBRANCH  11  14
ENDBRANCH   6  10
BRANCH   5  22
HETATM   22  C   UNL     1     -42.700  57.548 -55.051  1.00  0.00    -0.031 A 
HETATM   23  C   UNL     1     -42.657  58.453 -56.125  1.00  0.00     0.010 A 
HETATM   24  C   UNL     1     -43.836  58.899 -56.732  1.00  0.00     0.018 A 
HETATM   25  C   UNL     1     -45.080  58.457 -56.271  1.00  0.00     0.039 A 
HETATM   26  C   UNL     1     -45.135  57.593 -55.170  1.00  0.00     0.018 A 
HETATM   27  C   UNL     1     -43.955  57.145 -54.566  1.00  0.00     0.010 A 
BRANCH  25  28
HETATM   28  C   UNL     1     -46.299  58.898 -57.004  1.00  0.00     0.292 C 
HETATM   29  O   UNL     1     -46.595  60.071 -57.174  1.00  0.00    -0.259 OA
BRANCH  28  30
HETATM   30  O   UNL     1     -46.994  57.830 -57.470  1.00  0.00    -0.323 OA
HETATM   31  C   UNL     1     -46.752  57.537 -58.846  1.00  0.00     0.213 C 
ENDBRANCH  28  30
ENDBRANCH  25  28
ENDBRANCH   5  22
BRANCH   1  32
HETATM   32  C   UNL     1     -41.582  54.285 -51.092  1.00  0.00     0.133 C 
BRANCH  32  33
HETATM   33  C   UNL     1     -40.204  53.670 -50.847  1.00  0.00     0.020 C 
BRANCH  33  34
HETATM   34  C   UNL     1     -39.595  54.252 -49.568  1.00  0.00    -0.003 C 
HETATM   35  C   UNL     1     -40.469  53.998 -48.353  1.00  0.00     0.005 C 
ENDBRANCH  33  34
ENDBRANCH  32  33
ENDBRANCH   1  32
TORSDOF 9
ENDMDL
MODEL 7
REMARK VINA RESULT:      -6.9      2.385      6.729
REMARK  9 active torsions:
REMARK  status: ('A' for Active; 'I' for Inactive)
REMARK    1  A    between atoms: C_2  and  C_3 
REMARK    2  A    between atoms: C_3  and  C_4 
REMARK    3  A    between atoms: C_4  and  N_5 
REMARK    4  A    between atoms: C_9  and  C_10 
REMARK    5  A    between atoms: C_13  and  C_14 
REMARK    6  A    between atoms: C_14  and  O_15 
REMARK    7  A    between atoms: C_20  and  C_21 
REMARK       I    between atoms: C_21  and  N_22 
REMARK    8  A    between atoms: N_22  and  C_23 
REMARK    9  A    between atoms: C_24  and  O_25 
ROOT
HETATM    1  N   UNL     1     -41.698  54.468 -53.589  1.00  0.00    -0.303 N 
HETATM    2  C   UNL     1     -40.766  54.506 -54.624  1.00  0.00     0.323 C 
HETATM    3  O   UNL     1     -39.935  53.627 -54.842  1.00  0.00    -0.247 OA
HETATM    4  N   UNL     1     -40.763  55.616 -55.406  1.00  0.00    -0.330 N 
HETATM    5  C   UNL     1     -41.776  56.641 -55.413  1.00  0.00     0.160 C 
HETATM    6  C   UNL     1     -42.579  56.600 -54.146  1.00  0.00     0.059 C 
HETATM    7  C   UNL     1     -42.631  55.496 -53.369  1.00  0.00     0.026 C 
HETATM    8  C   UNL     1     -43.669  55.307 -52.285  1.00  0.00     0.069 C 
HETATM    9  H   UNL     1     -40.116  55.571 -56.180  1.00  0.00     0.165 HD
ENDROOT
BRANCH   6  10
HETATM   10  C   UNL     1     -43.353  57.845 -53.871  1.00  0.00     0.256 C 
HETATM   11  N   UNL     1     -42.871  58.822 -53.049  1.00  0.00    -0.321 N 
HETATM   12  H   UNL     1     -43.602  59.468 -52.763  1.00  0.00     0.169 HD
HETATM   13  O   UNL     1     -44.464  58.005 -54.376  1.00  0.00    -0.267 OA
BRANCH  11  14
HETATM   14  C   UNL     1     -41.638  59.026 -52.401  1.00  0.00     0.068 A 
HETATM   15  C   UNL     1     -41.699  59.446 -51.059  1.00  0.00     0.095 A 
HETATM   16  C   UNL     1     -40.537  59.610 -50.306  1.00  0.00     0.039 A 
HETATM   17  C   UNL     1     -39.298  59.347 -50.888  1.00  0.00     0.003 A 
HETATM   18  C   UNL     1     -39.226  58.960 -52.227  1.00  0.00     0.002 A 
HETATM   19  C   UNL     1     -40.391  58.813 -52.987  1.00  0.00     0.032 A 
BRANCH  15  20
HETATM   20  O   UNL     1     -42.939  59.696 -50.518  1.00  0.00    -0.354 OA
HETATM   21  C   UNL     1     -43.092  61.072 -50.168  1.00  0.00     0.210 C 
ENDBRANCH  15  20
ENDBRANCH  11  14
ENDBRANCH   6  10
BRANCH   5  22
HETATM   22  C   UNL     1     -42.634  56.514 -56.670  1.00  0.00    -0.031 A 
HETATM   23  C   UNL     1     -42.942  57.633 -57.462  1.00  0.00     0.010 A 
HETATM   24  C   UNL     1     -43.626  57.486 -58.673  1.00  0.00     0.018 A 
HETATM   25  C   UNL     1     -44.025  56.218 -59.110  1.00  0.00     0.039 A 
HETATM   26  C   UNL     1     -43.766  55.103 -58.304  1.00  0.00     0.018 A 
HETATM   27  C   UNL     1     -43.078  55.252 -57.094  1.00  0.00     0.010 A 
BRANCH  25  28
HETATM   28  C   UNL     1     -44.677  56.107 -60.444  1.00  0.00     0.292 C 
HETATM   29  O   UNL     1     -44.336  55.300 -61.295  1.00  0.00    -0.259 OA
BRANCH  28  30
HETATM   30  O   UNL     1     -45.703  56.989 -60.555  1.00  0.00    -0.323 OA
HETATM   31  C   UNL     1     -46.967  56.460 -60.155  1.00  0.00     0.213 C 
ENDBRANCH  28  30
ENDBRANCH  25  28
ENDBRANCH   5  22
BRANCH   1  32
HETATM   32  C   UNL     1     -41.498  53.409 -52.591  1.00  0.00     0.133 C 
BRANCH  32  33
HETATM   33  C   UNL     1     -40.313  53.639 -51.653  1.00  0.00     0.020 C 
BRANCH  33  34
HETATM   34  C   UNL     1     -40.818  54.097 -50.281  1.00  0.00    -0.003 C 
HETATM   35  C   UNL     1     -40.789  55.608 -50.137  1.00  0.00     0.005 C 
ENDBRANCH  33  34
ENDBRANCH  32  33
ENDBRANCH   1  32
TORSDOF 9
ENDMDL
MODEL 8
REMARK VINA RESULT:      -6.7      2.461      6.864
REMARK  9 active torsions:
REMARK  status: ('A' for Active; 'I' for Inactive)
REMARK    1  A    between atoms: C_2  and  C_3 
REMARK    2  A    between atoms: C_3  and  C_4 
REMARK    3  A    between atoms: C_4  and  N_5 
REMARK    4  A    between atoms: C_9  and  C_10 
REMARK    5  A    between atoms: C_13  and  C_14 
REMARK    6  A    between atoms: C_14  and  O_15 
REMARK    7  A    between atoms: C_20  and  C_21 
REMARK       I    between atoms: C_21  and  N_22 
REMARK    8  A    between atoms: N_22  and  C_23 
REMARK    9  A    between atoms: C_24  and  O_25 
ROOT
HETATM    1  N   UNL     1     -41.132  54.299 -51.230  1.00  0.00    -0.303 N 
HETATM    2  C   UNL     1     -41.893  54.454 -50.073  1.00  0.00     0.323 C 
HETATM    3  O   UNL     1     -41.501  54.179 -48.941  1.00  0.00    -0.247 OA
HETATM    4  N   UNL     1     -43.167  54.897 -50.233  1.00  0.00    -0.330 N 
HETATM    5  C   UNL     1     -43.721  55.441 -51.447  1.00  0.00     0.160 C 
HETATM    6  C   UNL     1     -42.900  55.029 -52.634  1.00  0.00     0.059 C 
HETATM    7  C   UNL     1     -41.618  54.620 -52.509  1.00  0.00     0.026 C 
HETATM    8  C   UNL     1     -40.674  54.517 -53.686  1.00  0.00     0.069 C 
HETATM    9  H   UNL     1     -43.658  55.056 -49.365  1.00  0.00     0.165 HD
ENDROOT
BRANCH   6  10
HETATM   10  C   UNL     1     -43.599  55.179 -53.943  1.00  0.00     0.256 C 
HETATM   11  N   UNL     1     -43.594  56.358 -54.628  1.00  0.00    -0.321 N 
HETATM   12  H   UNL     1     -44.309  56.378 -55.351  1.00  0.00     0.169 HD
HETATM   13  O   UNL     1     -44.217  54.229 -54.424  1.00  0.00    -0.267 OA
BRANCH  11  14
HETATM   14  C   UNL     1     -42.930  57.586 -54.445  1.00  0.00     0.068 A 
HETATM   15  C   UNL     1     -43.719  58.746 -54.550  1.00  0.00     0.095 A 
HETATM   16  C   UNL     1     -43.174  60.008 -54.318  1.00  0.00     0.039 A 
HETATM   17  C   UNL     1     -41.829  60.121 -53.969  1.00  0.00     0.003 A 
HETATM   18  C   UNL     1     -41.031  58.979 -53.893  1.00  0.00     0.002 A 
HETATM   19  C   UNL     1     -41.575  57.715 -54.144  1.00  0.00     0.032 A 
BRANCH  15  20
HETATM   20  O   UNL     1     -45.042  58.596 -54.896  1.00  0.00    -0.354 OA
HETATM   21  C   UNL     1     -45.354  59.295 -56.101  1.00  0.00     0.210 C 
ENDBRANCH  15  20
ENDBRANCH  11  14
ENDBRANCH   6  10
BRANCH   5  22
HETATM   22  C   UNL     1     -43.868  56.956 -51.318  1.00  0.00    -0.031 A 
HETATM   23  C   UNL     1     -45.119  57.583 -51.445  1.00  0.00     0.010 A 
HETATM   24  C   UNL     1     -45.259  58.954 -51.206  1.00  0.00     0.018 A 
HETATM   25  C   UNL     1     -44.150  59.726 -50.845  1.00  0.00     0.039 A 
HETATM   26  C   UNL     1     -42.890  59.119 -50.764  1.00  0.00     0.018 A 
HETATM   27  C   UNL     1     -42.753  57.747 -51.000  1.00  0.00     0.010 A 
BRANCH  25  28
HETATM   28  C   UNL     1     -44.368  61.163 -50.523  1.00  0.00     0.292 C 
HETATM   29  O   UNL     1     -43.956  62.079 -51.218  1.00  0.00    -0.259 OA
BRANCH  28  30
HETATM   30  O   UNL     1     -45.102  61.298 -49.390  1.00  0.00    -0.323 OA
HETATM   31  C   UNL     1     -46.242  62.144 -49.535  1.00  0.00     0.213 C 
ENDBRANCH  28  30
ENDBRANCH  25  28
ENDBRANCH   5  22
BRANCH   1  32
HETATM   32  C   UNL     1     -39.876  53.554 -51.069  1.00  0.00     0.133 C 
BRANCH  32  33
HETATM   33  C   UNL     1     -40.033  52.034 -51.101  1.00  0.00     0.020 C 
BRANCH  33  34
HETATM   34  C   UNL     1     -39.122  51.440 -52.180  1.00  0.00    -0.003 C 
HETATM   35  C   UNL     1     -39.911  50.911 -53.364  1.00  0.00     0.005 C 
ENDBRANCH  33  34
ENDBRANCH  32  33
ENDBRANCH   1  32
TORSDOF 9
ENDMDL
MODEL 9
REMARK VINA RESULT:      -6.3      2.858      7.557
REMARK  9 active torsions:
REMARK  status: ('A' for Active; 'I' for Inactive)
REMARK    1  A    between atoms: C_2  and  C_3 
REMARK    2  A    between atoms: C_3  and  C_4 
REMARK    3  A    between atoms: C_4  and  N_5 
REMARK    4  A    between atoms: C_9  and  C_10 
REMARK    5  A    between atoms: C_13  and  C_14 
REMARK    6  A    between atoms: C_14  and  O_15 
REMARK    7  A    between atoms: C_20  and  C_21 
REMARK       I    between atoms: C_21  and  N_22 
REMARK    8  A    between atoms: N_22  and  C_23 
REMARK    9  A    between atoms: C_24  and  O_25 
ROOT
HETATM    1  N   UNL     1     -42.723  56.444 -50.758  1.00  0.00    -0.303 N 
HETATM    2  C   UNL     1     -44.095  56.232 -50.870  1.00  0.00     0.323 C 
HETATM    3  O   UNL     1     -44.717  55.370 -50.252  1.00  0.00    -0.247 OA
HETATM    4  N   UNL     1     -44.766  57.011 -51.757  1.00  0.00    -0.330 N 
HETATM    5  C   UNL     1     -44.240  58.181 -52.414  1.00  0.00     0.160 C 
HETATM    6  C   UNL     1     -42.738  58.175 -52.382  1.00  0.00     0.059 C 
HETATM    7  C   UNL     1     -42.046  57.439 -51.485  1.00  0.00     0.026 C 
HETATM    8  C   UNL     1     -40.575  57.657 -51.210  1.00  0.00     0.069 C 
HETATM    9  H   UNL     1     -45.766  56.866 -51.757  1.00  0.00     0.165 HD
ENDROOT
BRANCH   6  10
HETATM   10  C   UNL     1     -42.102  59.093 -53.370  1.00  0.00     0.256 C 
HETATM   11  N   UNL     1     -41.881  58.713 -54.662  1.00  0.00    -0.321 N 
HETATM   12  H   UNL     1     -41.224  59.333 -55.129  1.00  0.00     0.169 HD
HETATM   13  O   UNL     1     -41.745  60.219 -53.025  1.00  0.00    -0.267 OA
BRANCH  11  14
HETATM   14  C   UNL     1     -42.237  57.580 -55.418  1.00  0.00     0.068 A 
HETATM   15  C   UNL     1     -42.938  57.821 -56.613  1.00  0.00     0.095 A 
HETATM   16  C   UNL     1     -43.278  56.773 -57.469  1.00  0.00     0.039 A 
HETATM   17  C   UNL     1     -42.909  55.470 -57.138  1.00  0.00     0.003 A 
HETATM   18  C   UNL     1     -42.241  55.218 -55.939  1.00  0.00     0.002 A 
HETATM   19  C   UNL     1     -41.918  56.268 -55.073  1.00  0.00     0.032 A 
BRANCH  15  20
HETATM   20  O   UNL     1     -43.284  59.119 -56.907  1.00  0.00    -0.354 OA
HETATM   21  C   UNL     1     -42.680  59.563 -58.123  1.00  0.00     0.210 C 
ENDBRANCH  15  20
ENDBRANCH  11  14
ENDBRANCH   6  10
BRANCH   5  22
HETATM   22  C   UNL     1     -44.845  59.439 -51.796  1.00  0.00    -0.031 A 
HETATM   23  C   UNL     1     -44.358  59.970 -50.590  1.00  0.00     0.010 A 
HETATM   24  C   UNL     1     -44.841  61.187 -50.097  1.00  0.00     0.018 A 
HETATM   25  C   UNL     1     -45.826  61.892 -50.797  1.00  0.00     0.039 A 
HETATM   26  C   UNL     1     -46.352  61.347 -51.974  1.00  0.00     0.018 A 
HETATM   27  C   UNL     1     -45.866  60.131 -52.467  1.00  0.00     0.010 A 
BRANCH  25  28
HETATM   28  C   UNL     1     -46.245  63.221 -50.272  1.00  0.00     0.292 C 
HETATM   29  O   UNL     1     -46.414  64.202 -50.981  1.00  0.00    -0.259 OA
BRANCH  28  30
HETATM   30  O   UNL     1     -46.440  63.172 -48.931  1.00  0.00    -0.323 OA
HETATM   31  C   UNL     1     -47.793  63.392 -48.533  1.00  0.00     0.213 C 
ENDBRANCH  28  30
ENDBRANCH  25  28
ENDBRANCH   5  22
BRANCH   1  32
HETATM   32  C   UNL     1     -41.978  55.415 -50.022  1.00  0.00     0.133 C 
BRANCH  32  33
HETATM   33  C   UNL     1     -41.847  54.081 -50.755  1.00  0.00     0.020 C 
BRANCH  33  34
HETATM   34  C   UNL     1     -40.505  54.023 -51.493  1.00  0.00    -0.003 C 
HETATM   35  C   UNL     1     -40.624  53.332 -52.840  1.00  0.00     0.005 C 
ENDBRANCH  33  34
ENDBRANCH  32  33
ENDBRANCH   1  32
TORSDOF 9
ENDMDL
MODEL 10
REMARK VINA RESULT:      -6.2      2.257      6.796
REMARK  9 active torsions:
REMARK  status: ('A' for Active; 'I' for Inactive)
REMARK    1  A    between atoms: C_2  and  C_3 
REMARK    2  A    between atoms: C_3  and  C_4 
REMARK    3  A    between atoms: C_4  and  N_5 
REMARK    4  A    between atoms: C_9  and  C_10 
REMARK    5  A    between atoms: C_13  and  C_14 
REMARK    6  A    between atoms: C_14  and  O_15 
REMARK    7  A    between atoms: C_20  and  C_21 
REMARK       I    between atoms: C_21  and  N_22 
REMARK    8  A    between atoms: N_22  and  C_23 
REMARK    9  A    between atoms: C_24  and  O_25 
ROOT
HETATM    1  N   UNL     1     -44.734  59.784 -50.666  1.00  0.00    -0.303 N 
HETATM    2  C   UNL     1     -45.613  58.736 -50.934  1.00  0.00     0.323 C 
HETATM    3  O   UNL     1     -46.734  58.627 -50.443  1.00  0.00    -0.247 OA
HETATM    4  N   UNL     1     -45.165  57.757 -51.761  1.00  0.00    -0.330 N 
HETATM    5  C   UNL     1     -43.970  57.818 -52.566  1.00  0.00     0.160 C 
HETATM    6  C   UNL     1     -43.031  58.864 -52.039  1.00  0.00     0.059 C 
HETATM    7  C   UNL     1     -43.457  59.871 -51.245  1.00  0.00     0.026 C 
HETATM    8  C   UNL     1     -42.625  61.104 -50.972  1.00  0.00     0.069 C 
HETATM    9  H   UNL     1     -45.857  57.054 -51.977  1.00  0.00     0.165 HD
ENDROOT
BRANCH   6  10
HETATM   10  C   UNL     1     -41.628  58.725 -52.524  1.00  0.00     0.256 C 
HETATM   11  N   UNL     1     -40.839  57.679 -52.145  1.00  0.00    -0.321 N 
HETATM   12  H   UNL     1     -39.857  57.857 -52.342  1.00  0.00     0.169 HD
HETATM   13  O   UNL     1     -41.146  59.577 -53.271  1.00  0.00    -0.267 OA
BRANCH  11  14
HETATM   14  C   UNL     1     -41.072  56.501 -51.410  1.00  0.00     0.068 A 
HETATM   15  C   UNL     1     -41.202  55.315 -52.155  1.00  0.00     0.095 A 
HETATM   16  C   UNL     1     -41.367  54.084 -51.520  1.00  0.00     0.039 A 
HETATM   17  C   UNL     1     -41.394  54.028 -50.127  1.00  0.00     0.003 A 
HETATM   18  C   UNL     1     -41.296  55.203 -49.381  1.00  0.00     0.002 A 
HETATM   19  C   UNL     1     -41.150  56.439 -50.020  1.00  0.00     0.032 A 
BRANCH  15  20
HETATM   20  O   UNL     1     -41.171  55.408 -53.527  1.00  0.00    -0.354 OA
HETATM   21  C   UNL     1     -40.472  54.309 -54.113  1.00  0.00     0.210 C 
ENDBRANCH  15  20
ENDBRANCH  11  14
ENDBRANCH   6  10
BRANCH   5  22
HETATM   22  C   UNL     1     -44.342  58.030 -54.031  1.00  0.00    -0.031 A 
HETATM   23  C   UNL     1     -45.135  59.117 -54.435  1.00  0.00     0.010 A 
HETATM   24  C   UNL     1     -45.368  59.368 -55.791  1.00  0.00     0.018 A 
HETATM   25  C   UNL     1     -44.820  58.531 -56.769  1.00  0.00     0.039 A 
HETATM   26  C   UNL     1     -44.069  57.417 -56.375  1.00  0.00     0.018 A 
HETATM   27  C   UNL     1     -43.834  57.169 -55.018  1.00  0.00     0.010 A 
BRANCH  25  28
HETATM   28  C   UNL     1     -45.030  58.889 -58.200  1.00  0.00     0.292 C 
HETATM   29  O   UNL     1     -44.942  60.029 -58.628  1.00  0.00    -0.259 OA
BRANCH  28  30
HETATM   30  O   UNL     1     -45.293  57.783 -58.940  1.00  0.00    -0.323 OA
HETATM   31  C   UNL     1     -46.685  57.545 -59.153  1.00  0.00     0.213 C 
ENDBRANCH  28  30
ENDBRANCH  25  28
ENDBRANCH   5  22
BRANCH   1  32
HETATM   32  C   UNL     1     -45.119  60.669 -49.559  1.00  0.00     0.133 C 
BRANCH  32  33
HETATM   33  C   UNL     1     -45.973  61.867 -49.974  1.00  0.00     0.020 C 
BRANCH  33  34
HETATM   34  C   UNL     1     -45.448  63.138 -49.298  1.00  0.00    -0.003 C 
HETATM   35  C   UNL     1     -44.913  62.863 -47.904  1.00  0.00     0.005 C 
ENDBRANCH  33  34
ENDBRANCH  32  33
ENDBRANCH   1  32
TORSDOF 9
ENDMDL
