MODEL 1
REMARK VINA RESULT:      -8.0      0.000      0.000
REMARK  7 active torsions:
REMARK  status: ('A' for Active; 'I' for Inactive)
REMARK    1  A    between atoms: C_3  and  N_4 
REMARK       I    between atoms: N_4  and  C_5 
REMARK    2  A    between atoms: C_5  and  C_6 
REMARK    3  A    between atoms: C_7  and  C_8 
REMARK    4  A    between atoms: C_19  and  C_20 
REMARK    5  A    between atoms: C_20  and  C_21 
REMARK    6  A    between atoms: C_21  and  C_22 
REMARK    7  A    between atoms: C_22  and  O_23 
ROOT
HETATM    1  C   UNL     1     -42.380  56.937 -52.412  1.00  0.00     0.062 A 
HETATM    2  C   UNL     1     -43.532  57.396 -53.297  1.00  0.00     0.202 A 
HETATM    3  N   UNL     1     -44.229  58.549 -52.713  1.00  0.00    -0.083 N 
HETATM    4  C   UNL     1     -43.930  59.084 -51.489  1.00  0.00     0.726 A 
HETATM    5  N   UNL     1     -42.928  58.556 -50.764  1.00  0.00    -0.192 N 
HETATM    6  N   UNL     1     -45.322  59.135 -53.249  1.00  0.00    -0.140 NA
HETATM    7  C   UNL     1     -45.565  60.090 -52.338  1.00  0.00     0.166 A 
HETATM    8  N   UNL     1     -44.743  60.077 -51.236  1.00  0.00    -0.046 NA
HETATM    9  C   UNL     1     -42.125  57.514 -51.213  1.00  0.00     0.037 A 
HETATM   10  C   UNL     1     -41.003  57.106 -50.289  1.00  0.00     0.070 C 
HETATM   11  H   UNL     1     -42.687  58.988 -49.876  1.00  0.00     0.184 HD
ENDROOT
BRANCH   1  12
HETATM   12  C   UNL     1     -41.446  55.923 -52.969  1.00  0.00     0.256 C 
HETATM   13  N   UNL     1     -41.686  54.649 -52.503  1.00  0.00    -0.323 N 
HETATM   14  H   UNL     1     -42.392  54.543 -51.790  1.00  0.00     0.169 HD
HETATM   15  O   UNL     1     -40.575  56.288 -53.747  1.00  0.00    -0.267 OA
BRANCH  13  16
HETATM   16  C   UNL     1     -41.018  53.458 -52.887  1.00  0.00     0.041 A 
HETATM   17  C   UNL     1     -40.131  52.845 -51.974  1.00  0.00    -0.035 A 
HETATM   18  C   UNL     1     -39.872  53.397 -50.597  1.00  0.00     0.050 C 
HETATM   19  C   UNL     1     -39.477  51.652 -52.339  1.00  0.00     0.009 A 
HETATM   20  C   UNL     1     -39.684  51.076 -53.590  1.00  0.00     0.001 A 
HETATM   21  C   UNL     1     -40.553  51.679 -54.488  1.00  0.00     0.002 A 
HETATM   22  C   UNL     1     -41.216  52.857 -54.138  1.00  0.00     0.030 A 
ENDBRANCH  13  16
ENDBRANCH   1  12
BRANCH   2  23
HETATM   23  C   UNL     1     -43.126  57.687 -54.738  1.00  0.00    -0.027 A 
HETATM   24  C   UNL     1     -43.405  56.744 -55.743  1.00  0.00     0.028 A 
HETATM   25  C   UNL     1     -43.019  56.987 -57.062  1.00  0.00     0.011 A 
HETATM   26 BR   UNL     1     -43.396  55.701 -58.396  1.00  0.00    -0.051 Br
HETATM   27  C   UNL     1     -42.357  58.162 -57.401  1.00  0.00     0.019 A 
HETATM   28  C   UNL     1     -42.082  59.108 -56.415  1.00  0.00     0.002 A 
HETATM   29  C   UNL     1     -42.465  58.876 -55.092  1.00  0.00     0.010 A 
ENDBRANCH   2  23
BRANCH   7  30
HETATM   30  C   UNL     1     -46.655  61.086 -52.486  1.00  0.00     0.085 C 
BRANCH  30  31
HETATM   31  C   UNL     1     -46.295  62.467 -51.945  1.00  0.00     0.034 C 
BRANCH  31  32
HETATM   32  C   UNL     1     -47.008  62.803 -50.641  1.00  0.00     0.164 C 
BRANCH  32  33
HETATM   33  O   UNL     1     -46.612  61.881 -49.631  1.00  0.00    -0.401 OA
HETATM   34  H   UNL     1     -45.980  62.336 -49.049  1.00  0.00     0.209 HD
ENDBRANCH  32  33
ENDBRANCH  31  32
ENDBRANCH  30  31
ENDBRANCH   7  30
TORSDOF 7
ENDMDL
MODEL 2
REMARK VINA RESULT:      -7.8      2.266      2.785
REMARK  7 active torsions:
REMARK  status: ('A' for Active; 'I' for Inactive)
REMARK    1  A    between atoms: C_3  and  N_4 
REMARK       I    between atoms: N_4  and  C_5 
REMARK    2  A    between atoms: C_5  and  C_6 
REMARK    3  A    between atoms: C_7  and  C_8 
REMARK    4  A    between atoms: C_19  and  C_20 
REMARK    5  A    between atoms: C_20  and  C_21 
REMARK    6  A    between atoms: C_21  and  C_22 
REMARK    7  A    between atoms: C_22  and  O_23 
ROOT
HETATM    1  C   UNL     1     -41.713  58.407 -51.723  1.00  0.00     0.062 A 
HETATM    2  C   UNL     1     -43.233  58.508 -51.715  1.00  0.00     0.202 A 
HETATM    3  N   UNL     1     -43.689  59.651 -50.914  1.00  0.00    -0.083 N 
HETATM    4  C   UNL     1     -42.853  60.467 -50.200  1.00  0.00     0.726 A 
HETATM    5  N   UNL     1     -41.526  60.245 -50.232  1.00  0.00    -0.192 N 
HETATM    6  N   UNL     1     -44.984  59.957 -50.683  1.00  0.00    -0.140 NA
HETATM    7  C   UNL     1     -44.850  61.040 -49.902  1.00  0.00     0.166 A 
HETATM    8  N   UNL     1     -43.557  61.371 -49.570  1.00  0.00    -0.046 NA
HETATM    9  C   UNL     1     -40.935  59.252 -51.005  1.00  0.00     0.037 A 
HETATM   10  C   UNL     1     -39.427  59.204 -50.968  1.00  0.00     0.070 C 
HETATM   11  H   UNL     1     -40.912  60.883 -49.734  1.00  0.00     0.184 HD
ENDROOT
BRANCH   1  12
HETATM   12  C   UNL     1     -41.094  57.435 -52.663  1.00  0.00     0.256 C 
HETATM   13  N   UNL     1     -41.319  56.121 -52.314  1.00  0.00    -0.323 N 
HETATM   14  H   UNL     1     -41.793  55.950 -51.439  1.00  0.00     0.169 HD
HETATM   15  O   UNL     1     -40.454  57.862 -53.615  1.00  0.00    -0.267 OA
BRANCH  13  16
HETATM   16  C   UNL     1     -40.920  54.965 -53.032  1.00  0.00     0.041 A 
HETATM   17  C   UNL     1     -40.621  53.783 -52.318  1.00  0.00    -0.035 A 
HETATM   18  C   UNL     1     -40.719  53.693 -50.818  1.00  0.00     0.050 C 
HETATM   19  C   UNL     1     -40.241  52.626 -53.024  1.00  0.00     0.009 A 
HETATM   20  C   UNL     1     -40.147  52.632 -54.413  1.00  0.00     0.001 A 
HETATM   21  C   UNL     1     -40.439  53.793 -55.115  1.00  0.00     0.002 A 
HETATM   22  C   UNL     1     -40.824  54.948 -54.431  1.00  0.00     0.030 A 
ENDBRANCH  13  16
ENDBRANCH   1  12
BRANCH   2  23
HETATM   23  C   UNL     1     -43.858  58.542 -53.105  1.00  0.00    -0.027 A 
HETATM   24  C   UNL     1     -43.732  59.697 -53.897  1.00  0.00     0.028 A 
HETATM   25  C   UNL     1     -44.319  59.750 -55.162  1.00  0.00     0.011 A 
HETATM   26 BR   UNL     1     -44.144  61.316 -56.206  1.00  0.00    -0.051 Br
HETATM   27  C   UNL     1     -45.032  58.664 -55.658  1.00  0.00     0.019 A 
HETATM   28  C   UNL     1     -45.157  57.510 -54.885  1.00  0.00     0.002 A 
HETATM   29  C   UNL     1     -44.573  57.445 -53.618  1.00  0.00     0.010 A 
ENDBRANCH   2  23
BRANCH   7  30
HETATM   30  C   UNL     1     -46.008  61.824 -49.406  1.00  0.00     0.085 C 
BRANCH  30  31
HETATM   31  C   UNL     1     -46.017  62.004 -47.890  1.00  0.00     0.034 C 
BRANCH  31  32
HETATM   32  C   UNL     1     -45.824  60.696 -47.132  1.00  0.00     0.164 C 
BRANCH  32  33
HETATM   33  O   UNL     1     -44.504  60.643 -46.601  1.00  0.00    -0.401 OA
HETATM   34  H   UNL     1     -44.469  59.899 -45.977  1.00  0.00     0.209 HD
ENDBRANCH  32  33
ENDBRANCH  31  32
ENDBRANCH  30  31
ENDBRANCH   7  30
TORSDOF 7
ENDMDL
MODEL 3
REMARK VINA RESULT:      -7.8      3.381      5.882
REMARK  7 active torsions:
REMARK  status: ('A' for Active; 'I' for Inactive)
REMARK    1  A    between atoms: C_3  and  N_4 
REMARK       I    between atoms: N_4  and  C_5 
REMARK    2  A    between atoms: C_5  and  C_6 
REMARK    3  A    between atoms: C_7  and  C_8 
REMARK    4  A    between atoms: C_19  and  C_20 
REMARK    5  A    between atoms: C_20  and  C_21 
REMARK    6  A    between atoms: C_21  and  C_22 
REMARK    7  A    between atoms: C_22  and  O_23 
ROOT
HETATM    1  C   UNL     1     -42.396  56.205 -54.704  1.00  0.00     0.062 A 
HETATM    2  C   UNL     1     -42.107  57.694 -54.848  1.00  0.00     0.202 A 
HETATM    3  N   UNL     1     -42.216  58.128 -56.246  1.00  0.00    -0.083 N 
HETATM    4  C   UNL     1     -42.464  57.281 -57.293  1.00  0.00     0.726 A 
HETATM    5  N   UNL     1     -42.643  55.969 -57.054  1.00  0.00    -0.192 N 
HETATM    6  N   UNL     1     -41.962  59.381 -56.682  1.00  0.00    -0.140 NA
HETATM    7  C   UNL     1     -42.181  59.238 -57.998  1.00  0.00     0.166 A 
HETATM    8  N   UNL     1     -42.473  57.959 -58.411  1.00  0.00    -0.046 NA
HETATM    9  C   UNL     1     -42.647  55.418 -55.778  1.00  0.00     0.037 A 
HETATM   10  C   UNL     1     -42.938  53.939 -55.704  1.00  0.00     0.070 C 
HETATM   11  H   UNL     1     -42.869  55.357 -57.833  1.00  0.00     0.184 HD
ENDROOT
BRANCH   1  12
HETATM   12  C   UNL     1     -42.538  55.662 -53.327  1.00  0.00     0.256 C 
HETATM   13  N   UNL     1     -41.331  55.380 -52.727  1.00  0.00    -0.323 N 
HETATM   14  H   UNL     1     -40.499  55.485 -53.289  1.00  0.00     0.169 HD
HETATM   15  O   UNL     1     -43.662  55.504 -52.868  1.00  0.00    -0.267 OA
BRANCH  13  16
HETATM   16  C   UNL     1     -41.122  54.913 -51.404  1.00  0.00     0.041 A 
HETATM   17  C   UNL     1     -40.609  53.611 -51.209  1.00  0.00    -0.035 A 
HETATM   18  C   UNL     1     -40.262  52.695 -52.352  1.00  0.00     0.050 C 
HETATM   19  C   UNL     1     -40.382  53.146 -49.899  1.00  0.00     0.009 A 
HETATM   20  C   UNL     1     -40.664  53.946 -48.795  1.00  0.00     0.001 A 
HETATM   21  C   UNL     1     -41.169  55.225 -48.986  1.00  0.00     0.002 A 
HETATM   22  C   UNL     1     -41.393  55.704 -50.278  1.00  0.00     0.030 A 
ENDBRANCH  13  16
ENDBRANCH   1  12
BRANCH   2  23
HETATM   23  C   UNL     1     -42.956  58.579 -53.942  1.00  0.00    -0.027 A 
HETATM   24  C   UNL     1     -42.370  59.196 -52.823  1.00  0.00     0.028 A 
HETATM   25  C   UNL     1     -43.141  59.990 -51.973  1.00  0.00     0.011 A 
HETATM   26 BR   UNL     1     -42.333  60.803 -50.469  1.00  0.00    -0.051 Br
HETATM   27  C   UNL     1     -44.495  60.184 -52.220  1.00  0.00     0.019 A 
HETATM   28  C   UNL     1     -45.087  59.584 -53.331  1.00  0.00     0.002 A 
HETATM   29  C   UNL     1     -44.325  58.789 -54.190  1.00  0.00     0.010 A 
ENDBRANCH   2  23
BRANCH   7  30
HETATM   30  C   UNL     1     -42.098  60.368 -58.957  1.00  0.00     0.085 C 
BRANCH  30  31
HETATM   31  C   UNL     1     -42.074  59.925 -60.417  1.00  0.00     0.034 C 
BRANCH  31  32
HETATM   32  C   UNL     1     -43.428  60.059 -61.105  1.00  0.00     0.164 C 
BRANCH  32  33
HETATM   33  O   UNL     1     -44.161  58.848 -60.953  1.00  0.00    -0.401 OA
HETATM   34  H   UNL     1     -44.906  59.030 -60.356  1.00  0.00     0.209 HD
ENDBRANCH  32  33
ENDBRANCH  31  32
ENDBRANCH  30  31
ENDBRANCH   7  30
TORSDOF 7
ENDMDL
MODEL 4
REMARK VINA RESULT:      -7.7      2.545      3.983
REMARK  7 active torsions:
REMARK  status: ('A' for Active; 'I' for Inactive)
REMARK    1  A    between atoms: C_3  and  N_4 
REMARK       I    between atoms: N_4  and  C_5 
REMARK    2  A    between atoms: C_5  and  C_6 
REMARK    3  A    between atoms: C_7  and  C_8 
REMARK    4  A    between atoms: C_19  and  C_20 
REMARK    5  A    between atoms: C_20  and  C_21 
REMARK    6  A    between atoms: C_21  and  C_22 
REMARK    7  A    between atoms: C_22  and  O_23 
ROOT
HETATM    1  C   UNL     1     -42.129  56.140 -55.030  1.00  0.00     0.062 A 
HETATM    2  C   UNL     1     -42.046  57.565 -54.496  1.00  0.00     0.202 A 
HETATM    3  N   UNL     1     -43.259  58.328 -54.816  1.00  0.00    -0.083 N 
HETATM    4  C   UNL     1     -44.292  57.841 -55.571  1.00  0.00     0.726 A 
HETATM    5  N   UNL     1     -44.229  56.583 -56.044  1.00  0.00    -0.192 N 
HETATM    6  N   UNL     1     -43.446  59.632 -54.517  1.00  0.00    -0.140 NA
HETATM    7  C   UNL     1     -44.667  59.835 -55.035  1.00  0.00     0.166 A 
HETATM    8  N   UNL     1     -45.209  58.763 -55.705  1.00  0.00    -0.046 NA
HETATM    9  C   UNL     1     -43.184  55.711 -55.762  1.00  0.00     0.037 A 
HETATM   10  C   UNL     1     -43.326  54.316 -56.321  1.00  0.00     0.070 C 
HETATM   11  H   UNL     1     -45.021  56.218 -56.567  1.00  0.00     0.184 HD
ENDROOT
BRANCH   1  12
HETATM   12  C   UNL     1     -41.076  55.183 -54.599  1.00  0.00     0.256 C 
HETATM   13  N   UNL     1     -41.580  54.073 -53.957  1.00  0.00    -0.323 N 
HETATM   14  H   UNL     1     -42.572  54.057 -53.772  1.00  0.00     0.169 HD
HETATM   15  O   UNL     1     -39.904  55.453 -54.826  1.00  0.00    -0.267 OA
BRANCH  13  16
HETATM   16  C   UNL     1     -40.849  52.953 -53.484  1.00  0.00     0.041 A 
HETATM   17  C   UNL     1     -40.388  52.951 -52.148  1.00  0.00    -0.035 A 
HETATM   18  C   UNL     1     -40.650  54.087 -51.195  1.00  0.00     0.050 C 
HETATM   19  C   UNL     1     -39.677  51.836 -51.664  1.00  0.00     0.009 A 
HETATM   20  C   UNL     1     -39.414  50.742 -52.485  1.00  0.00     0.001 A 
HETATM   21  C   UNL     1     -39.865  50.745 -53.797  1.00  0.00     0.002 A 
HETATM   22  C   UNL     1     -40.578  51.839 -54.290  1.00  0.00     0.030 A 
ENDBRANCH  13  16
ENDBRANCH   1  12
BRANCH   2  23
HETATM   23  C   UNL     1     -41.736  57.650 -53.005  1.00  0.00    -0.027 A 
HETATM   24  C   UNL     1     -40.610  58.370 -52.568  1.00  0.00     0.028 A 
HETATM   25  C   UNL     1     -40.302  58.437 -51.209  1.00  0.00     0.011 A 
HETATM   26 BR   UNL     1     -38.778  59.404 -50.645  1.00  0.00    -0.051 Br
HETATM   27  C   UNL     1     -41.101  57.796 -50.269  1.00  0.00     0.019 A 
HETATM   28  C   UNL     1     -42.224  57.085 -50.689  1.00  0.00     0.002 A 
HETATM   29  C   UNL     1     -42.544  57.013 -52.047  1.00  0.00     0.010 A 
ENDBRANCH   2  23
BRANCH   7  30
HETATM   30  C   UNL     1     -45.387  61.127 -54.917  1.00  0.00     0.085 C 
BRANCH  30  31
HETATM   31  C   UNL     1     -45.419  61.679 -53.494  1.00  0.00     0.034 C 
BRANCH  31  32
HETATM   32  C   UNL     1     -46.405  60.947 -52.591  1.00  0.00     0.164 C 
BRANCH  32  33
HETATM   33  O   UNL     1     -47.731  61.365 -52.896  1.00  0.00    -0.401 OA
HETATM   34  H   UNL     1     -47.838  61.320 -53.862  1.00  0.00     0.209 HD
ENDBRANCH  32  33
ENDBRANCH  31  32
ENDBRANCH  30  31
ENDBRANCH   7  30
TORSDOF 7
ENDMDL
MODEL 5
REMARK VINA RESULT:      -7.5      1.299      1.883
REMARK  7 active torsions:
REMARK  status: ('A' for Active; 'I' for Inactive)
REMARK    1  A    between atoms: C_3  and  N_4 
REMARK       I    between atoms: N_4  and  C_5 
REMARK    2  A    between atoms: C_5  and  C_6 
REMARK    3  A    between atoms: C_7  and  C_8 
REMARK    4  A    between atoms: C_19  and  C_20 
REMARK    5  A    between atoms: C_20  and  C_21 
REMARK    6  A    between atoms: C_21  and  C_22 
REMARK    7  A    between atoms: C_22  and  O_23 
ROOT
HETATM    1  C   UNL     1     -42.475  57.302 -52.460  1.00  0.00     0.062 A 
HETATM    2  C   UNL     1     -43.606  57.720 -53.391  1.00  0.00     0.202 A 
HETATM    3  N   UNL     1     -44.314  58.900 -52.879  1.00  0.00    -0.083 N 
HETATM    4  C   UNL     1     -44.041  59.492 -51.676  1.00  0.00     0.726 A 
HETATM    5  N   UNL     1     -43.056  58.999 -50.904  1.00  0.00    -0.192 N 
HETATM    6  N   UNL     1     -45.394  59.461 -53.466  1.00  0.00    -0.140 NA
HETATM    7  C   UNL     1     -45.655  60.458 -52.607  1.00  0.00     0.166 A 
HETATM    8  N   UNL     1     -44.857  60.497 -51.488  1.00  0.00    -0.046 NA
HETATM    9  C   UNL     1     -42.245  57.936 -51.285  1.00  0.00     0.037 A 
HETATM   10  C   UNL     1     -41.145  57.572 -50.318  1.00  0.00     0.070 C 
HETATM   11  H   UNL     1     -42.834  59.473 -50.033  1.00  0.00     0.184 HD
ENDROOT
BRANCH   1  12
HETATM   12  C   UNL     1     -41.531  56.262 -52.948  1.00  0.00     0.256 C 
HETATM   13  N   UNL     1     -41.838  54.996 -52.499  1.00  0.00    -0.323 N 
HETATM   14  H   UNL     1     -42.596  54.911 -51.837  1.00  0.00     0.169 HD
HETATM   15  O   UNL     1     -40.597  56.601 -53.661  1.00  0.00    -0.267 OA
BRANCH  13  16
HETATM   16  C   UNL     1     -41.176  53.786 -52.832  1.00  0.00     0.041 A 
HETATM   17  C   UNL     1     -41.463  53.166 -54.069  1.00  0.00    -0.035 A 
HETATM   18  C   UNL     1     -42.438  53.743 -55.060  1.00  0.00     0.050 C 
HETATM   19  C   UNL     1     -40.796  51.975 -54.416  1.00  0.00     0.009 A 
HETATM   20  C   UNL     1     -39.869  51.396 -53.554  1.00  0.00     0.001 A 
HETATM   21  C   UNL     1     -39.588  52.004 -52.338  1.00  0.00     0.002 A 
HETATM   22  C   UNL     1     -40.234  53.189 -51.982  1.00  0.00     0.030 A 
ENDBRANCH  13  16
ENDBRANCH   1  12
BRANCH   2  23
HETATM   23  C   UNL     1     -43.169  57.940 -54.835  1.00  0.00    -0.027 A 
HETATM   24  C   UNL     1     -43.448  56.961 -55.805  1.00  0.00     0.028 A 
HETATM   25  C   UNL     1     -43.033  57.139 -57.125  1.00  0.00     0.011 A 
HETATM   26 BR   UNL     1     -43.410  55.805 -58.410  1.00  0.00    -0.051 Br
HETATM   27  C   UNL     1     -42.342  58.286 -57.501  1.00  0.00     0.019 A 
HETATM   28  C   UNL     1     -42.066  59.268 -56.551  1.00  0.00     0.002 A 
HETATM   29  C   UNL     1     -42.478  59.101 -55.227  1.00  0.00     0.010 A 
ENDBRANCH   2  23
BRANCH   7  30
HETATM   30  C   UNL     1     -46.740  61.447 -52.827  1.00  0.00     0.085 C 
BRANCH  30  31
HETATM   31  C   UNL     1     -46.274  62.710 -53.546  1.00  0.00     0.034 C 
BRANCH  31  32
HETATM   32  C   UNL     1     -46.412  62.622 -55.061  1.00  0.00     0.164 C 
BRANCH  32  33
HETATM   33  O   UNL     1     -47.115  61.432 -55.407  1.00  0.00    -0.401 OA
HETATM   34  H   UNL     1     -47.460  61.047 -54.584  1.00  0.00     0.209 HD
ENDBRANCH  32  33
ENDBRANCH  31  32
ENDBRANCH  30  31
ENDBRANCH   7  30
TORSDOF 7
ENDMDL
MODEL 6
REMARK VINA RESULT:      -7.5      1.606      2.320
REMARK  7 active torsions:
REMARK  status: ('A' for Active; 'I' for Inactive)
REMARK    1  A    between atoms: C_3  and  N_4 
REMARK       I    between atoms: N_4  and  C_5 
REMARK    2  A    between atoms: C_5  and  C_6 
REMARK    3  A    between atoms: C_7  and  C_8 
REMARK    4  A    between atoms: C_19  and  C_20 
REMARK    5  A    between atoms: C_20  and  C_21 
REMARK    6  A    between atoms: C_21  and  C_22 
REMARK    7  A    between atoms: C_22  and  O_23 
ROOT
HETATM    1  C   UNL     1     -42.557  55.850 -51.477  1.00  0.00     0.062 A 
HETATM    2  C   UNL     1     -43.538  56.495 -52.448  1.00  0.00     0.202 A 
HETATM    3  N   UNL     1     -43.518  57.958 -52.337  1.00  0.00    -0.083 N 
HETATM    4  C   UNL     1     -42.771  58.645 -51.417  1.00  0.00     0.726 A 
HETATM    5  N   UNL     1     -41.983  57.966 -50.565  1.00  0.00    -0.192 N 
HETATM    6  N   UNL     1     -44.321  58.792 -53.034  1.00  0.00    -0.140 NA
HETATM    7  C   UNL     1     -43.925  59.980 -52.555  1.00  0.00     0.166 A 
HETATM    8  N   UNL     1     -42.989  59.928 -51.548  1.00  0.00    -0.046 NA
HETATM    9  C   UNL     1     -41.835  56.584 -50.597  1.00  0.00     0.037 A 
HETATM   10  C   UNL     1     -40.849  56.008 -49.610  1.00  0.00     0.070 C 
HETATM   11  H   UNL     1     -41.401  58.488 -49.916  1.00  0.00     0.184 HD
ENDROOT
BRANCH   1  12
HETATM   12  C   UNL     1     -42.305  54.391 -51.622  1.00  0.00     0.256 C 
HETATM   13  N   UNL     1     -41.027  54.100 -52.047  1.00  0.00    -0.323 N 
HETATM   14  H   UNL     1     -40.433  54.879 -52.292  1.00  0.00     0.169 HD
HETATM   15  O   UNL     1     -43.213  53.609 -51.377  1.00  0.00    -0.267 OA
BRANCH  13  16
HETATM   16  C   UNL     1     -40.456  52.814 -52.221  1.00  0.00     0.041 A 
HETATM   17  C   UNL     1     -40.112  52.387 -53.523  1.00  0.00    -0.035 A 
HETATM   18  C   UNL     1     -40.316  53.248 -54.741  1.00  0.00     0.050 C 
HETATM   19  C   UNL     1     -39.528  51.118 -53.704  1.00  0.00     0.009 A 
HETATM   20  C   UNL     1     -39.294  50.276 -52.620  1.00  0.00     0.001 A 
HETATM   21  C   UNL     1     -39.633  50.694 -51.341  1.00  0.00     0.002 A 
HETATM   22  C   UNL     1     -40.206  51.952 -51.143  1.00  0.00     0.030 A 
ENDBRANCH  13  16
ENDBRANCH   1  12
BRANCH   2  23
HETATM   23  C   UNL     1     -43.348  56.063 -53.898  1.00  0.00    -0.027 A 
HETATM   24  C   UNL     1     -42.904  56.997 -54.850  1.00  0.00     0.028 A 
HETATM   25  C   UNL     1     -42.747  56.621 -56.185  1.00  0.00     0.011 A 
HETATM   26 BR   UNL     1     -42.157  57.897 -57.450  1.00  0.00    -0.051 Br
HETATM   27  C   UNL     1     -43.025  55.321 -56.591  1.00  0.00     0.019 A 
HETATM   28  C   UNL     1     -43.458  54.383 -55.656  1.00  0.00     0.002 A 
HETATM   29  C   UNL     1     -43.617  54.747 -54.316  1.00  0.00     0.010 A 
ENDBRANCH   2  23
BRANCH   7  30
HETATM   30  C   UNL     1     -44.465  61.270 -53.052  1.00  0.00     0.085 C 
BRANCH  30  31
HETATM   31  C   UNL     1     -45.152  62.099 -51.970  1.00  0.00     0.034 C 
BRANCH  31  32
HETATM   32  C   UNL     1     -46.436  61.462 -51.453  1.00  0.00     0.164 C 
BRANCH  32  33
HETATM   33  O   UNL     1     -46.251  61.046 -50.104  1.00  0.00    -0.401 OA
HETATM   34  H   UNL     1     -47.001  61.387 -49.587  1.00  0.00     0.209 HD
ENDBRANCH  32  33
ENDBRANCH  31  32
ENDBRANCH  30  31
ENDBRANCH   7  30
TORSDOF 7
ENDMDL
MODEL 7
REMARK VINA RESULT:      -7.3      1.652      1.909
REMARK  7 active torsions:
REMARK  status: ('A' for Active; 'I' for Inactive)
REMARK    1  A    between atoms: C_3  and  N_4 
REMARK       I    between atoms: N_4  and  C_5 
REMARK    2  A    between atoms: C_5  and  C_6 
REMARK    3  A    between atoms: C_7  and  C_8 
REMARK    4  A    between atoms: C_19  and  C_20 
REMARK    5  A    between atoms: C_20  and  C_21 
REMARK    6  A    between atoms: C_21  and  C_22 
REMARK    7  A    between atoms: C_22  and  O_23 
ROOT
HETATM    1  C   UNL     1     -42.147  57.804 -52.756  1.00  0.00     0.062 A 
HETATM    2  C   UNL     1     -43.368  58.110 -53.614  1.00  0.00     0.202 A 
HETATM    3  N   UNL     1     -43.994  59.379 -53.222  1.00  0.00    -0.083 N 
HETATM    4  C   UNL     1     -43.577  60.143 -52.166  1.00  0.00     0.726 A 
HETATM    5  N   UNL     1     -42.520  59.743 -51.437  1.00  0.00    -0.192 N 
HETATM    6  N   UNL     1     -45.123  59.878 -53.771  1.00  0.00    -0.140 NA
HETATM    7  C   UNL     1     -45.269  61.007 -53.060  1.00  0.00     0.166 A 
HETATM    8  N   UNL     1     -44.349  61.193 -52.055  1.00  0.00    -0.046 NA
HETATM    9  C   UNL     1     -41.775  58.606 -51.729  1.00  0.00     0.037 A 
HETATM   10  C   UNL     1     -40.580  58.360 -50.841  1.00  0.00     0.070 C 
HETATM   11  H   UNL     1     -42.193  60.340 -50.682  1.00  0.00     0.184 HD
ENDROOT
BRANCH   1  12
HETATM   12  C   UNL     1     -41.282  56.668 -53.171  1.00  0.00     0.256 C 
HETATM   13  N   UNL     1     -41.646  55.470 -52.596  1.00  0.00    -0.323 N 
HETATM   14  H   UNL     1     -42.384  55.493 -51.908  1.00  0.00     0.169 HD
HETATM   15  O   UNL     1     -40.354  56.883 -53.940  1.00  0.00    -0.267 OA
BRANCH  13  16
HETATM   16  C   UNL     1     -41.066  54.197 -52.833  1.00  0.00     0.041 A 
HETATM   17  C   UNL     1     -40.384  53.548 -51.779  1.00  0.00    -0.035 A 
HETATM   18  C   UNL     1     -40.255  54.146 -50.404  1.00  0.00     0.050 C 
HETATM   19  C   UNL     1     -39.822  52.276 -52.000  1.00  0.00     0.009 A 
HETATM   20  C   UNL     1     -39.919  51.655 -53.242  1.00  0.00     0.001 A 
HETATM   21  C   UNL     1     -40.587  52.293 -54.278  1.00  0.00     0.002 A 
HETATM   22  C   UNL     1     -41.158  53.551 -54.073  1.00  0.00     0.030 A 
ENDBRANCH  13  16
ENDBRANCH   1  12
BRANCH   2  23
HETATM   23  C   UNL     1     -43.092  58.086 -55.113  1.00  0.00    -0.027 A 
HETATM   24  C   UNL     1     -42.522  59.211 -55.734  1.00  0.00     0.028 A 
HETATM   25  C   UNL     1     -42.285  59.211 -57.109  1.00  0.00     0.011 A 
HETATM   26 BR   UNL     1     -41.525  60.739 -57.925  1.00  0.00    -0.051 Br
HETATM   27  C   UNL     1     -42.606  58.101 -57.883  1.00  0.00     0.019 A 
HETATM   28  C   UNL     1     -43.165  56.977 -57.279  1.00  0.00     0.002 A 
HETATM   29  C   UNL     1     -43.405  56.965 -55.903  1.00  0.00     0.010 A 
ENDBRANCH   2  23
BRANCH   7  30
HETATM   30  C   UNL     1     -46.354  61.986 -53.316  1.00  0.00     0.085 C 
BRANCH  30  31
HETATM   31  C   UNL     1     -47.668  61.633 -52.624  1.00  0.00     0.034 C 
BRANCH  31  32
HETATM   32  C   UNL     1     -48.879  62.301 -53.264  1.00  0.00     0.164 C 
BRANCH  32  33
HETATM   33  O   UNL     1     -50.018  61.458 -53.122  1.00  0.00    -0.401 OA
HETATM   34  H   UNL     1     -49.773  60.732 -52.524  1.00  0.00     0.209 HD
ENDBRANCH  32  33
ENDBRANCH  31  32
ENDBRANCH  30  31
ENDBRANCH   7  30
TORSDOF 7
ENDMDL
MODEL 8
REMARK VINA RESULT:      -7.2      3.486      7.497
REMARK  7 active torsions:
REMARK  status: ('A' for Active; 'I' for Inactive)
REMARK    1  A    between atoms: C_3  and  N_4 
REMARK       I    between atoms: N_4  and  C_5 
REMARK    2  A    between atoms: C_5  and  C_6 
REMARK    3  A    between atoms: C_7  and  C_8 
REMARK    4  A    between atoms: C_19  and  C_20 
REMARK    5  A    between atoms: C_20  and  C_21 
REMARK    6  A    between atoms: C_21  and  C_22 
REMARK    7  A    between atoms: C_22  and  O_23 
ROOT
HETATM    1  C   UNL     1     -43.301  55.876 -54.668  1.00  0.00     0.062 A 
HETATM    2  C   UNL     1     -42.898  55.963 -53.201  1.00  0.00     0.202 A 
HETATM    3  N   UNL     1     -41.964  54.891 -52.838  1.00  0.00    -0.083 N 
HETATM    4  C   UNL     1     -41.575  53.894 -53.691  1.00  0.00     0.726 A 
HETATM    5  N   UNL     1     -42.044  53.881 -54.952  1.00  0.00    -0.192 N 
HETATM    6  N   UNL     1     -41.479  54.685 -51.594  1.00  0.00    -0.140 NA
HETATM    7  C   UNL     1     -40.716  53.601 -51.798  1.00  0.00     0.166 A 
HETATM    8  N   UNL     1     -40.765  53.077 -53.069  1.00  0.00    -0.046 NA
HETATM    9  C   UNL     1     -42.873  54.870 -55.469  1.00  0.00     0.037 A 
HETATM   10  C   UNL     1     -43.236  54.724 -56.927  1.00  0.00     0.070 C 
HETATM   11  H   UNL     1     -41.715  53.161 -55.589  1.00  0.00     0.184 HD
ENDROOT
BRANCH   1  12
HETATM   12  C   UNL     1     -44.068  57.014 -55.240  1.00  0.00     0.256 C 
HETATM   13  N   UNL     1     -43.386  57.686 -56.230  1.00  0.00    -0.323 N 
HETATM   14  H   UNL     1     -42.433  57.405 -56.408  1.00  0.00     0.169 HD
HETATM   15  O   UNL     1     -45.182  57.258 -54.795  1.00  0.00    -0.267 OA
BRANCH  13  16
HETATM   16  C   UNL     1     -43.862  58.770 -57.012  1.00  0.00     0.041 A 
HETATM   17  C   UNL     1     -43.478  60.085 -56.666  1.00  0.00    -0.035 A 
HETATM   18  C   UNL     1     -42.571  60.388 -55.503  1.00  0.00     0.050 C 
HETATM   19  C   UNL     1     -43.931  61.166 -57.447  1.00  0.00     0.009 A 
HETATM   20  C   UNL     1     -44.758  60.958 -58.547  1.00  0.00     0.001 A 
HETATM   21  C   UNL     1     -45.137  59.667 -58.887  1.00  0.00     0.002 A 
HETATM   22  C   UNL     1     -44.690  58.583 -58.128  1.00  0.00     0.030 A 
ENDBRANCH  13  16
ENDBRANCH   1  12
BRANCH   2  23
HETATM   23  C   UNL     1     -42.341  57.323 -52.793  1.00  0.00    -0.027 A 
HETATM   24  C   UNL     1     -43.117  58.182 -51.995  1.00  0.00     0.028 A 
HETATM   25  C   UNL     1     -42.628  59.438 -51.634  1.00  0.00     0.011 A 
HETATM   26 BR   UNL     1     -43.693  60.581 -50.567  1.00  0.00    -0.051 Br
HETATM   27  C   UNL     1     -41.370  59.857 -52.054  1.00  0.00     0.019 A 
HETATM   28  C   UNL     1     -40.588  59.011 -52.839  1.00  0.00     0.002 A 
HETATM   29  C   UNL     1     -41.066  57.751 -53.205  1.00  0.00     0.010 A 
ENDBRANCH   2  23
BRANCH   7  30
HETATM   30  C   UNL     1     -39.887  52.986 -50.732  1.00  0.00     0.085 C 
BRANCH  30  31
HETATM   31  C   UNL     1     -39.686  53.891 -49.519  1.00  0.00     0.034 C 
BRANCH  31  32
HETATM   32  C   UNL     1     -40.604  53.541 -48.354  1.00  0.00     0.164 C 
BRANCH  32  33
HETATM   33  O   UNL     1     -40.866  54.712 -47.586  1.00  0.00    -0.401 OA
HETATM   34  H   UNL     1     -41.663  54.543 -47.056  1.00  0.00     0.209 HD
ENDBRANCH  32  33
ENDBRANCH  31  32
ENDBRANCH  30  31
ENDBRANCH   7  30
TORSDOF 7
ENDMDL
MODEL 9
REMARK VINA RESULT:      -7.0      2.030      2.763
REMARK  7 active torsions:
REMARK  status: ('A' for Active; 'I' for Inactive)
REMARK    1  A    between atoms: C_3  and  N_4 
REMARK       I    between atoms: N_4  and  C_5 
REMARK    2  A    between atoms: C_5  and  C_6 
REMARK    3  A    between atoms: C_7  and  C_8 
REMARK    4  A    between atoms: C_19  and  C_20 
REMARK    5  A    between atoms: C_20  and  C_21 
REMARK    6  A    between atoms: C_21  and  C_22 
REMARK    7  A    between atoms: C_22  and  O_23 
ROOT
HETATM    1  C   UNL     1     -42.227  58.305 -51.704  1.00  0.00     0.062 A 
HETATM    2  C   UNL     1     -43.688  58.643 -51.975  1.00  0.00     0.202 A 
HETATM    3  N   UNL     1     -44.105  59.844 -51.239  1.00  0.00    -0.083 N 
HETATM    4  C   UNL     1     -43.302  60.518 -50.359  1.00  0.00     0.726 A 
HETATM    5  N   UNL     1     -42.044  60.091 -50.150  1.00  0.00    -0.192 N 
HETATM    6  N   UNL     1     -45.358  60.349 -51.243  1.00  0.00    -0.140 NA
HETATM    7  C   UNL     1     -45.208  61.397 -50.419  1.00  0.00     0.166 A 
HETATM    8  N   UNL     1     -43.965  61.521 -49.844  1.00  0.00    -0.046 NA
HETATM    9  C   UNL     1     -41.478  59.018 -50.829  1.00  0.00     0.037 A 
HETATM   10  C   UNL     1     -40.029  58.734 -50.515  1.00  0.00     0.070 C 
HETATM   11  H   UNL     1     -41.444  60.625 -49.528  1.00  0.00     0.184 HD
ENDROOT
BRANCH   1  12
HETATM   12  C   UNL     1     -41.600  57.248 -52.541  1.00  0.00     0.256 C 
HETATM   13  N   UNL     1     -41.931  55.971 -52.144  1.00  0.00    -0.323 N 
HETATM   14  H   UNL     1     -42.479  55.877 -51.302  1.00  0.00     0.169 HD
HETATM   15  O   UNL     1     -40.865  57.584 -53.461  1.00  0.00    -0.267 OA
BRANCH  13  16
HETATM   16  C   UNL     1     -41.550  54.756 -52.768  1.00  0.00     0.041 A 
HETATM   17  C   UNL     1     -42.220  54.350 -53.944  1.00  0.00    -0.035 A 
HETATM   18  C   UNL     1     -43.321  55.161 -54.574  1.00  0.00     0.050 C 
HETATM   19  C   UNL     1     -41.836  53.154 -54.581  1.00  0.00     0.009 A 
HETATM   20  C   UNL     1     -40.814  52.362 -54.063  1.00  0.00     0.001 A 
HETATM   21  C   UNL     1     -40.157  52.760 -52.907  1.00  0.00     0.002 A 
HETATM   22  C   UNL     1     -40.520  53.947 -52.268  1.00  0.00     0.030 A 
ENDBRANCH  13  16
ENDBRANCH   1  12
BRANCH   2  23
HETATM   23  C   UNL     1     -44.028  58.775 -53.455  1.00  0.00    -0.027 A 
HETATM   24  C   UNL     1     -43.351  59.722 -54.243  1.00  0.00     0.028 A 
HETATM   25  C   UNL     1     -43.669  59.869 -55.594  1.00  0.00     0.011 A 
HETATM   26 BR   UNL     1     -42.753  61.157 -56.633  1.00  0.00    -0.051 Br
HETATM   27  C   UNL     1     -44.653  59.081 -56.180  1.00  0.00     0.019 A 
HETATM   28  C   UNL     1     -45.326  58.133 -55.412  1.00  0.00     0.002 A 
HETATM   29  C   UNL     1     -45.015  57.976 -54.059  1.00  0.00     0.010 A 
ENDBRANCH   2  23
BRANCH   7  30
HETATM   30  C   UNL     1     -46.304  62.353 -50.124  1.00  0.00     0.085 C 
BRANCH  30  31
HETATM   31  C   UNL     1     -46.633  62.461 -48.637  1.00  0.00     0.034 C 
BRANCH  31  32
HETATM   32  C   UNL     1     -47.841  63.345 -48.355  1.00  0.00     0.164 C 
BRANCH  32  33
HETATM   33  O   UNL     1     -48.067  63.409 -46.950  1.00  0.00    -0.401 OA
HETATM   34  H   UNL     1     -47.849  64.311 -46.659  1.00  0.00     0.209 HD
ENDBRANCH  32  33
ENDBRANCH  31  32
ENDBRANCH  30  31
ENDBRANCH   7  30
TORSDOF 7
ENDMDL
MODEL 10
REMARK VINA RESULT:      -6.9      3.348      8.474
REMARK  7 active torsions:
REMARK  status: ('A' for Active; 'I' for Inactive)
REMARK    1  A    between atoms: C_3  and  N_4 
REMARK       I    between atoms: N_4  and  C_5 
REMARK    2  A    between atoms: C_5  and  C_6 
REMARK    3  A    between atoms: C_7  and  C_8 
REMARK    4  A    between atoms: C_19  and  C_20 
REMARK    5  A    between atoms: C_20  and  C_21 
REMARK    6  A    between atoms: C_21  and  C_22 
REMARK    7  A    between atoms: C_22  and  O_23 
ROOT
HETATM    1  C   UNL     1     -43.572  56.891 -55.796  1.00  0.00     0.062 A 
HETATM    2  C   UNL     1     -43.462  56.273 -54.408  1.00  0.00     0.202 A 
HETATM    3  N   UNL     1     -42.448  55.212 -54.372  1.00  0.00    -0.083 N 
HETATM    4  C   UNL     1     -41.752  54.782 -55.470  1.00  0.00     0.726 A 
HETATM    5  N   UNL     1     -41.976  55.361 -56.663  1.00  0.00    -0.192 N 
HETATM    6  N   UNL     1     -42.171  54.452 -53.290  1.00  0.00    -0.140 NA
HETATM    7  C   UNL     1     -41.217  53.649 -53.786  1.00  0.00     0.166 A 
HETATM    8  N   UNL     1     -40.948  53.811 -55.124  1.00  0.00    -0.046 NA
HETATM    9  C   UNL     1     -42.847  56.429 -56.844  1.00  0.00     0.037 A 
HETATM   10  C   UNL     1     -42.910  56.994 -58.242  1.00  0.00     0.070 C 
HETATM   11  H   UNL     1     -41.423  55.063 -57.462  1.00  0.00     0.184 HD
ENDROOT
BRANCH   1  12
HETATM   12  C   UNL     1     -44.397  58.119 -55.939  1.00  0.00     0.256 C 
HETATM   13  N   UNL     1     -43.652  59.246 -56.209  1.00  0.00    -0.323 N 
HETATM   14  H   UNL     1     -42.647  59.149 -56.200  1.00  0.00     0.169 HD
HETATM   15  O   UNL     1     -45.610  58.035 -55.798  1.00  0.00    -0.267 OA
BRANCH  13  16
HETATM   16  C   UNL     1     -44.140  60.554 -56.460  1.00  0.00     0.041 A 
HETATM   17  C   UNL     1     -43.877  61.577 -55.521  1.00  0.00    -0.035 A 
HETATM   18  C   UNL     1     -43.087  61.340 -54.262  1.00  0.00     0.050 C 
HETATM   19  C   UNL     1     -44.343  62.882 -55.772  1.00  0.00     0.009 A 
HETATM   20  C   UNL     1     -45.066  63.176 -56.925  1.00  0.00     0.001 A 
HETATM   21  C   UNL     1     -45.326  62.172 -57.847  1.00  0.00     0.002 A 
HETATM   22  C   UNL     1     -44.864  60.874 -57.618  1.00  0.00     0.030 A 
ENDBRANCH  13  16
ENDBRANCH   1  12
BRANCH   2  23
HETATM   23  C   UNL     1     -43.219  57.288 -53.297  1.00  0.00    -0.027 A 
HETATM   24  C   UNL     1     -44.297  57.735 -52.513  1.00  0.00     0.028 A 
HETATM   25  C   UNL     1     -44.092  58.681 -51.508  1.00  0.00     0.011 A 
HETATM   26 BR   UNL     1     -45.558  59.275 -50.472  1.00  0.00    -0.051 Br
HETATM   27  C   UNL     1     -42.821  59.192 -51.266  1.00  0.00     0.019 A 
HETATM   28  C   UNL     1     -41.743  58.752 -52.030  1.00  0.00     0.002 A 
HETATM   29  C   UNL     1     -41.936  57.804 -53.038  1.00  0.00     0.010 A 
ENDBRANCH   2  23
BRANCH   7  30
HETATM   30  C   UNL     1     -40.507  52.639 -52.963  1.00  0.00     0.085 C 
BRANCH  30  31
HETATM   31  C   UNL     1     -39.607  51.714 -53.778  1.00  0.00     0.034 C 
BRANCH  31  32
HETATM   32  C   UNL     1     -40.294  50.415 -54.183  1.00  0.00     0.164 C 
BRANCH  32  33
HETATM   33  O   UNL     1     -39.382  49.331 -54.045  1.00  0.00    -0.401 OA
HETATM   34  H   UNL     1     -39.679  48.792 -53.293  1.00  0.00     0.209 HD
ENDBRANCH  32  33
ENDBRANCH  31  32
ENDBRANCH  30  31
ENDBRANCH   7  30
TORSDOF 7
ENDMDL
