MODEL 1
REMARK VINA RESULT:      -9.6      0.000      0.000
REMARK  6 active torsions:
REMARK  status: ('A' for Active; 'I' for Inactive)
REMARK    1  A    between atoms: C_2  and  O_3 
REMARK    2  A    between atoms: C_2  and  C_4 
REMARK    3  A    between atoms: C_6  and  N_7 
REMARK       I    between atoms: N_7  and  C_8 
REMARK    4  A    between atoms: C_8  and  C_9 
REMARK    5  A    between atoms: C_14  and  C_15 
REMARK    6  A    between atoms: C_23  and  C_24 
ROOT
HETATM    1  C   UNL     1     -44.187  58.094 -51.595  1.00  0.00     0.148 A 
HETATM    2  N   UNL     1     -44.723  57.500 -52.689  1.00  0.00    -0.165 NA
HETATM    3  N   UNL     1     -43.706  56.752 -53.160  1.00  0.00    -0.240 N 
HETATM    4  C   UNL     1     -42.587  56.778 -52.378  1.00  0.00     0.123 A 
HETATM    5  N   UNL     1     -41.528  55.989 -52.646  1.00  0.00    -0.366 N 
HETATM    6  C   UNL     1     -41.583  54.901 -53.619  1.00  0.00     0.118 C 
HETATM    7  C   UNL     1     -43.033  54.599 -54.060  1.00  0.00     0.066 C 
HETATM    8  C   UNL     1     -43.844  55.881 -54.310  1.00  0.00     0.221 C 
HETATM    9  C   UNL     1     -42.841  57.685 -51.387  1.00  0.00     0.089 A 
HETATM   10  H   UNL     1     -40.690  56.018 -52.064  1.00  0.00     0.161 HD
ENDROOT
BRANCH   1  11
HETATM   11  C   UNL     1     -44.958  59.010 -50.734  1.00  0.00     0.276 C 
HETATM   12  N   UNL     1     -44.164  59.999 -50.187  1.00  0.00    -0.322 N 
HETATM   13  H   UNL     1     -43.183  59.913 -50.433  1.00  0.00     0.169 HD
HETATM   14  O   UNL     1     -46.163  58.863 -50.572  1.00  0.00    -0.266 OA
BRANCH  12  15
HETATM   15  C   UNL     1     -44.554  61.071 -49.366  1.00  0.00     0.035 A 
HETATM   16  C   UNL     1     -45.379  60.930 -48.247  1.00  0.00     0.039 A 
HETATM   17  C   UNL     1     -45.745  62.043 -47.466  1.00  0.00    -0.028 A 
HETATM   18  C   UNL     1     -45.255  63.305 -47.822  1.00  0.00     0.010 A 
HETATM   19  C   UNL     1     -44.435  63.455 -48.939  1.00  0.00     0.003 A 
HETATM   20  C   UNL     1     -44.088  62.343 -49.709  1.00  0.00     0.029 A 
BRANCH  17  21
HETATM   21  C   UNL     1     -46.624  61.838 -46.251  1.00  0.00     0.147 C 
HETATM   22  C   UNL     1     -47.161  63.162 -45.722  1.00  0.00     0.044 C 
BRANCH  21  23
HETATM   23  O   UNL     1     -47.724  60.985 -46.568  1.00  0.00    -0.391 OA
HETATM   24  H   UNL     1     -48.507  61.362 -46.133  1.00  0.00     0.210 HD
ENDBRANCH  21  23
ENDBRANCH  17  21
ENDBRANCH  12  15
ENDBRANCH   1  11
BRANCH   8  25
HETATM   25  C   UNL     1     -43.421  56.607 -55.565  1.00  0.00     0.409 C 
HETATM   26  F   UNL     1     -44.448  57.254 -56.157  1.00  0.00    -0.169 F 
HETATM   27  F   UNL     1     -42.430  57.501 -55.366  1.00  0.00    -0.169 F 
HETATM   28  F   UNL     1     -42.955  55.711 -56.475  1.00  0.00    -0.169 F 
ENDBRANCH   8  25
BRANCH   6  29
HETATM   29  C   UNL     1     -40.917  53.680 -53.001  1.00  0.00    -0.035 A 
HETATM   30  C   UNL     1     -40.753  53.574 -51.605  1.00  0.00     0.012 A 
HETATM   31  C   UNL     1     -40.111  52.472 -51.043  1.00  0.00     0.043 A 
HETATM   32  C   UNL     1     -39.622  51.472 -51.872  1.00  0.00     0.116 A 
HETATM   33  F   UNL     1     -38.995  50.418 -51.336  1.00  0.00    -0.206 F 
HETATM   34  C   UNL     1     -39.765  51.555 -53.253  1.00  0.00     0.043 A 
HETATM   35  C   UNL     1     -40.412  52.656 -53.819  1.00  0.00     0.012 A 
ENDBRANCH   6  29
TORSDOF 6
ENDMDL
MODEL 2
REMARK VINA RESULT:      -9.5      6.526     10.031
REMARK  6 active torsions:
REMARK  status: ('A' for Active; 'I' for Inactive)
REMARK    1  A    between atoms: C_2  and  O_3 
REMARK    2  A    between atoms: C_2  and  C_4 
REMARK    3  A    between atoms: C_6  and  N_7 
REMARK       I    between atoms: N_7  and  C_8 
REMARK    4  A    between atoms: C_8  and  C_9 
REMARK    5  A    between atoms: C_14  and  C_15 
REMARK    6  A    between atoms: C_23  and  C_24 
ROOT
HETATM    1  C   UNL     1     -42.903  55.847 -56.242  1.00  0.00     0.148 A 
HETATM    2  N   UNL     1     -42.884  55.432 -57.532  1.00  0.00    -0.165 NA
HETATM    3  N   UNL     1     -43.071  56.572 -58.224  1.00  0.00    -0.240 N 
HETATM    4  C   UNL     1     -43.125  57.693 -57.446  1.00  0.00     0.123 A 
HETATM    5  N   UNL     1     -43.185  58.923 -57.994  1.00  0.00    -0.366 N 
HETATM    6  C   UNL     1     -42.959  59.162 -59.418  1.00  0.00     0.118 C 
HETATM    7  C   UNL     1     -42.375  57.918 -60.123  1.00  0.00     0.066 C 
HETATM    8  C   UNL     1     -43.062  56.618 -59.673  1.00  0.00     0.221 C 
HETATM    9  C   UNL     1     -43.080  57.256 -56.152  1.00  0.00     0.089 A 
HETATM   10  H   UNL     1     -43.233  59.757 -57.409  1.00  0.00     0.161 HD
ENDROOT
BRANCH   1  11
HETATM   11  C   UNL     1     -42.716  54.923 -55.109  1.00  0.00     0.276 C 
HETATM   12  N   UNL     1     -41.422  54.447 -55.035  1.00  0.00    -0.322 N 
HETATM   13  H   UNL     1     -40.825  54.777 -55.787  1.00  0.00     0.169 HD
HETATM   14  O   UNL     1     -43.641  54.656 -54.351  1.00  0.00    -0.266 OA
BRANCH  12  15
HETATM   15  C   UNL     1     -40.864  53.595 -54.066  1.00  0.00     0.035 A 
HETATM   16  C   UNL     1     -40.453  52.286 -54.330  1.00  0.00     0.039 A 
HETATM   17  C   UNL     1     -39.908  51.473 -53.317  1.00  0.00    -0.028 A 
HETATM   18  C   UNL     1     -39.771  52.006 -52.030  1.00  0.00     0.010 A 
HETATM   19  C   UNL     1     -40.183  53.309 -51.756  1.00  0.00     0.003 A 
HETATM   20  C   UNL     1     -40.730  54.099 -52.770  1.00  0.00     0.029 A 
BRANCH  17  21
HETATM   21  C   UNL     1     -39.457  50.069 -53.656  1.00  0.00     0.147 C 
HETATM   22  C   UNL     1     -39.501  49.160 -52.433  1.00  0.00     0.044 C 
BRANCH  21  23
HETATM   23  O   UNL     1     -40.283  49.512 -54.679  1.00  0.00    -0.391 OA
HETATM   24  H   UNL     1     -39.997  48.591 -54.800  1.00  0.00     0.210 HD
ENDBRANCH  21  23
ENDBRANCH  17  21
ENDBRANCH  12  15
ENDBRANCH   1  11
BRANCH   8  25
HETATM   25  C   UNL     1     -44.470  56.484 -60.205  1.00  0.00     0.409 C 
HETATM   26  F   UNL     1     -45.335  56.042 -59.266  1.00  0.00    -0.169 F 
HETATM   27  F   UNL     1     -44.966  57.628 -60.718  1.00  0.00    -0.169 F 
HETATM   28  F   UNL     1     -44.491  55.568 -61.210  1.00  0.00    -0.169 F 
ENDBRANCH   8  25
BRANCH   6  29
HETATM   29  C   UNL     1     -42.042  60.369 -59.554  1.00  0.00    -0.035 A 
HETATM   30  C   UNL     1     -41.783  60.943 -60.814  1.00  0.00     0.012 A 
HETATM   31  C   UNL     1     -40.915  62.026 -60.942  1.00  0.00     0.043 A 
HETATM   32  C   UNL     1     -40.292  62.537 -59.811  1.00  0.00     0.116 A 
HETATM   33  F   UNL     1     -39.449  63.570 -59.932  1.00  0.00    -0.206 F 
HETATM   34  C   UNL     1     -40.525  61.985 -58.556  1.00  0.00     0.043 A 
HETATM   35  C   UNL     1     -41.399  60.903 -58.425  1.00  0.00     0.012 A 
ENDBRANCH   6  29
TORSDOF 6
ENDMDL
MODEL 3
REMARK VINA RESULT:      -9.3      5.765      9.029
REMARK  6 active torsions:
REMARK  status: ('A' for Active; 'I' for Inactive)
REMARK    1  A    between atoms: C_2  and  O_3 
REMARK    2  A    between atoms: C_2  and  C_4 
REMARK    3  A    between atoms: C_6  and  N_7 
REMARK       I    between atoms: N_7  and  C_8 
REMARK    4  A    between atoms: C_8  and  C_9 
REMARK    5  A    between atoms: C_14  and  C_15 
REMARK    6  A    between atoms: C_23  and  C_24 
ROOT
HETATM    1  C   UNL     1     -42.933  55.607 -55.847  1.00  0.00     0.148 A 
HETATM    2  N   UNL     1     -42.777  55.030 -57.063  1.00  0.00    -0.165 NA
HETATM    3  N   UNL     1     -43.027  56.041 -57.917  1.00  0.00    -0.240 N 
HETATM    4  C   UNL     1     -43.252  57.242 -57.307  1.00  0.00     0.123 A 
HETATM    5  N   UNL     1     -43.397  58.374 -58.022  1.00  0.00    -0.366 N 
HETATM    6  C   UNL     1     -43.092  58.447 -59.450  1.00  0.00     0.118 C 
HETATM    7  C   UNL     1     -42.334  57.193 -59.940  1.00  0.00     0.066 C 
HETATM    8  C   UNL     1     -42.916  55.896 -59.355  1.00  0.00     0.221 C 
HETATM    9  C   UNL     1     -43.259  56.987 -55.964  1.00  0.00     0.089 A 
HETATM   10  H   UNL     1     -43.573  59.268 -57.564  1.00  0.00     0.161 HD
ENDROOT
BRANCH   1  11
HETATM   11  C   UNL     1     -42.738  54.866 -54.587  1.00  0.00     0.276 C 
HETATM   12  N   UNL     1     -41.433  54.443 -54.431  1.00  0.00    -0.322 N 
HETATM   13  H   UNL     1     -40.835  54.675 -55.218  1.00  0.00     0.169 HD
HETATM   14  O   UNL     1     -43.666  54.689 -53.807  1.00  0.00    -0.266 OA
BRANCH  12  15
HETATM   15  C   UNL     1     -40.866  53.760 -53.341  1.00  0.00     0.035 A 
HETATM   16  C   UNL     1     -40.812  54.278 -52.045  1.00  0.00     0.039 A 
HETATM   17  C   UNL     1     -40.222  53.552 -50.992  1.00  0.00    -0.028 A 
HETATM   18  C   UNL     1     -39.695  52.283 -51.264  1.00  0.00     0.010 A 
HETATM   19  C   UNL     1     -39.741  51.760 -52.555  1.00  0.00     0.003 A 
HETATM   20  C   UNL     1     -40.321  52.497 -53.590  1.00  0.00     0.029 A 
BRANCH  17  21
HETATM   21  C   UNL     1     -40.206  54.145 -49.601  1.00  0.00     0.147 C 
HETATM   22  C   UNL     1     -41.150  55.337 -49.493  1.00  0.00     0.044 C 
BRANCH  21  23
HETATM   23  O   UNL     1     -40.584  53.165 -48.634  1.00  0.00    -0.391 OA
HETATM   24  H   UNL     1     -39.822  53.044 -48.044  1.00  0.00     0.210 HD
ENDBRANCH  21  23
ENDBRANCH  17  21
ENDBRANCH  12  15
ENDBRANCH   1  11
BRANCH   8  25
HETATM   25  C   UNL     1     -44.260  55.538 -59.945  1.00  0.00     0.409 C 
HETATM   26  F   UNL     1     -45.288  56.039 -59.228  1.00  0.00    -0.169 F 
HETATM   27  F   UNL     1     -44.414  55.940 -61.223  1.00  0.00    -0.169 F 
HETATM   28  F   UNL     1     -44.411  54.187 -59.944  1.00  0.00    -0.169 F 
ENDBRANCH   8  25
BRANCH   6  29
HETATM   29  C   UNL     1     -42.294  59.719 -59.698  1.00  0.00    -0.035 A 
HETATM   30  C   UNL     1     -41.756  60.457 -58.625  1.00  0.00     0.012 A 
HETATM   31  C   UNL     1     -41.056  61.641 -58.851  1.00  0.00     0.043 A 
HETATM   32  C   UNL     1     -40.896  62.100 -60.152  1.00  0.00     0.116 A 
HETATM   33  F   UNL     1     -40.233  63.242 -60.372  1.00  0.00    -0.206 F 
HETATM   34  C   UNL     1     -41.422  61.394 -61.228  1.00  0.00     0.043 A 
HETATM   35  C   UNL     1     -42.120  60.205 -61.004  1.00  0.00     0.012 A 
ENDBRANCH   6  29
TORSDOF 6
ENDMDL
MODEL 4
REMARK VINA RESULT:      -9.1      5.432      8.315
REMARK  6 active torsions:
REMARK  status: ('A' for Active; 'I' for Inactive)
REMARK    1  A    between atoms: C_2  and  O_3 
REMARK    2  A    between atoms: C_2  and  C_4 
REMARK    3  A    between atoms: C_6  and  N_7 
REMARK       I    between atoms: N_7  and  C_8 
REMARK    4  A    between atoms: C_8  and  C_9 
REMARK    5  A    between atoms: C_14  and  C_15 
REMARK    6  A    between atoms: C_23  and  C_24 
ROOT
HETATM    1  C   UNL     1     -43.144  56.419 -56.773  1.00  0.00     0.148 A 
HETATM    2  N   UNL     1     -42.286  57.098 -55.973  1.00  0.00    -0.165 NA
HETATM    3  N   UNL     1     -42.086  56.249 -54.947  1.00  0.00    -0.240 N 
HETATM    4  C   UNL     1     -42.706  55.041 -55.095  1.00  0.00     0.123 A 
HETATM    5  N   UNL     1     -42.506  54.040 -54.215  1.00  0.00    -0.366 N 
HETATM    6  C   UNL     1     -41.456  54.082 -53.200  1.00  0.00     0.118 C 
HETATM    7  C   UNL     1     -40.462  55.238 -53.450  1.00  0.00     0.066 C 
HETATM    8  C   UNL     1     -41.173  56.538 -53.859  1.00  0.00     0.221 C 
HETATM    9  C   UNL     1     -43.450  55.137 -56.237  1.00  0.00     0.089 A 
HETATM   10  H   UNL     1     -42.978  53.142 -54.324  1.00  0.00     0.161 HD
ENDROOT
BRANCH   1  11
HETATM   11  C   UNL     1     -43.638  56.965 -58.050  1.00  0.00     0.276 C 
HETATM   12  N   UNL     1     -44.994  57.222 -58.015  1.00  0.00    -0.322 N 
HETATM   13  H   UNL     1     -45.434  56.961 -57.137  1.00  0.00     0.169 HD
HETATM   14  O   UNL     1     -42.879  57.155 -58.993  1.00  0.00    -0.266 OA
BRANCH  12  15
HETATM   15  C   UNL     1     -45.797  57.790 -59.019  1.00  0.00     0.035 A 
HETATM   16  C   UNL     1     -46.564  57.041 -59.915  1.00  0.00     0.039 A 
HETATM   17  C   UNL     1     -47.343  57.664 -60.908  1.00  0.00    -0.028 A 
HETATM   18  C   UNL     1     -47.350  59.063 -60.978  1.00  0.00     0.010 A 
HETATM   19  C   UNL     1     -46.584  59.819 -60.091  1.00  0.00     0.003 A 
HETATM   20  C   UNL     1     -45.809  59.185 -59.118  1.00  0.00     0.029 A 
BRANCH  17  21
HETATM   21  C   UNL     1     -48.173  56.811 -61.842  1.00  0.00     0.147 C 
HETATM   22  C   UNL     1     -49.257  57.633 -62.531  1.00  0.00     0.044 C 
BRANCH  21  23
HETATM   23  O   UNL     1     -47.346  56.207 -62.836  1.00  0.00    -0.391 OA
HETATM   24  H   UNL     1     -46.467  56.613 -62.754  1.00  0.00     0.210 HD
ENDBRANCH  21  23
ENDBRANCH  17  21
ENDBRANCH  12  15
ENDBRANCH   1  11
BRANCH   8  25
HETATM   25  C   UNL     1     -41.917  57.185 -52.715  1.00  0.00     0.409 C 
HETATM   26  F   UNL     1     -42.087  58.513 -52.895  1.00  0.00    -0.169 F 
HETATM   27  F   UNL     1     -43.130  56.642 -52.482  1.00  0.00    -0.169 F 
HETATM   28  F   UNL     1     -41.203  57.041 -51.567  1.00  0.00    -0.169 F 
ENDBRANCH   8  25
BRANCH   6  29
HETATM   29  C   UNL     1     -40.757  52.731 -53.188  1.00  0.00    -0.035 A 
HETATM   30  C   UNL     1     -40.833  51.866 -54.298  1.00  0.00     0.012 A 
HETATM   31  C   UNL     1     -40.222  50.614 -54.272  1.00  0.00     0.043 A 
HETATM   32  C   UNL     1     -39.535  50.214 -53.133  1.00  0.00     0.116 A 
HETATM   33  F   UNL     1     -38.956  49.008 -53.102  1.00  0.00    -0.206 F 
HETATM   34  C   UNL     1     -39.449  51.046 -52.022  1.00  0.00     0.043 A 
HETATM   35  C   UNL     1     -40.057  52.303 -52.047  1.00  0.00     0.012 A 
ENDBRANCH   6  29
TORSDOF 6
ENDMDL
MODEL 5
REMARK VINA RESULT:      -8.8      1.411      1.907
REMARK  6 active torsions:
REMARK  status: ('A' for Active; 'I' for Inactive)
REMARK    1  A    between atoms: C_2  and  O_3 
REMARK    2  A    between atoms: C_2  and  C_4 
REMARK    3  A    between atoms: C_6  and  N_7 
REMARK       I    between atoms: N_7  and  C_8 
REMARK    4  A    between atoms: C_8  and  C_9 
REMARK    5  A    between atoms: C_14  and  C_15 
REMARK    6  A    between atoms: C_23  and  C_24 
ROOT
HETATM    1  C   UNL     1     -42.112  58.123 -51.928  1.00  0.00     0.148 A 
HETATM    2  N   UNL     1     -43.131  57.636 -52.677  1.00  0.00    -0.165 NA
HETATM    3  N   UNL     1     -42.552  56.636 -53.369  1.00  0.00    -0.240 N 
HETATM    4  C   UNL     1     -41.245  56.414 -53.039  1.00  0.00     0.123 A 
HETATM    5  N   UNL     1     -40.561  55.373 -53.552  1.00  0.00    -0.366 N 
HETATM    6  C   UNL     1     -41.209  54.292 -54.291  1.00  0.00     0.118 C 
HETATM    7  C   UNL     1     -42.748  54.345 -54.152  1.00  0.00     0.066 C 
HETATM    8  C   UNL     1     -43.293  55.777 -54.271  1.00  0.00     0.221 C 
HETATM    9  C   UNL     1     -40.909  57.398 -52.152  1.00  0.00     0.089 A 
HETATM   10  H   UNL     1     -39.583  55.216 -53.310  1.00  0.00     0.161 HD
ENDROOT
BRANCH   1  11
HETATM   11  C   UNL     1     -42.287  59.241 -50.983  1.00  0.00     0.276 C 
HETATM   12  N   UNL     1     -43.516  59.854 -51.126  1.00  0.00    -0.322 N 
HETATM   13  H   UNL     1     -44.078  59.465 -51.877  1.00  0.00     0.169 HD
HETATM   14  O   UNL     1     -41.410  59.534 -50.180  1.00  0.00    -0.266 OA
BRANCH  12  15
HETATM   15  C   UNL     1     -44.053  60.911 -50.371  1.00  0.00     0.035 A 
HETATM   16  C   UNL     1     -44.883  60.728 -49.263  1.00  0.00     0.039 A 
HETATM   17  C   UNL     1     -45.401  61.826 -48.549  1.00  0.00    -0.028 A 
HETATM   18  C   UNL     1     -45.058  63.119 -48.963  1.00  0.00     0.010 A 
HETATM   19  C   UNL     1     -44.234  63.311 -50.071  1.00  0.00     0.003 A 
HETATM   20  C   UNL     1     -43.736  62.212 -50.773  1.00  0.00     0.029 A 
BRANCH  17  21
HETATM   21  C   UNL     1     -46.279  61.577 -47.342  1.00  0.00     0.147 C 
HETATM   22  C   UNL     1     -45.654  62.143 -46.072  1.00  0.00     0.044 C 
BRANCH  21  23
HETATM   23  O   UNL     1     -47.565  62.168 -47.529  1.00  0.00    -0.391 OA
HETATM   24  H   UNL     1     -48.215  61.448 -47.475  1.00  0.00     0.210 HD
ENDBRANCH  21  23
ENDBRANCH  17  21
ENDBRANCH  12  15
ENDBRANCH   1  11
BRANCH   8  25
HETATM   25  C   UNL     1     -43.220  56.318 -55.680  1.00  0.00     0.409 C 
HETATM   26  F   UNL     1     -42.114  57.065 -55.888  1.00  0.00    -0.169 F 
HETATM   27  F   UNL     1     -43.256  55.361 -56.630  1.00  0.00    -0.169 F 
HETATM   28  F   UNL     1     -44.284  57.132 -55.911  1.00  0.00    -0.169 F 
ENDBRANCH   8  25
BRANCH   6  29
HETATM   29  C   UNL     1     -40.645  52.972 -53.787  1.00  0.00    -0.035 A 
HETATM   30  C   UNL     1     -40.576  51.845 -54.631  1.00  0.00     0.012 A 
HETATM   31  C   UNL     1     -40.091  50.626 -54.158  1.00  0.00     0.043 A 
HETATM   32  C   UNL     1     -39.678  50.524 -52.836  1.00  0.00     0.116 A 
HETATM   33  F   UNL     1     -39.223  49.352 -52.377  1.00  0.00    -0.206 F 
HETATM   34  C   UNL     1     -39.741  51.618 -51.981  1.00  0.00     0.043 A 
HETATM   35  C   UNL     1     -40.223  52.842 -52.454  1.00  0.00     0.012 A 
ENDBRANCH   6  29
TORSDOF 6
ENDMDL
MODEL 6
REMARK VINA RESULT:      -8.8      1.542      2.072
REMARK  6 active torsions:
REMARK  status: ('A' for Active; 'I' for Inactive)
REMARK    1  A    between atoms: C_2  and  O_3 
REMARK    2  A    between atoms: C_2  and  C_4 
REMARK    3  A    between atoms: C_6  and  N_7 
REMARK       I    between atoms: N_7  and  C_8 
REMARK    4  A    between atoms: C_8  and  C_9 
REMARK    5  A    between atoms: C_14  and  C_15 
REMARK    6  A    between atoms: C_23  and  C_24 
ROOT
HETATM    1  C   UNL     1     -43.983  57.607 -51.934  1.00  0.00     0.148 A 
HETATM    2  N   UNL     1     -44.431  57.049 -53.085  1.00  0.00    -0.165 NA
HETATM    3  N   UNL     1     -43.379  56.317 -53.500  1.00  0.00    -0.240 N 
HETATM    4  C   UNL     1     -42.323  56.318 -52.634  1.00  0.00     0.123 A 
HETATM    5  N   UNL     1     -41.245  55.538 -52.844  1.00  0.00    -0.366 N 
HETATM    6  C   UNL     1     -41.222  54.481 -53.854  1.00  0.00     0.118 C 
HETATM    7  C   UNL     1     -42.633  54.194 -54.415  1.00  0.00     0.066 C 
HETATM    8  C   UNL     1     -43.426  55.483 -54.685  1.00  0.00     0.221 C 
HETATM    9  C   UNL     1     -42.655  57.192 -51.637  1.00  0.00     0.089 A 
HETATM   10  H   UNL     1     -40.455  55.548 -52.200  1.00  0.00     0.161 HD
ENDROOT
BRANCH   1  11
HETATM   11  C   UNL     1     -44.819  58.495 -51.106  1.00  0.00     0.276 C 
HETATM   12  N   UNL     1     -44.281  59.762 -50.996  1.00  0.00    -0.322 N 
HETATM   13  H   UNL     1     -43.387  59.865 -51.467  1.00  0.00     0.169 HD
HETATM   14  O   UNL     1     -45.866  58.096 -50.610  1.00  0.00    -0.266 OA
BRANCH  12  15
HETATM   15  C   UNL     1     -44.819  60.880 -50.337  1.00  0.00     0.035 A 
HETATM   16  C   UNL     1     -45.858  61.659 -50.852  1.00  0.00     0.039 A 
HETATM   17  C   UNL     1     -46.351  62.776 -50.151  1.00  0.00    -0.028 A 
HETATM   18  C   UNL     1     -45.788  63.091 -48.908  1.00  0.00     0.010 A 
HETATM   19  C   UNL     1     -44.748  62.323 -48.388  1.00  0.00     0.003 A 
HETATM   20  C   UNL     1     -44.264  61.224 -49.101  1.00  0.00     0.029 A 
BRANCH  17  21
HETATM   21  C   UNL     1     -47.492  63.576 -50.740  1.00  0.00     0.147 C 
HETATM   22  C   UNL     1     -48.035  62.924 -52.006  1.00  0.00     0.044 C 
BRANCH  21  23
HETATM   23  O   UNL     1     -48.553  63.707 -49.794  1.00  0.00    -0.391 OA
HETATM   24  H   UNL     1     -48.864  62.808 -49.595  1.00  0.00     0.210 HD
ENDBRANCH  21  23
ENDBRANCH  17  21
ENDBRANCH  12  15
ENDBRANCH   1  11
BRANCH   8  25
HETATM   25  C   UNL     1     -42.909  56.249 -55.880  1.00  0.00     0.409 C 
HETATM   26  F   UNL     1     -43.886  56.935 -56.513  1.00  0.00    -0.169 F 
HETATM   27  F   UNL     1     -41.923  57.119 -55.580  1.00  0.00    -0.169 F 
HETATM   28  F   UNL     1     -42.396  55.381 -56.790  1.00  0.00    -0.169 F 
ENDBRANCH   8  25
BRANCH   6  29
HETATM   29  C   UNL     1     -40.603  53.242 -53.226  1.00  0.00    -0.035 A 
HETATM   30  C   UNL     1     -40.245  52.132 -54.016  1.00  0.00     0.012 A 
HETATM   31  C   UNL     1     -39.710  50.983 -53.435  1.00  0.00     0.043 A 
HETATM   32  C   UNL     1     -39.537  50.933 -52.058  1.00  0.00     0.116 A 
HETATM   33  F   UNL     1     -39.034  49.827 -51.496  1.00  0.00    -0.206 F 
HETATM   34  C   UNL     1     -39.888  52.012 -51.254  1.00  0.00     0.043 A 
HETATM   35  C   UNL     1     -40.419  53.166 -51.835  1.00  0.00     0.012 A 
ENDBRANCH   6  29
TORSDOF 6
ENDMDL
MODEL 7
REMARK VINA RESULT:      -8.6      3.448      4.600
REMARK  6 active torsions:
REMARK  status: ('A' for Active; 'I' for Inactive)
REMARK    1  A    between atoms: C_2  and  O_3 
REMARK    2  A    between atoms: C_2  and  C_4 
REMARK    3  A    between atoms: C_6  and  N_7 
REMARK       I    between atoms: N_7  and  C_8 
REMARK    4  A    between atoms: C_8  and  C_9 
REMARK    5  A    between atoms: C_14  and  C_15 
REMARK    6  A    between atoms: C_23  and  C_24 
ROOT
HETATM    1  C   UNL     1     -42.076  57.025 -50.999  1.00  0.00     0.148 A 
HETATM    2  N   UNL     1     -41.004  56.758 -50.215  1.00  0.00    -0.165 NA
HETATM    3  N   UNL     1     -40.909  55.415 -50.272  1.00  0.00    -0.240 N 
HETATM    4  C   UNL     1     -41.811  54.828 -51.113  1.00  0.00     0.123 A 
HETATM    5  N   UNL     1     -41.767  53.507 -51.374  1.00  0.00    -0.366 N 
HETATM    6  C   UNL     1     -40.639  52.664 -50.983  1.00  0.00     0.118 C 
HETATM    7  C   UNL     1     -39.428  53.505 -50.520  1.00  0.00     0.066 C 
HETATM    8  C   UNL     1     -39.846  54.678 -49.618  1.00  0.00     0.221 C 
HETATM    9  C   UNL     1     -42.623  55.835 -51.555  1.00  0.00     0.089 A 
HETATM   10  H   UNL     1     -42.448  53.071 -51.995  1.00  0.00     0.161 HD
ENDROOT
BRANCH   1  11
HETATM   11  C   UNL     1     -42.554  58.397 -51.249  1.00  0.00     0.276 C 
HETATM   12  N   UNL     1     -43.848  58.585 -50.805  1.00  0.00    -0.322 N 
HETATM   13  H   UNL     1     -44.270  57.747 -50.418  1.00  0.00     0.169 HD
HETATM   14  O   UNL     1     -41.832  59.230 -51.783  1.00  0.00    -0.266 OA
BRANCH  12  15
HETATM   15  C   UNL     1     -44.610  59.766 -50.825  1.00  0.00     0.035 A 
HETATM   16  C   UNL     1     -44.324  60.886 -50.040  1.00  0.00     0.039 A 
HETATM   17  C   UNL     1     -45.129  62.040 -50.094  1.00  0.00    -0.028 A 
HETATM   18  C   UNL     1     -46.226  62.054 -50.965  1.00  0.00     0.010 A 
HETATM   19  C   UNL     1     -46.521  60.940 -51.748  1.00  0.00     0.003 A 
HETATM   20  C   UNL     1     -45.718  59.800 -51.676  1.00  0.00     0.029 A 
BRANCH  17  21
HETATM   21  C   UNL     1     -44.768  63.236 -49.241  1.00  0.00     0.147 C 
HETATM   22  C   UNL     1     -44.937  62.933 -47.757  1.00  0.00     0.044 C 
BRANCH  21  23
HETATM   23  O   UNL     1     -43.418  63.634 -49.483  1.00  0.00    -0.391 OA
HETATM   24  H   UNL     1     -43.432  64.593 -49.640  1.00  0.00     0.210 HD
ENDBRANCH  21  23
ENDBRANCH  17  21
ENDBRANCH  12  15
ENDBRANCH   1  11
BRANCH   8  25
HETATM   25  C   UNL     1     -40.293  54.233 -48.245  1.00  0.00     0.409 C 
HETATM   26  F   UNL     1     -41.134  55.116 -47.665  1.00  0.00    -0.169 F 
HETATM   27  F   UNL     1     -40.893  53.025 -48.237  1.00  0.00    -0.169 F 
HETATM   28  F   UNL     1     -39.213  54.133 -47.425  1.00  0.00    -0.169 F 
ENDBRANCH   8  25
BRANCH   6  29
HETATM   29  C   UNL     1     -40.286  51.772 -52.164  1.00  0.00    -0.035 A 
HETATM   30  C   UNL     1     -40.474  52.215 -53.488  1.00  0.00     0.012 A 
HETATM   31  C   UNL     1     -40.183  51.383 -54.568  1.00  0.00     0.043 A 
HETATM   32  C   UNL     1     -39.708  50.100 -54.332  1.00  0.00     0.116 A 
HETATM   33  F   UNL     1     -39.438  49.295 -55.367  1.00  0.00    -0.206 F 
HETATM   34  C   UNL     1     -39.519  49.636 -53.035  1.00  0.00     0.043 A 
HETATM   35  C   UNL     1     -39.806  50.469 -51.951  1.00  0.00     0.012 A 
ENDBRANCH   6  29
TORSDOF 6
ENDMDL
MODEL 8
REMARK VINA RESULT:      -8.6      3.632      4.934
REMARK  6 active torsions:
REMARK  status: ('A' for Active; 'I' for Inactive)
REMARK    1  A    between atoms: C_2  and  O_3 
REMARK    2  A    between atoms: C_2  and  C_4 
REMARK    3  A    between atoms: C_6  and  N_7 
REMARK       I    between atoms: N_7  and  C_8 
REMARK    4  A    between atoms: C_8  and  C_9 
REMARK    5  A    between atoms: C_14  and  C_15 
REMARK    6  A    between atoms: C_23  and  C_24 
ROOT
HETATM    1  C   UNL     1     -41.761  57.168 -51.034  1.00  0.00     0.148 A 
HETATM    2  N   UNL     1     -40.745  56.817 -50.208  1.00  0.00    -0.165 NA
HETATM    3  N   UNL     1     -40.744  55.472 -50.278  1.00  0.00    -0.240 N 
HETATM    4  C   UNL     1     -41.648  54.959 -51.163  1.00  0.00     0.123 A 
HETATM    5  N   UNL     1     -41.688  53.641 -51.439  1.00  0.00    -0.366 N 
HETATM    6  C   UNL     1     -40.642  52.715 -51.010  1.00  0.00     0.118 C 
HETATM    7  C   UNL     1     -39.395  53.462 -50.484  1.00  0.00     0.066 C 
HETATM    8  C   UNL     1     -39.767  54.654 -49.587  1.00  0.00     0.221 C 
HETATM    9  C   UNL     1     -42.366  56.025 -51.628  1.00  0.00     0.089 A 
HETATM   10  H   UNL     1     -42.370  53.261 -52.094  1.00  0.00     0.161 HD
ENDROOT
BRANCH   1  11
HETATM   11  C   UNL     1     -42.127  58.573 -51.287  1.00  0.00     0.276 C 
HETATM   12  N   UNL     1     -43.410  58.859 -50.866  1.00  0.00    -0.322 N 
HETATM   13  H   UNL     1     -43.902  58.054 -50.489  1.00  0.00     0.169 HD
HETATM   14  O   UNL     1     -41.334  59.350 -51.806  1.00  0.00    -0.266 OA
BRANCH  12  15
HETATM   15  C   UNL     1     -44.080  60.095 -50.895  1.00  0.00     0.035 A 
HETATM   16  C   UNL     1     -45.009  60.450 -51.877  1.00  0.00     0.039 A 
HETATM   17  C   UNL     1     -45.642  61.707 -51.861  1.00  0.00    -0.028 A 
HETATM   18  C   UNL     1     -45.334  62.602 -50.828  1.00  0.00     0.010 A 
HETATM   19  C   UNL     1     -44.406  62.258 -49.848  1.00  0.00     0.003 A 
HETATM   20  C   UNL     1     -43.779  61.010 -49.883  1.00  0.00     0.029 A 
BRANCH  17  21
HETATM   21  C   UNL     1     -46.656  62.039 -52.933  1.00  0.00     0.147 C 
HETATM   22  C   UNL     1     -46.136  61.684 -54.321  1.00  0.00     0.044 C 
BRANCH  21  23
HETATM   23  O   UNL     1     -47.877  61.337 -52.702  1.00  0.00    -0.391 OA
HETATM   24  H   UNL     1     -47.636  60.443 -52.408  1.00  0.00     0.210 HD
ENDBRANCH  21  23
ENDBRANCH  17  21
ENDBRANCH  12  15
ENDBRANCH   1  11
BRANCH   8  25
HETATM   25  C   UNL     1     -40.304  54.229 -48.240  1.00  0.00     0.409 C 
HETATM   26  F   UNL     1     -41.165  55.132 -47.721  1.00  0.00    -0.169 F 
HETATM   27  F   UNL     1     -40.924  53.031 -48.258  1.00  0.00    -0.169 F 
HETATM   28  F   UNL     1     -39.279  54.121 -47.355  1.00  0.00    -0.169 F 
ENDBRANCH   8  25
BRANCH   6  29
HETATM   29  C   UNL     1     -40.301  51.811 -52.185  1.00  0.00    -0.035 A 
HETATM   30  C   UNL     1     -40.512  52.236 -53.512  1.00  0.00     0.012 A 
HETATM   31  C   UNL     1     -40.233  51.393 -54.586  1.00  0.00     0.043 A 
HETATM   32  C   UNL     1     -39.748  50.115 -54.342  1.00  0.00     0.116 A 
HETATM   33  F   UNL     1     -39.490  49.300 -55.371  1.00  0.00    -0.206 F 
HETATM   34  C   UNL     1     -39.537  49.668 -53.042  1.00  0.00     0.043 A 
HETATM   35  C   UNL     1     -39.811  50.513 -51.964  1.00  0.00     0.012 A 
ENDBRANCH   6  29
TORSDOF 6
ENDMDL
MODEL 9
REMARK VINA RESULT:      -8.5      4.720      7.813
REMARK  6 active torsions:
REMARK  status: ('A' for Active; 'I' for Inactive)
REMARK    1  A    between atoms: C_2  and  O_3 
REMARK    2  A    between atoms: C_2  and  C_4 
REMARK    3  A    between atoms: C_6  and  N_7 
REMARK       I    between atoms: N_7  and  C_8 
REMARK    4  A    between atoms: C_8  and  C_9 
REMARK    5  A    between atoms: C_14  and  C_15 
REMARK    6  A    between atoms: C_23  and  C_24 
ROOT
HETATM    1  C   UNL     1     -42.977  57.422 -55.694  1.00  0.00     0.148 A 
HETATM    2  N   UNL     1     -42.386  57.841 -54.549  1.00  0.00    -0.165 NA
HETATM    3  N   UNL     1     -42.317  56.717 -53.810  1.00  0.00    -0.240 N 
HETATM    4  C   UNL     1     -42.757  55.597 -54.457  1.00  0.00     0.123 A 
HETATM    5  N   UNL     1     -42.640  54.376 -53.900  1.00  0.00    -0.366 N 
HETATM    6  C   UNL     1     -41.838  54.130 -52.703  1.00  0.00     0.118 C 
HETATM    7  C   UNL     1     -40.945  55.341 -52.352  1.00  0.00     0.066 C 
HETATM    8  C   UNL     1     -41.691  56.677 -52.504  1.00  0.00     0.221 C 
HETATM    9  C   UNL     1     -43.248  56.025 -55.658  1.00  0.00     0.089 A 
HETATM   10  H   UNL     1     -42.977  53.544 -54.383  1.00  0.00     0.161 HD
ENDROOT
BRANCH   1  11
HETATM   11  C   UNL     1     -43.247  58.328 -56.825  1.00  0.00     0.276 C 
HETATM   12  N   UNL     1     -42.105  58.612 -57.547  1.00  0.00    -0.322 N 
HETATM   13  H   UNL     1     -41.267  58.185 -57.164  1.00  0.00     0.169 HD
HETATM   14  O   UNL     1     -44.379  58.740 -57.050  1.00  0.00    -0.266 OA
BRANCH  12  15
HETATM   15  C   UNL     1     -41.984  59.389 -58.712  1.00  0.00     0.035 A 
HETATM   16  C   UNL     1     -41.624  60.739 -58.708  1.00  0.00     0.039 A 
HETATM   17  C   UNL     1     -41.527  61.473 -59.906  1.00  0.00    -0.028 A 
HETATM   18  C   UNL     1     -41.787  60.819 -61.117  1.00  0.00     0.010 A 
HETATM   19  C   UNL     1     -42.151  59.473 -61.130  1.00  0.00     0.003 A 
HETATM   20  C   UNL     1     -42.251  58.763 -59.932  1.00  0.00     0.029 A 
BRANCH  17  21
HETATM   21  C   UNL     1     -41.113  62.927 -59.853  1.00  0.00     0.147 C 
HETATM   22  C   UNL     1     -39.852  63.117 -59.019  1.00  0.00     0.044 C 
BRANCH  21  23
HETATM   23  O   UNL     1     -40.880  63.429 -61.169  1.00  0.00    -0.391 OA
HETATM   24  H   UNL     1     -41.580  64.080 -61.349  1.00  0.00     0.210 HD
ENDBRANCH  21  23
ENDBRANCH  17  21
ENDBRANCH  12  15
ENDBRANCH   1  11
BRANCH   8  25
HETATM   25  C   UNL     1     -42.725  56.898 -51.425  1.00  0.00     0.409 C 
HETATM   26  F   UNL     1     -42.495  56.144 -50.329  1.00  0.00    -0.169 F 
HETATM   27  F   UNL     1     -42.829  58.182 -51.029  1.00  0.00    -0.169 F 
HETATM   28  F   UNL     1     -43.951  56.537 -51.890  1.00  0.00    -0.169 F 
ENDBRANCH   8  25
BRANCH   6  29
HETATM   29  C   UNL     1     -41.015  52.872 -52.937  1.00  0.00    -0.035 A 
HETATM   30  C   UNL     1     -41.056  52.199 -54.174  1.00  0.00     0.012 A 
HETATM   31  C   UNL     1     -40.328  51.027 -54.374  1.00  0.00     0.043 A 
HETATM   32  C   UNL     1     -39.560  50.516 -53.337  1.00  0.00     0.116 A 
HETATM   33  F   UNL     1     -38.869  49.385 -53.523  1.00  0.00    -0.206 F 
HETATM   34  C   UNL     1     -39.506  51.157 -52.104  1.00  0.00     0.043 A 
HETATM   35  C   UNL     1     -40.231  52.334 -51.902  1.00  0.00     0.012 A 
ENDBRANCH   6  29
TORSDOF 6
ENDMDL
MODEL 10
REMARK VINA RESULT:      -8.5      4.589      7.698
REMARK  6 active torsions:
REMARK  status: ('A' for Active; 'I' for Inactive)
REMARK    1  A    between atoms: C_2  and  O_3 
REMARK    2  A    between atoms: C_2  and  C_4 
REMARK    3  A    between atoms: C_6  and  N_7 
REMARK       I    between atoms: N_7  and  C_8 
REMARK    4  A    between atoms: C_8  and  C_9 
REMARK    5  A    between atoms: C_14  and  C_15 
REMARK    6  A    between atoms: C_23  and  C_24 
ROOT
HETATM    1  C   UNL     1     -44.028  57.213 -54.752  1.00  0.00     0.148 A 
HETATM    2  N   UNL     1     -43.036  57.735 -53.989  1.00  0.00    -0.165 NA
HETATM    3  N   UNL     1     -42.629  56.682 -53.254  1.00  0.00    -0.240 N 
HETATM    4  C   UNL     1     -43.253  55.508 -53.568  1.00  0.00     0.123 A 
HETATM    5  N   UNL     1     -42.873  54.343 -53.009  1.00  0.00    -0.366 N 
HETATM    6  C   UNL     1     -41.644  54.207 -52.231  1.00  0.00     0.118 C 
HETATM    7  C   UNL     1     -40.731  55.445 -52.379  1.00  0.00     0.066 C 
HETATM    8  C   UNL     1     -41.522  56.761 -52.321  1.00  0.00     0.221 C 
HETATM    9  C   UNL     1     -44.208  55.826 -54.492  1.00  0.00     0.089 A 
HETATM   10  H   UNL     1     -43.347  53.470 -53.240  1.00  0.00     0.161 HD
ENDROOT
BRANCH   1  11
HETATM   11  C   UNL     1     -44.770  58.013 -55.743  1.00  0.00     0.276 C 
HETATM   12  N   UNL     1     -44.557  57.569 -57.033  1.00  0.00    -0.322 N 
HETATM   13  H   UNL     1     -43.901  56.796 -57.093  1.00  0.00     0.169 HD
HETATM   14  O   UNL     1     -45.484  58.946 -55.396  1.00  0.00    -0.266 OA
BRANCH  12  15
HETATM   15  C   UNL     1     -45.132  58.048 -58.223  1.00  0.00     0.035 A 
HETATM   16  C   UNL     1     -44.494  58.940 -59.088  1.00  0.00     0.039 A 
HETATM   17  C   UNL     1     -45.123  59.394 -60.263  1.00  0.00    -0.028 A 
HETATM   18  C   UNL     1     -46.407  58.924 -60.562  1.00  0.00     0.010 A 
HETATM   19  C   UNL     1     -47.054  58.037 -59.703  1.00  0.00     0.003 A 
HETATM   20  C   UNL     1     -46.419  57.604 -58.537  1.00  0.00     0.029 A 
BRANCH  17  21
HETATM   21  C   UNL     1     -44.383  60.344 -61.179  1.00  0.00     0.147 C 
HETATM   22  C   UNL     1     -42.896  60.014 -61.241  1.00  0.00     0.044 C 
BRANCH  21  23
HETATM   23  O   UNL     1     -44.925  60.291 -62.499  1.00  0.00    -0.391 OA
HETATM   24  H   UNL     1     -45.771  60.769 -62.474  1.00  0.00     0.210 HD
ENDBRANCH  21  23
ENDBRANCH  17  21
ENDBRANCH  12  15
ENDBRANCH   1  11
BRANCH   8  25
HETATM   25  C   UNL     1     -42.033  57.078 -50.935  1.00  0.00     0.409 C 
HETATM   26  F   UNL     1     -42.055  58.406 -50.686  1.00  0.00    -0.169 F 
HETATM   27  F   UNL     1     -43.266  56.592 -50.689  1.00  0.00    -0.169 F 
HETATM   28  F   UNL     1     -41.207  56.526 -50.008  1.00  0.00    -0.169 F 
ENDBRANCH   8  25
BRANCH   6  29
HETATM   29  C   UNL     1     -40.941  52.933 -52.677  1.00  0.00    -0.035 A 
HETATM   30  C   UNL     1     -40.120  52.210 -51.789  1.00  0.00     0.012 A 
HETATM   31  C   UNL     1     -39.449  51.062 -52.209  1.00  0.00     0.043 A 
HETATM   32  C   UNL     1     -39.588  50.634 -53.523  1.00  0.00     0.116 A 
HETATM   33  F   UNL     1     -38.936  49.539 -53.932  1.00  0.00    -0.206 F 
HETATM   34  C   UNL     1     -40.387  51.333 -54.421  1.00  0.00     0.043 A 
HETATM   35  C   UNL     1     -41.064  52.480 -54.001  1.00  0.00     0.012 A 
ENDBRANCH   6  29
TORSDOF 6
ENDMDL
