MODEL 1
REMARK VINA RESULT:      -7.5      0.000      0.000
REMARK  6 active torsions:
REMARK  status: ('A' for Active; 'I' for Inactive)
REMARK    1  A    between atoms: C_2  and  N_3 
REMARK    2  A    between atoms: C_2  and  C_16 
REMARK    3  A    between atoms: N_3  and  C_6 
REMARK    4  A    between atoms: C_16  and  C_17 
REMARK       I    between atoms: C_17  and  N_18 
REMARK    5  A    between atoms: N_18  and  C_19 
REMARK    6  A    between atoms: C_21  and  O_22 
ROOT
HETATM    1  C   UNL     1     -40.630  58.421 -51.106  1.00  0.00     0.040 C 
HETATM    2  C   UNL     1     -41.813  57.507 -51.400  1.00  0.00     0.191 C 
ENDROOT
BRANCH   2   3
HETATM    3  N   UNL     1     -41.343  56.208 -52.008  1.00  0.00    -0.063 N 
HETATM    4  H   UNL     1     -41.649  56.249 -53.004  1.00  0.00     0.278 HD
HETATM    5  H   UNL     1     -40.319  56.205 -52.060  1.00  0.00     0.278 HD
BRANCH   3   6
HETATM    6  C   UNL     1     -41.800  54.851 -51.511  1.00  0.00     0.221 C 
HETATM    7  C   UNL     1     -40.951  53.705 -52.003  1.00  0.00    -0.011 A 
HETATM    8  C   UNL     1     -40.330  52.788 -51.140  1.00  0.00     0.009 A 
HETATM    9  C   UNL     1     -40.806  53.520 -53.397  1.00  0.00     0.011 A 
HETATM   10  C   UNL     1     -39.562  51.742 -51.673  1.00  0.00     0.019 A 
HETATM   11  S   UNL     1     -40.488  52.821 -49.367  1.00  0.00    -0.129 SA
HETATM   12  C   UNL     1     -39.406  51.594 -53.050  1.00  0.00     0.001 A 
HETATM   13  C   UNL     1     -40.033  52.479 -53.913  1.00  0.00     0.001 A 
HETATM   14  C   UNL     1     -41.021  54.521 -49.087  1.00  0.00     0.082 C 
HETATM   15  C   UNL     1     -42.155  54.897 -50.020  1.00  0.00     0.048 C 
ENDBRANCH   3   6
ENDBRANCH   2   3
BRANCH   2  16
HETATM   16  C   UNL     1     -42.787  58.218 -52.369  1.00  0.00     0.135 C 
BRANCH  16  17
HETATM   17  C   UNL     1     -44.142  57.552 -52.368  1.00  0.00     0.224 C 
HETATM   18  N   UNL     1     -44.620  56.870 -53.439  1.00  0.00    -0.327 N 
HETATM   19  H   UNL     1     -45.596  56.611 -53.317  1.00  0.00     0.169 HD
HETATM   20  O   UNL     1     -44.833  57.629 -51.342  1.00  0.00    -0.273 OA
BRANCH  18  21
HETATM   21  C   UNL     1     -44.056  56.479 -54.671  1.00  0.00     0.037 A 
HETATM   22  C   UNL     1     -43.905  57.307 -55.789  1.00  0.00     0.066 A 
HETATM   23  C   UNL     1     -43.327  56.814 -56.966  1.00  0.00     0.070 A 
HETATM   24  C   UNL     1     -42.896  55.488 -57.023  1.00  0.00     0.037 A 
HETATM   25  C   UNL     1     -43.011  54.665 -55.908  1.00  0.00     0.005 A 
HETATM   26  C   UNL     1     -43.578  55.163 -54.736  1.00  0.00     0.029 A 
BRANCH  23  27
HETATM   27  O   UNL     1     -43.129  57.518 -58.121  1.00  0.00    -0.356 OA
HETATM   28  C   UNL     1     -42.079  58.475 -58.141  1.00  0.00     0.210 C 
ENDBRANCH  23  27
ENDBRANCH  18  21
ENDBRANCH  16  17
ENDBRANCH   2  16
TORSDOF 6
ENDMDL
MODEL 2
REMARK VINA RESULT:      -7.4      1.794      2.356
REMARK  6 active torsions:
REMARK  status: ('A' for Active; 'I' for Inactive)
REMARK    1  A    between atoms: C_2  and  N_3 
REMARK    2  A    between atoms: C_2  and  C_16 
REMARK    3  A    between atoms: N_3  and  C_6 
REMARK    4  A    between atoms: C_16  and  C_17 
REMARK       I    between atoms: C_17  and  N_18 
REMARK    5  A    between atoms: N_18  and  C_19 
REMARK    6  A    between atoms: C_21  and  O_22 
ROOT
HETATM    1  C   UNL     1     -40.493  58.322 -53.260  1.00  0.00     0.040 C 
HETATM    2  C   UNL     1     -41.631  57.356 -53.562  1.00  0.00     0.191 C 
ENDROOT
BRANCH   2   3
HETATM    3  N   UNL     1     -41.124  55.935 -53.607  1.00  0.00    -0.063 N 
HETATM    4  H   UNL     1     -41.357  55.594 -54.564  1.00  0.00     0.278 HD
HETATM    5  H   UNL     1     -40.099  55.936 -53.583  1.00  0.00     0.278 HD
BRANCH   3   6
HETATM    6  C   UNL     1     -41.621  54.851 -52.671  1.00  0.00     0.221 C 
HETATM    7  C   UNL     1     -40.884  53.542 -52.809  1.00  0.00    -0.011 A 
HETATM    8  C   UNL     1     -40.254  52.903 -51.728  1.00  0.00     0.009 A 
HETATM    9  C   UNL     1     -40.857  52.909 -54.072  1.00  0.00     0.011 A 
HETATM   10  C   UNL     1     -39.592  51.682 -51.932  1.00  0.00     0.019 A 
HETATM   11  S   UNL     1     -40.272  53.515 -50.057  1.00  0.00    -0.129 SA
HETATM   12  C   UNL     1     -39.552  51.088 -53.192  1.00  0.00     0.001 A 
HETATM   13  C   UNL     1     -40.190  51.698 -54.262  1.00  0.00     0.001 A 
HETATM   14  C   UNL     1     -40.680  55.253 -50.317  1.00  0.00     0.082 C 
HETATM   15  C   UNL     1     -41.858  55.401 -51.260  1.00  0.00     0.048 C 
ENDBRANCH   3   6
ENDBRANCH   2   3
BRANCH   2  16
HETATM   16  C   UNL     1     -42.278  57.725 -54.917  1.00  0.00     0.135 C 
BRANCH  16  17
HETATM   17  C   UNL     1     -43.619  57.053 -55.084  1.00  0.00     0.224 C 
HETATM   18  N   UNL     1     -44.186  56.846 -56.299  1.00  0.00    -0.327 N 
HETATM   19  H   UNL     1     -45.144  56.514 -56.219  1.00  0.00     0.169 HD
HETATM   20  O   UNL     1     -44.215  56.672 -54.067  1.00  0.00    -0.273 OA
BRANCH  18  21
HETATM   21  C   UNL     1     -43.732  57.020 -57.624  1.00  0.00     0.037 A 
HETATM   22  C   UNL     1     -43.739  58.230 -58.328  1.00  0.00     0.066 A 
HETATM   23  C   UNL     1     -43.261  58.290 -59.643  1.00  0.00     0.070 A 
HETATM   24  C   UNL     1     -42.771  57.136 -60.255  1.00  0.00     0.037 A 
HETATM   25  C   UNL     1     -42.729  55.935 -59.555  1.00  0.00     0.005 A 
HETATM   26  C   UNL     1     -43.198  55.882 -58.243  1.00  0.00     0.029 A 
BRANCH  23  27
HETATM   27  O   UNL     1     -43.219  59.405 -60.433  1.00  0.00    -0.356 OA
HETATM   28  C   UNL     1     -41.947  59.843 -60.892  1.00  0.00     0.210 C 
ENDBRANCH  23  27
ENDBRANCH  18  21
ENDBRANCH  16  17
ENDBRANCH   2  16
TORSDOF 6
ENDMDL
MODEL 3
REMARK VINA RESULT:      -7.4      1.916      4.596
REMARK  6 active torsions:
REMARK  status: ('A' for Active; 'I' for Inactive)
REMARK    1  A    between atoms: C_2  and  N_3 
REMARK    2  A    between atoms: C_2  and  C_16 
REMARK    3  A    between atoms: N_3  and  C_6 
REMARK    4  A    between atoms: C_16  and  C_17 
REMARK       I    between atoms: C_17  and  N_18 
REMARK    5  A    between atoms: N_18  and  C_19 
REMARK    6  A    between atoms: C_21  and  O_22 
ROOT
HETATM    1  C   UNL     1     -43.158  54.865 -55.523  1.00  0.00     0.040 C 
HETATM    2  C   UNL     1     -42.180  55.981 -55.179  1.00  0.00     0.191 C 
ENDROOT
BRANCH   2   3
HETATM    3  N   UNL     1     -41.315  55.588 -54.007  1.00  0.00    -0.063 N 
HETATM    4  H   UNL     1     -40.457  55.173 -54.430  1.00  0.00     0.278 HD
HETATM    5  H   UNL     1     -40.978  56.431 -53.532  1.00  0.00     0.278 HD
BRANCH   3   6
HETATM    6  C   UNL     1     -41.756  54.591 -52.953  1.00  0.00     0.221 C 
HETATM    7  C   UNL     1     -40.947  53.318 -52.942  1.00  0.00    -0.011 A 
HETATM    8  C   UNL     1     -40.288  52.842 -51.797  1.00  0.00     0.009 A 
HETATM    9  C   UNL     1     -40.879  52.547 -54.126  1.00  0.00     0.011 A 
HETATM   10  C   UNL     1     -39.559  51.644 -51.862  1.00  0.00     0.019 A 
HETATM   11  S   UNL     1     -40.347  53.637 -50.207  1.00  0.00    -0.129 SA
HETATM   12  C   UNL     1     -39.480  50.914 -53.047  1.00  0.00     0.001 A 
HETATM   13  C   UNL     1     -40.146  51.362 -54.178  1.00  0.00     0.001 A 
HETATM   14  C   UNL     1     -40.849  55.309 -50.661  1.00  0.00     0.082 C 
HETATM   15  C   UNL     1     -42.029  55.284 -51.613  1.00  0.00     0.048 C 
ENDBRANCH   3   6
ENDBRANCH   2   3
BRANCH   2  16
HETATM   16  C   UNL     1     -42.964  57.271 -54.843  1.00  0.00     0.135 C 
BRANCH  16  17
HETATM   17  C   UNL     1     -42.267  58.493 -55.392  1.00  0.00     0.224 C 
HETATM   18  N   UNL     1     -41.705  59.433 -54.593  1.00  0.00    -0.327 N 
HETATM   19  H   UNL     1     -41.408  60.250 -55.121  1.00  0.00     0.169 HD
HETATM   20  O   UNL     1     -42.205  58.629 -56.623  1.00  0.00    -0.273 OA
BRANCH  18  21
HETATM   21  C   UNL     1     -41.478  59.516 -53.203  1.00  0.00     0.037 A 
HETATM   22  C   UNL     1     -42.327  60.138 -52.281  1.00  0.00     0.066 A 
HETATM   23  C   UNL     1     -42.004  60.159 -50.918  1.00  0.00     0.070 A 
HETATM   24  C   UNL     1     -40.828  59.552 -50.477  1.00  0.00     0.037 A 
HETATM   25  C   UNL     1     -39.992  58.902 -51.378  1.00  0.00     0.005 A 
HETATM   26  C   UNL     1     -40.323  58.876 -52.732  1.00  0.00     0.029 A 
BRANCH  23  27
HETATM   27  O   UNL     1     -42.745  60.735 -49.925  1.00  0.00    -0.356 OA
HETATM   28  C   UNL     1     -44.112  61.012 -50.196  1.00  0.00     0.210 C 
ENDBRANCH  23  27
ENDBRANCH  18  21
ENDBRANCH  16  17
ENDBRANCH   2  16
TORSDOF 6
ENDMDL
MODEL 4
REMARK VINA RESULT:      -7.3      2.355      3.336
REMARK  6 active torsions:
REMARK  status: ('A' for Active; 'I' for Inactive)
REMARK    1  A    between atoms: C_2  and  N_3 
REMARK    2  A    between atoms: C_2  and  C_16 
REMARK    3  A    between atoms: N_3  and  C_6 
REMARK    4  A    between atoms: C_16  and  C_17 
REMARK       I    between atoms: C_17  and  N_18 
REMARK    5  A    between atoms: N_18  and  C_19 
REMARK    6  A    between atoms: C_21  and  O_22 
ROOT
HETATM    1  C   UNL     1     -44.040  57.081 -54.305  1.00  0.00     0.040 C 
HETATM    2  C   UNL     1     -43.802  55.594 -54.075  1.00  0.00     0.191 C 
ENDROOT
BRANCH   2   3
HETATM    3  N   UNL     1     -42.691  55.382 -53.075  1.00  0.00    -0.063 N 
HETATM    4  H   UNL     1     -41.815  55.379 -53.640  1.00  0.00     0.278 HD
HETATM    5  H   UNL     1     -42.604  56.213 -52.480  1.00  0.00     0.278 HD
BRANCH   3   6
HETATM    6  C   UNL     1     -42.597  54.153 -52.195  1.00  0.00     0.221 C 
HETATM    7  C   UNL     1     -41.433  53.252 -52.528  1.00  0.00    -0.011 A 
HETATM    8  C   UNL     1     -40.466  52.873 -51.584  1.00  0.00     0.009 A 
HETATM    9  C   UNL     1     -41.330  52.735 -53.840  1.00  0.00     0.011 A 
HETATM   10  C   UNL     1     -39.414  52.025 -51.967  1.00  0.00     0.019 A 
HETATM   11  S   UNL     1     -40.498  53.356 -49.871  1.00  0.00    -0.129 SA
HETATM   12  C   UNL     1     -39.314  51.550 -53.273  1.00  0.00     0.001 A 
HETATM   13  C   UNL     1     -40.276  51.899 -54.209  1.00  0.00     0.001 A 
HETATM   14  C   UNL     1     -41.581  54.797 -49.927  1.00  0.00     0.082 C 
HETATM   15  C   UNL     1     -42.839  54.504 -50.722  1.00  0.00     0.048 C 
ENDBRANCH   3   6
ENDBRANCH   2   3
BRANCH   2  16
HETATM   16  C   UNL     1     -43.438  54.915 -55.416  1.00  0.00     0.135 C 
BRANCH  16  17
HETATM   17  C   UNL     1     -42.298  55.630 -56.100  1.00  0.00     0.224 C 
HETATM   18  N   UNL     1     -42.394  56.115 -57.363  1.00  0.00    -0.327 N 
HETATM   19  H   UNL     1     -41.495  56.437 -57.713  1.00  0.00     0.169 HD
HETATM   20  O   UNL     1     -41.241  55.783 -55.472  1.00  0.00    -0.273 OA
BRANCH  18  21
HETATM   21  C   UNL     1     -43.461  56.235 -58.278  1.00  0.00     0.037 A 
HETATM   22  C   UNL     1     -44.356  57.310 -58.338  1.00  0.00     0.066 A 
HETATM   23  C   UNL     1     -45.381  57.329 -59.292  1.00  0.00     0.070 A 
HETATM   24  C   UNL     1     -45.509  56.270 -60.191  1.00  0.00     0.037 A 
HETATM   25  C   UNL     1     -44.607  55.213 -60.163  1.00  0.00     0.005 A 
HETATM   26  C   UNL     1     -43.582  55.202 -59.217  1.00  0.00     0.029 A 
BRANCH  23  27
HETATM   27  O   UNL     1     -46.316  58.314 -59.448  1.00  0.00    -0.356 OA
HETATM   28  C   UNL     1     -47.201  58.217 -60.556  1.00  0.00     0.210 C 
ENDBRANCH  23  27
ENDBRANCH  18  21
ENDBRANCH  16  17
ENDBRANCH   2  16
TORSDOF 6
ENDMDL
MODEL 5
REMARK VINA RESULT:      -7.2      2.058      4.925
REMARK  6 active torsions:
REMARK  status: ('A' for Active; 'I' for Inactive)
REMARK    1  A    between atoms: C_2  and  N_3 
REMARK    2  A    between atoms: C_2  and  C_16 
REMARK    3  A    between atoms: N_3  and  C_6 
REMARK    4  A    between atoms: C_16  and  C_17 
REMARK       I    between atoms: C_17  and  N_18 
REMARK    5  A    between atoms: N_18  and  C_19 
REMARK    6  A    between atoms: C_21  and  O_22 
ROOT
HETATM    1  C   UNL     1     -44.003  55.866 -54.299  1.00  0.00     0.040 C 
HETATM    2  C   UNL     1     -42.858  55.214 -55.063  1.00  0.00     0.191 C 
ENDROOT
BRANCH   2   3
HETATM    3  N   UNL     1     -42.334  54.014 -54.314  1.00  0.00    -0.063 N 
HETATM    4  H   UNL     1     -42.934  53.941 -53.465  1.00  0.00     0.278 HD
HETATM    5  H   UNL     1     -42.544  53.161 -54.844  1.00  0.00     0.278 HD
BRANCH   3   6
HETATM    6  C   UNL     1     -40.911  53.918 -53.801  1.00  0.00     0.221 C 
HETATM    7  C   UNL     1     -40.788  54.105 -52.308  1.00  0.00    -0.011 A 
HETATM    8  C   UNL     1     -40.178  53.159 -51.468  1.00  0.00     0.009 A 
HETATM    9  C   UNL     1     -41.273  55.302 -51.733  1.00  0.00     0.011 A 
HETATM   10  C   UNL     1     -40.094  53.406 -50.089  1.00  0.00     0.019 A 
HETATM   11  S   UNL     1     -39.434  51.647 -52.040  1.00  0.00    -0.129 SA
HETATM   12  C   UNL     1     -40.604  54.580 -49.537  1.00  0.00     0.001 A 
HETATM   13  C   UNL     1     -41.189  55.531 -50.359  1.00  0.00     0.001 A 
HETATM   14  C   UNL     1     -40.217  51.450 -53.653  1.00  0.00     0.082 C 
HETATM   15  C   UNL     1     -40.166  52.743 -54.445  1.00  0.00     0.048 C 
ENDBRANCH   3   6
ENDBRANCH   2   3
BRANCH   2  16
HETATM   16  C   UNL     1     -41.721  56.243 -55.268  1.00  0.00     0.135 C 
BRANCH  16  17
HETATM   17  C   UNL     1     -42.271  57.596 -55.650  1.00  0.00     0.224 C 
HETATM   18  N   UNL     1     -42.329  58.633 -54.778  1.00  0.00    -0.327 N 
HETATM   19  H   UNL     1     -42.853  59.418 -55.157  1.00  0.00     0.169 HD
HETATM   20  O   UNL     1     -42.675  57.759 -56.811  1.00  0.00    -0.273 OA
BRANCH  18  21
HETATM   21  C   UNL     1     -41.841  58.828 -53.469  1.00  0.00     0.037 A 
HETATM   22  C   UNL     1     -40.491  58.951 -53.120  1.00  0.00     0.066 A 
HETATM   23  C   UNL     1     -40.116  59.146 -51.784  1.00  0.00     0.070 A 
HETATM   24  C   UNL     1     -41.097  59.221 -50.795  1.00  0.00     0.037 A 
HETATM   25  C   UNL     1     -42.442  59.134 -51.133  1.00  0.00     0.005 A 
HETATM   26  C   UNL     1     -42.811  58.948 -52.465  1.00  0.00     0.029 A 
BRANCH  23  27
HETATM   27  O   UNL     1     -38.838  59.275 -51.319  1.00  0.00    -0.356 OA
HETATM   28  C   UNL     1     -38.635  60.056 -50.149  1.00  0.00     0.210 C 
ENDBRANCH  23  27
ENDBRANCH  18  21
ENDBRANCH  16  17
ENDBRANCH   2  16
TORSDOF 6
ENDMDL
MODEL 6
REMARK VINA RESULT:      -7.1      2.171      3.095
REMARK  6 active torsions:
REMARK  status: ('A' for Active; 'I' for Inactive)
REMARK    1  A    between atoms: C_2  and  N_3 
REMARK    2  A    between atoms: C_2  and  C_16 
REMARK    3  A    between atoms: N_3  and  C_6 
REMARK    4  A    between atoms: C_16  and  C_17 
REMARK       I    between atoms: C_17  and  N_18 
REMARK    5  A    between atoms: N_18  and  C_19 
REMARK    6  A    between atoms: C_21  and  O_22 
ROOT
HETATM    1  C   UNL     1     -43.458  55.316 -54.917  1.00  0.00     0.040 C 
HETATM    2  C   UNL     1     -42.282  56.267 -54.741  1.00  0.00     0.191 C 
ENDROOT
BRANCH   2   3
HETATM    3  N   UNL     1     -41.400  55.818 -53.601  1.00  0.00    -0.063 N 
HETATM    4  H   UNL     1     -40.515  55.502 -54.052  1.00  0.00     0.278 HD
HETATM    5  H   UNL     1     -41.122  56.631 -53.043  1.00  0.00     0.278 HD
BRANCH   3   6
HETATM    6  C   UNL     1     -41.782  54.698 -52.655  1.00  0.00     0.221 C 
HETATM    7  C   UNL     1     -40.963  53.443 -52.834  1.00  0.00    -0.011 A 
HETATM    8  C   UNL     1     -40.246  52.843 -51.786  1.00  0.00     0.009 A 
HETATM    9  C   UNL     1     -40.947  52.820 -54.102  1.00  0.00     0.011 A 
HETATM   10  C   UNL     1     -39.512  51.671 -52.027  1.00  0.00     0.019 A 
HETATM   11  S   UNL     1     -40.236  53.443 -50.110  1.00  0.00    -0.129 SA
HETATM   12  C   UNL     1     -39.484  51.088 -53.292  1.00  0.00     0.001 A 
HETATM   13  C   UNL     1     -40.207  51.659 -54.330  1.00  0.00     0.001 A 
HETATM   14  C   UNL     1     -40.772  55.150 -50.338  1.00  0.00     0.082 C 
HETATM   15  C   UNL     1     -41.996  55.223 -51.230  1.00  0.00     0.048 C 
ENDBRANCH   3   6
ENDBRANCH   2   3
BRANCH   2  16
HETATM   16  C   UNL     1     -42.808  57.695 -54.466  1.00  0.00     0.135 C 
BRANCH  16  17
HETATM   17  C   UNL     1     -42.133  58.708 -55.359  1.00  0.00     0.224 C 
HETATM   18  N   UNL     1     -42.349  58.759 -56.697  1.00  0.00    -0.327 N 
HETATM   19  H   UNL     1     -41.711  59.403 -57.159  1.00  0.00     0.169 HD
HETATM   20  O   UNL     1     -41.360  59.526 -54.839  1.00  0.00    -0.273 OA
BRANCH  18  21
HETATM   21  C   UNL     1     -43.243  58.095 -57.562  1.00  0.00     0.037 A 
HETATM   22  C   UNL     1     -42.914  57.017 -58.391  1.00  0.00     0.066 A 
HETATM   23  C   UNL     1     -43.886  56.428 -59.211  1.00  0.00     0.070 A 
HETATM   24  C   UNL     1     -45.191  56.919 -59.199  1.00  0.00     0.037 A 
HETATM   25  C   UNL     1     -45.539  57.968 -58.356  1.00  0.00     0.005 A 
HETATM   26  C   UNL     1     -44.571  58.545 -57.534  1.00  0.00     0.029 A 
BRANCH  23  27
HETATM   27  O   UNL     1     -43.689  55.378 -60.064  1.00  0.00    -0.356 OA
HETATM   28  C   UNL     1     -44.745  55.039 -60.951  1.00  0.00     0.210 C 
ENDBRANCH  23  27
ENDBRANCH  18  21
ENDBRANCH  16  17
ENDBRANCH   2  16
TORSDOF 6
ENDMDL
MODEL 7
REMARK VINA RESULT:      -7.0      3.690      7.492
REMARK  6 active torsions:
REMARK  status: ('A' for Active; 'I' for Inactive)
REMARK    1  A    between atoms: C_2  and  N_3 
REMARK    2  A    between atoms: C_2  and  C_16 
REMARK    3  A    between atoms: N_3  and  C_6 
REMARK    4  A    between atoms: C_16  and  C_17 
REMARK       I    between atoms: C_17  and  N_18 
REMARK    5  A    between atoms: N_18  and  C_19 
REMARK    6  A    between atoms: C_21  and  O_22 
ROOT
HETATM    1  C   UNL     1     -43.150  54.664 -56.425  1.00  0.00     0.040 C 
HETATM    2  C   UNL     1     -42.941  56.145 -56.140  1.00  0.00     0.191 C 
ENDROOT
BRANCH   2   3
HETATM    3  N   UNL     1     -42.179  56.801 -57.267  1.00  0.00    -0.063 N 
HETATM    4  H   UNL     1     -41.485  57.422 -56.799  1.00  0.00     0.278 HD
HETATM    5  H   UNL     1     -41.606  56.099 -57.746  1.00  0.00     0.278 HD
BRANCH   3   6
HETATM    6  C   UNL     1     -42.843  57.671 -58.315  1.00  0.00     0.221 C 
HETATM    7  C   UNL     1     -43.949  56.977 -59.072  1.00  0.00    -0.011 A 
HETATM    8  C   UNL     1     -45.256  57.483 -59.150  1.00  0.00     0.009 A 
HETATM    9  C   UNL     1     -43.647  55.783 -59.768  1.00  0.00     0.011 A 
HETATM   10  C   UNL     1     -46.230  56.784 -59.880  1.00  0.00     0.019 A 
HETATM   11  S   UNL     1     -45.779  59.016 -58.414  1.00  0.00    -0.129 SA
HETATM   12  C   UNL     1     -45.921  55.593 -60.534  1.00  0.00     0.001 A 
HETATM   13  C   UNL     1     -44.627  55.095 -60.484  1.00  0.00     0.001 A 
HETATM   14  C   UNL     1     -44.492  59.277 -57.178  1.00  0.00     0.082 C 
HETATM   15  C   UNL     1     -43.113  59.081 -57.777  1.00  0.00     0.048 C 
ENDBRANCH   3   6
ENDBRANCH   2   3
BRANCH   2  16
HETATM   16  C   UNL     1     -42.163  56.312 -54.814  1.00  0.00     0.135 C 
BRANCH  16  17
HETATM   17  C   UNL     1     -43.032  55.980 -53.625  1.00  0.00     0.224 C 
HETATM   18  N   UNL     1     -42.819  54.890 -52.847  1.00  0.00    -0.327 N 
HETATM   19  H   UNL     1     -43.576  54.744 -52.184  1.00  0.00     0.169 HD
HETATM   20  O   UNL     1     -43.969  56.744 -53.352  1.00  0.00    -0.273 OA
BRANCH  18  21
HETATM   21  C   UNL     1     -41.793  53.923 -52.791  1.00  0.00     0.037 A 
HETATM   22  C   UNL     1     -41.447  53.050 -53.829  1.00  0.00     0.066 A 
HETATM   23  C   UNL     1     -40.406  52.128 -53.665  1.00  0.00     0.070 A 
HETATM   24  C   UNL     1     -39.706  52.081 -52.460  1.00  0.00     0.037 A 
HETATM   25  C   UNL     1     -40.017  52.965 -51.433  1.00  0.00     0.005 A 
HETATM   26  C   UNL     1     -41.049  53.887 -51.603  1.00  0.00     0.029 A 
BRANCH  23  27
HETATM   27  O   UNL     1     -39.979  51.224 -54.598  1.00  0.00    -0.356 OA
HETATM   28  C   UNL     1     -39.967  49.851 -54.232  1.00  0.00     0.210 C 
ENDBRANCH  23  27
ENDBRANCH  18  21
ENDBRANCH  16  17
ENDBRANCH   2  16
TORSDOF 6
ENDMDL
MODEL 8
REMARK VINA RESULT:      -6.9      3.393      6.961
REMARK  6 active torsions:
REMARK  status: ('A' for Active; 'I' for Inactive)
REMARK    1  A    between atoms: C_2  and  N_3 
REMARK    2  A    between atoms: C_2  and  C_16 
REMARK    3  A    between atoms: N_3  and  C_6 
REMARK    4  A    between atoms: C_16  and  C_17 
REMARK       I    between atoms: C_17  and  N_18 
REMARK    5  A    between atoms: N_18  and  C_19 
REMARK    6  A    between atoms: C_21  and  O_22 
ROOT
HETATM    1  C   UNL     1     -41.738  59.578 -54.142  1.00  0.00     0.040 C 
HETATM    2  C   UNL     1     -42.395  58.313 -54.680  1.00  0.00     0.191 C 
ENDROOT
BRANCH   2   3
HETATM    3  N   UNL     1     -43.018  58.572 -56.031  1.00  0.00    -0.063 N 
HETATM    4  H   UNL     1     -43.807  57.894 -56.100  1.00  0.00     0.278 HD
HETATM    5  H   UNL     1     -43.474  59.490 -56.028  1.00  0.00     0.278 HD
BRANCH   3   6
HETATM    6  C   UNL     1     -42.256  58.422 -57.333  1.00  0.00     0.221 C 
HETATM    7  C   UNL     1     -42.882  57.444 -58.296  1.00  0.00    -0.011 A 
HETATM    8  C   UNL     1     -43.236  57.788 -59.611  1.00  0.00     0.009 A 
HETATM    9  C   UNL     1     -43.086  56.111 -57.872  1.00  0.00     0.011 A 
HETATM   10  C   UNL     1     -43.808  56.821 -60.452  1.00  0.00     0.019 A 
HETATM   11  S   UNL     1     -42.962  59.391 -60.333  1.00  0.00    -0.129 SA
HETATM   12  C   UNL     1     -44.029  55.520 -60.005  1.00  0.00     0.001 A 
HETATM   13  C   UNL     1     -43.662  55.162 -58.716  1.00  0.00     0.001 A 
HETATM   14  C   UNL     1     -42.772  60.418 -58.862  1.00  0.00     0.082 C 
HETATM   15  C   UNL     1     -41.811  59.785 -57.875  1.00  0.00     0.048 C 
ENDBRANCH   3   6
ENDBRANCH   2   3
BRANCH   2  16
HETATM   16  C   UNL     1     -43.478  57.830 -53.687  1.00  0.00     0.135 C 
BRANCH  16  17
HETATM   17  C   UNL     1     -44.415  56.842 -54.339  1.00  0.00     0.224 C 
HETATM   18  N   UNL     1     -44.129  55.519 -54.435  1.00  0.00    -0.327 N 
HETATM   19  H   UNL     1     -44.799  55.029 -55.024  1.00  0.00     0.169 HD
HETATM   20  O   UNL     1     -45.489  57.263 -54.794  1.00  0.00    -0.273 OA
BRANCH  18  21
HETATM   21  C   UNL     1     -43.098  54.709 -53.916  1.00  0.00     0.037 A 
HETATM   22  C   UNL     1     -42.883  54.447 -52.558  1.00  0.00     0.066 A 
HETATM   23  C   UNL     1     -41.826  53.622 -52.151  1.00  0.00     0.070 A 
HETATM   24  C   UNL     1     -40.983  53.056 -53.107  1.00  0.00     0.037 A 
HETATM   25  C   UNL     1     -41.205  53.283 -54.461  1.00  0.00     0.005 A 
HETATM   26  C   UNL     1     -42.264  54.097 -54.861  1.00  0.00     0.029 A 
BRANCH  23  27
HETATM   27  O   UNL     1     -41.513  53.296 -50.861  1.00  0.00    -0.356 OA
HETATM   28  C   UNL     1     -40.253  52.683 -50.622  1.00  0.00     0.210 C 
ENDBRANCH  23  27
ENDBRANCH  18  21
ENDBRANCH  16  17
ENDBRANCH   2  16
TORSDOF 6
ENDMDL
MODEL 9
REMARK VINA RESULT:      -6.8      2.685      4.336
REMARK  6 active torsions:
REMARK  status: ('A' for Active; 'I' for Inactive)
REMARK    1  A    between atoms: C_2  and  N_3 
REMARK    2  A    between atoms: C_2  and  C_16 
REMARK    3  A    between atoms: N_3  and  C_6 
REMARK    4  A    between atoms: C_16  and  C_17 
REMARK       I    between atoms: C_17  and  N_18 
REMARK    5  A    between atoms: N_18  and  C_19 
REMARK    6  A    between atoms: C_21  and  O_22 
ROOT
HETATM    1  C   UNL     1     -43.868  57.059 -54.285  1.00  0.00     0.040 C 
HETATM    2  C   UNL     1     -42.370  57.281 -54.448  1.00  0.00     0.191 C 
ENDROOT
BRANCH   2   3
HETATM    3  N   UNL     1     -41.624  56.797 -53.229  1.00  0.00    -0.063 N 
HETATM    4  H   UNL     1     -40.677  56.536 -53.576  1.00  0.00     0.278 HD
HETATM    5  H   UNL     1     -41.452  57.586 -52.597  1.00  0.00     0.278 HD
BRANCH   3   6
HETATM    6  C   UNL     1     -42.079  55.612 -52.400  1.00  0.00     0.221 C 
HETATM    7  C   UNL     1     -41.326  54.338 -52.694  1.00  0.00    -0.011 A 
HETATM    8  C   UNL     1     -40.657  53.600 -51.703  1.00  0.00     0.009 A 
HETATM    9  C   UNL     1     -41.325  53.841 -54.017  1.00  0.00     0.011 A 
HETATM   10  C   UNL     1     -39.984  52.419 -52.052  1.00  0.00     0.019 A 
HETATM   11  S   UNL     1     -40.638  54.033 -49.977  1.00  0.00    -0.129 SA
HETATM   12  C   UNL     1     -39.970  51.962 -53.368  1.00  0.00     0.001 A 
HETATM   13  C   UNL     1     -40.646  52.669 -54.351  1.00  0.00     0.001 A 
HETATM   14  C   UNL     1     -41.078  55.781 -50.042  1.00  0.00     0.082 C 
HETATM   15  C   UNL     1     -42.284  56.007 -50.933  1.00  0.00     0.048 C 
ENDBRANCH   3   6
ENDBRANCH   2   3
BRANCH   2  16
HETATM   16  C   UNL     1     -42.092  58.787 -54.670  1.00  0.00     0.135 C 
BRANCH  16  17
HETATM   17  C   UNL     1     -41.465  59.412 -53.447  1.00  0.00     0.224 C 
HETATM   18  N   UNL     1     -42.200  59.982 -52.460  1.00  0.00    -0.327 N 
HETATM   19  H   UNL     1     -41.616  60.475 -51.789  1.00  0.00     0.169 HD
HETATM   20  O   UNL     1     -40.229  59.393 -53.346  1.00  0.00    -0.273 OA
BRANCH  18  21
HETATM   21  C   UNL     1     -43.585  60.048 -52.196  1.00  0.00     0.037 A 
HETATM   22  C   UNL     1     -44.500  60.853 -52.883  1.00  0.00     0.066 A 
HETATM   23  C   UNL     1     -45.858  60.838 -52.539  1.00  0.00     0.070 A 
HETATM   24  C   UNL     1     -46.301  60.013 -51.506  1.00  0.00     0.037 A 
HETATM   25  C   UNL     1     -45.407  59.184 -50.838  1.00  0.00     0.005 A 
HETATM   26  C   UNL     1     -44.058  59.195 -51.190  1.00  0.00     0.029 A 
BRANCH  23  27
HETATM   27  O   UNL     1     -46.845  61.579 -53.128  1.00  0.00    -0.356 OA
HETATM   28  C   UNL     1     -47.448  62.610 -52.359  1.00  0.00     0.210 C 
ENDBRANCH  23  27
ENDBRANCH  18  21
ENDBRANCH  16  17
ENDBRANCH   2  16
TORSDOF 6
ENDMDL
MODEL 10
REMARK VINA RESULT:      -6.6      2.370      4.460
REMARK  6 active torsions:
REMARK  status: ('A' for Active; 'I' for Inactive)
REMARK    1  A    between atoms: C_2  and  N_3 
REMARK    2  A    between atoms: C_2  and  C_16 
REMARK    3  A    between atoms: N_3  and  C_6 
REMARK    4  A    between atoms: C_16  and  C_17 
REMARK       I    between atoms: C_17  and  N_18 
REMARK    5  A    between atoms: N_18  and  C_19 
REMARK    6  A    between atoms: C_21  and  O_22 
ROOT
HETATM    1  C   UNL     1     -40.445  58.499 -53.247  1.00  0.00     0.040 C 
HETATM    2  C   UNL     1     -41.587  57.503 -53.094  1.00  0.00     0.191 C 
ENDROOT
BRANCH   2   3
HETATM    3  N   UNL     1     -41.082  56.089 -53.239  1.00  0.00    -0.063 N 
HETATM    4  H   UNL     1     -41.312  55.818 -54.219  1.00  0.00     0.278 HD
HETATM    5  H   UNL     1     -40.058  56.086 -53.212  1.00  0.00     0.278 HD
BRANCH   3   6
HETATM    6  C   UNL     1     -41.585  54.941 -52.386  1.00  0.00     0.221 C 
HETATM    7  C   UNL     1     -40.863  53.639 -52.630  1.00  0.00    -0.011 A 
HETATM    8  C   UNL     1     -40.232  52.912 -51.607  1.00  0.00     0.009 A 
HETATM    9  C   UNL     1     -40.852  53.105 -53.939  1.00  0.00     0.011 A 
HETATM   10  C   UNL     1     -39.586  51.703 -51.910  1.00  0.00     0.019 A 
HETATM   11  S   UNL     1     -40.232  53.393 -49.894  1.00  0.00    -0.129 SA
HETATM   12  C   UNL     1     -39.561  51.208 -53.212  1.00  0.00     0.001 A 
HETATM   13  C   UNL     1     -40.200  51.906 -54.227  1.00  0.00     0.001 A 
HETATM   14  C   UNL     1     -40.623  55.150 -50.015  1.00  0.00     0.082 C 
HETATM   15  C   UNL     1     -41.806  55.383 -50.935  1.00  0.00     0.048 C 
ENDBRANCH   3   6
ENDBRANCH   2   3
BRANCH   2  16
HETATM   16  C   UNL     1     -42.668  57.788 -54.163  1.00  0.00     0.135 C 
BRANCH  16  17
HETATM   17  C   UNL     1     -43.975  57.120 -53.811  1.00  0.00     0.224 C 
HETATM   18  N   UNL     1     -44.872  57.676 -52.959  1.00  0.00    -0.327 N 
HETATM   19  H   UNL     1     -45.624  57.031 -52.727  1.00  0.00     0.169 HD
HETATM   20  O   UNL     1     -44.233  56.025 -54.331  1.00  0.00    -0.273 OA
BRANCH  18  21
HETATM   21  C   UNL     1     -44.957  58.933 -52.324  1.00  0.00     0.037 A 
HETATM   22  C   UNL     1     -44.403  59.248 -51.078  1.00  0.00     0.066 A 
HETATM   23  C   UNL     1     -44.546  60.533 -50.540  1.00  0.00     0.070 A 
HETATM   24  C   UNL     1     -45.244  61.508 -51.253  1.00  0.00     0.037 A 
HETATM   25  C   UNL     1     -45.771  61.217 -52.506  1.00  0.00     0.005 A 
HETATM   26  C   UNL     1     -45.619  59.939 -53.042  1.00  0.00     0.029 A 
BRANCH  23  27
HETATM   27  O   UNL     1     -44.056  60.960 -49.337  1.00  0.00    -0.356 OA
HETATM   28  C   UNL     1     -44.926  61.706 -48.496  1.00  0.00     0.210 C 
ENDBRANCH  23  27
ENDBRANCH  18  21
ENDBRANCH  16  17
ENDBRANCH   2  16
TORSDOF 6
ENDMDL
