MODEL 1
REMARK VINA RESULT:      -8.5      0.000      0.000
REMARK  6 active torsions:
REMARK  status: ('A' for Active; 'I' for Inactive)
REMARK    1  A    between atoms: C_7  and  S_8 
REMARK    2  A    between atoms: S_8  and  C_9 
REMARK    3  A    between atoms: C_9  and  C_10 
REMARK    4  A    between atoms: C_18  and  C_19 
REMARK    5  A    between atoms: C_26  and  C_27 
REMARK    6  A    between atoms: C_27  and  O_28 
ROOT
HETATM    1  C   UNL     1     -41.755  60.984 -57.777  1.00  0.00     0.070 C 
HETATM    2  C   UNL     1     -42.114  59.521 -57.701  1.00  0.00     0.037 A 
HETATM    3  N   UNL     1     -42.116  58.970 -56.425  1.00  0.00    -0.192 N 
HETATM    4  C   UNL     1     -42.398  57.679 -56.177  1.00  0.00     0.726 A 
HETATM    5  N   UNL     1     -42.670  56.836 -57.217  1.00  0.00    -0.082 N 
HETATM    6  N   UNL     1     -42.897  55.578 -56.783  1.00  0.00    -0.128 NA
HETATM    7  C   UNL     1     -42.823  55.753 -55.456  1.00  0.00     0.226 A 
HETATM    8  N   UNL     1     -42.488  57.022 -55.051  1.00  0.00    -0.035 NA
HETATM    9  C   UNL     1     -42.727  57.256 -58.628  1.00  0.00     0.204 A 
HETATM   10  C   UNL     1     -42.400  58.739 -58.770  1.00  0.00     0.070 A 
HETATM   11  H   UNL     1     -41.919  59.587 -55.641  1.00  0.00     0.184 HD
ENDROOT
BRANCH   7  12
HETATM   12  S   UNL     1     -43.160  54.498 -54.299  1.00  0.00    -0.083 SA
BRANCH  12  13
HETATM   13  C   UNL     1     -41.723  54.619 -53.199  1.00  0.00     0.123 C 
BRANCH  13  14
HETATM   14  C   UNL     1     -40.972  53.307 -53.140  1.00  0.00    -0.027 A 
HETATM   15  C   UNL     1     -40.221  52.909 -52.022  1.00  0.00     0.041 A 
HETATM   16 CL   UNL     1     -40.110  53.875 -50.593  1.00  0.00    -0.084 Cl
HETATM   17  C   UNL     1     -39.521  51.697 -52.029  1.00  0.00     0.024 A 
HETATM   18  C   UNL     1     -39.552  50.872 -53.154  1.00  0.00     0.002 A 
HETATM   19  C   UNL     1     -40.283  51.258 -54.274  1.00  0.00     0.001 A 
HETATM   20  C   UNL     1     -40.987  52.463 -54.267  1.00  0.00     0.009 A 
ENDBRANCH  13  14
ENDBRANCH  12  13
ENDBRANCH   7  12
BRANCH   9  21
HETATM   21  C   UNL     1     -44.088  56.889 -59.216  1.00  0.00    -0.006 A 
HETATM   22  C   UNL     1     -45.286  57.473 -58.767  1.00  0.00     0.042 A 
HETATM   23 CL   UNL     1     -45.330  58.648 -57.501  1.00  0.00    -0.084 Cl
HETATM   24  C   UNL     1     -46.513  57.110 -59.333  1.00  0.00     0.024 A 
HETATM   25  C   UNL     1     -46.567  56.166 -60.357  1.00  0.00     0.002 A 
HETATM   26  C   UNL     1     -45.394  55.578 -60.817  1.00  0.00     0.001 A 
HETATM   27  C   UNL     1     -44.167  55.932 -60.252  1.00  0.00     0.011 A 
ENDBRANCH   9  21
BRANCH  10  28
HETATM   28  C   UNL     1     -42.463  59.299 -60.133  1.00  0.00     0.293 C 
HETATM   29  O   UNL     1     -41.675  59.028 -61.026  1.00  0.00    -0.259 OA
BRANCH  28  30
HETATM   30  O   UNL     1     -43.520  60.140 -60.222  1.00  0.00    -0.323 OA
HETATM   31  C   UNL     1     -44.193  60.086 -61.482  1.00  0.00     0.213 C 
ENDBRANCH  28  30
ENDBRANCH  10  28
TORSDOF 6
ENDMDL
MODEL 2
REMARK VINA RESULT:      -8.4      3.711      7.942
REMARK  6 active torsions:
REMARK  status: ('A' for Active; 'I' for Inactive)
REMARK    1  A    between atoms: C_7  and  S_8 
REMARK    2  A    between atoms: S_8  and  C_9 
REMARK    3  A    between atoms: C_9  and  C_10 
REMARK    4  A    between atoms: C_18  and  C_19 
REMARK    5  A    between atoms: C_26  and  C_27 
REMARK    6  A    between atoms: C_27  and  O_28 
ROOT
HETATM    1  C   UNL     1     -40.146  59.078 -50.673  1.00  0.00     0.070 C 
HETATM    2  C   UNL     1     -40.868  58.473 -51.852  1.00  0.00     0.037 A 
HETATM    3  N   UNL     1     -40.963  59.284 -52.976  1.00  0.00    -0.192 N 
HETATM    4  C   UNL     1     -41.584  58.911 -54.109  1.00  0.00     0.726 A 
HETATM    5  N   UNL     1     -42.189  57.687 -54.174  1.00  0.00    -0.082 N 
HETATM    6  N   UNL     1     -42.786  57.498 -55.369  1.00  0.00    -0.128 NA
HETATM    7  C   UNL     1     -42.432  58.622 -56.007  1.00  0.00     0.226 A 
HETATM    8  N   UNL     1     -41.721  59.524 -55.254  1.00  0.00    -0.035 NA
HETATM    9  C   UNL     1     -42.170  56.698 -53.082  1.00  0.00     0.204 A 
HETATM   10  C   UNL     1     -41.427  57.240 -51.865  1.00  0.00     0.070 A 
HETATM   11  H   UNL     1     -40.513  60.196 -52.943  1.00  0.00     0.184 HD
ENDROOT
BRANCH   7  12
HETATM   12  S   UNL     1     -42.793  58.934 -57.681  1.00  0.00    -0.083 SA
BRANCH  12  13
HETATM   13  C   UNL     1     -44.519  58.388 -57.790  1.00  0.00     0.123 C 
BRANCH  13  14
HETATM   14  C   UNL     1     -44.661  57.227 -58.750  1.00  0.00    -0.027 A 
HETATM   15  C   UNL     1     -45.753  57.090 -59.623  1.00  0.00     0.041 A 
HETATM   16 CL   UNL     1     -47.025  58.258 -59.700  1.00  0.00    -0.084 Cl
HETATM   17  C   UNL     1     -45.851  55.981 -60.471  1.00  0.00     0.024 A 
HETATM   18  C   UNL     1     -44.870  54.990 -60.452  1.00  0.00     0.002 A 
HETATM   19  C   UNL     1     -43.787  55.106 -59.585  1.00  0.00     0.001 A 
HETATM   20  C   UNL     1     -43.683  56.214 -58.742  1.00  0.00     0.009 A 
ENDBRANCH  13  14
ENDBRANCH  12  13
ENDBRANCH   7  12
BRANCH   9  21
HETATM   21  C   UNL     1     -41.589  55.382 -53.596  1.00  0.00    -0.006 A 
HETATM   22  C   UNL     1     -42.104  54.130 -53.213  1.00  0.00     0.042 A 
HETATM   23 CL   UNL     1     -43.431  53.966 -52.120  1.00  0.00    -0.084 Cl
HETATM   24  C   UNL     1     -41.543  52.947 -53.708  1.00  0.00     0.024 A 
HETATM   25  C   UNL     1     -40.466  52.990 -54.592  1.00  0.00     0.002 A 
HETATM   26  C   UNL     1     -39.944  54.218 -54.983  1.00  0.00     0.001 A 
HETATM   27  C   UNL     1     -40.495  55.402 -54.490  1.00  0.00     0.011 A 
ENDBRANCH   9  21
BRANCH  10  28
HETATM   28  C   UNL     1     -41.300  56.328 -50.713  1.00  0.00     0.293 C 
HETATM   29  O   UNL     1     -42.156  56.178 -49.856  1.00  0.00    -0.259 OA
BRANCH  28  30
HETATM   30  O   UNL     1     -40.102  55.700 -50.770  1.00  0.00    -0.323 OA
HETATM   31  C   UNL     1     -39.973  54.621 -49.841  1.00  0.00     0.213 C 
ENDBRANCH  28  30
ENDBRANCH  10  28
TORSDOF 6
ENDMDL
MODEL 3
REMARK VINA RESULT:      -8.4      4.667      6.836
REMARK  6 active torsions:
REMARK  status: ('A' for Active; 'I' for Inactive)
REMARK    1  A    between atoms: C_7  and  S_8 
REMARK    2  A    between atoms: S_8  and  C_9 
REMARK    3  A    between atoms: C_9  and  C_10 
REMARK    4  A    between atoms: C_18  and  C_19 
REMARK    5  A    between atoms: C_26  and  C_27 
REMARK    6  A    between atoms: C_27  and  O_28 
ROOT
HETATM    1  C   UNL     1     -45.117  57.348 -54.593  1.00  0.00     0.070 C 
HETATM    2  C   UNL     1     -44.240  57.031 -53.407  1.00  0.00     0.037 A 
HETATM    3  N   UNL     1     -43.949  55.685 -53.220  1.00  0.00    -0.192 N 
HETATM    4  C   UNL     1     -43.196  55.224 -52.207  1.00  0.00     0.726 A 
HETATM    5  N   UNL     1     -42.703  56.100 -51.280  1.00  0.00    -0.082 N 
HETATM    6  N   UNL     1     -42.000  55.458 -50.323  1.00  0.00    -0.128 NA
HETATM    7  C   UNL     1     -42.044  54.200 -50.782  1.00  0.00     0.226 A 
HETATM    8  N   UNL     1     -42.794  54.015 -51.917  1.00  0.00    -0.035 NA
HETATM    9  C   UNL     1     -42.901  57.559 -51.336  1.00  0.00     0.204 A 
HETATM   10  C   UNL     1     -43.760  57.949 -52.535  1.00  0.00     0.070 A 
HETATM   11  H   UNL     1     -44.306  55.023 -53.905  1.00  0.00     0.184 HD
ENDROOT
BRANCH   7  12
HETATM   12  S   UNL     1     -41.191  52.875 -50.042  1.00  0.00    -0.083 SA
BRANCH  12  13
HETATM   13  C   UNL     1     -39.662  52.835 -51.016  1.00  0.00     0.123 C 
BRANCH  13  14
HETATM   14  C   UNL     1     -39.792  51.894 -52.194  1.00  0.00    -0.027 A 
HETATM   15  C   UNL     1     -39.614  50.505 -52.082  1.00  0.00     0.041 A 
HETATM   16 CL   UNL     1     -39.255  49.739 -50.575  1.00  0.00    -0.084 Cl
HETATM   17  C   UNL     1     -39.718  49.682 -53.209  1.00  0.00     0.024 A 
HETATM   18  C   UNL     1     -39.989  50.232 -54.462  1.00  0.00     0.002 A 
HETATM   19  C   UNL     1     -40.158  51.608 -54.590  1.00  0.00     0.001 A 
HETATM   20  C   UNL     1     -40.062  52.431 -53.467  1.00  0.00     0.009 A 
ENDBRANCH  13  14
ENDBRANCH  12  13
ENDBRANCH   7  12
BRANCH   9  21
HETATM   21  C   UNL     1     -41.543  58.259 -51.325  1.00  0.00    -0.006 A 
HETATM   22  C   UNL     1     -40.641  58.172 -52.400  1.00  0.00     0.042 A 
HETATM   23 CL   UNL     1     -40.979  57.257 -53.826  1.00  0.00    -0.084 Cl
HETATM   24  C   UNL     1     -39.408  58.831 -52.351  1.00  0.00     0.024 A 
HETATM   25  C   UNL     1     -39.054  59.588 -51.236  1.00  0.00     0.002 A 
HETATM   26  C   UNL     1     -39.933  59.688 -50.163  1.00  0.00     0.001 A 
HETATM   27  C   UNL     1     -41.163  59.030 -50.203  1.00  0.00     0.011 A 
ENDBRANCH   9  21
BRANCH  10  28
HETATM   28  C   UNL     1     -44.000  59.391 -52.730  1.00  0.00     0.293 C 
HETATM   29  O   UNL     1     -43.441  60.074 -53.574  1.00  0.00    -0.259 OA
BRANCH  28  30
HETATM   30  O   UNL     1     -44.926  59.814 -51.838  1.00  0.00    -0.323 OA
HETATM   31  C   UNL     1     -44.504  60.937 -51.060  1.00  0.00     0.213 C 
ENDBRANCH  28  30
ENDBRANCH  10  28
TORSDOF 6
ENDMDL
MODEL 4
REMARK VINA RESULT:      -8.3      1.478      3.461
REMARK  6 active torsions:
REMARK  status: ('A' for Active; 'I' for Inactive)
REMARK    1  A    between atoms: C_7  and  S_8 
REMARK    2  A    between atoms: S_8  and  C_9 
REMARK    3  A    between atoms: C_9  and  C_10 
REMARK    4  A    between atoms: C_18  and  C_19 
REMARK    5  A    between atoms: C_26  and  C_27 
REMARK    6  A    between atoms: C_27  and  O_28 
ROOT
HETATM    1  C   UNL     1     -44.772  55.501 -60.389  1.00  0.00     0.070 C 
HETATM    2  C   UNL     1     -44.317  56.135 -59.098  1.00  0.00     0.037 A 
HETATM    3  N   UNL     1     -43.491  55.350 -58.304  1.00  0.00    -0.192 N 
HETATM    4  C   UNL     1     -43.005  55.751 -57.116  1.00  0.00     0.726 A 
HETATM    5  N   UNL     1     -43.351  56.979 -56.627  1.00  0.00    -0.082 N 
HETATM    6  N   UNL     1     -42.800  57.198 -55.414  1.00  0.00    -0.128 NA
HETATM    7  C   UNL     1     -42.065  56.087 -55.269  1.00  0.00     0.226 A 
HETATM    8  N   UNL     1     -42.191  55.165 -56.278  1.00  0.00    -0.035 NA
HETATM    9  C   UNL     1     -44.203  57.944 -57.344  1.00  0.00     0.204 A 
HETATM   10  C   UNL     1     -44.675  57.371 -58.677  1.00  0.00     0.070 A 
HETATM   11  H   UNL     1     -43.221  54.435 -58.658  1.00  0.00     0.184 HD
ENDROOT
BRANCH   7  12
HETATM   12  S   UNL     1     -40.985  55.814 -53.932  1.00  0.00    -0.083 SA
BRANCH  12  13
HETATM   13  C   UNL     1     -41.832  54.478 -53.045  1.00  0.00     0.123 C 
BRANCH  13  14
HETATM   14  C   UNL     1     -41.014  53.205 -53.072  1.00  0.00    -0.027 A 
HETATM   15  C   UNL     1     -40.169  52.820 -52.018  1.00  0.00     0.041 A 
HETATM   16 CL   UNL     1     -40.009  53.757 -50.574  1.00  0.00    -0.084 Cl
HETATM   17  C   UNL     1     -39.412  51.646 -52.106  1.00  0.00     0.024 A 
HETATM   18  C   UNL     1     -39.478  50.848 -53.248  1.00  0.00     0.002 A 
HETATM   19  C   UNL     1     -40.303  51.222 -54.305  1.00  0.00     0.001 A 
HETATM   20  C   UNL     1     -41.065  52.389 -54.218  1.00  0.00     0.009 A 
ENDBRANCH  13  14
ENDBRANCH  12  13
ENDBRANCH   7  12
BRANCH   9  21
HETATM   21  C   UNL     1     -43.457  59.268 -57.498  1.00  0.00    -0.006 A 
HETATM   22  C   UNL     1     -43.952  60.477 -56.977  1.00  0.00     0.042 A 
HETATM   23 CL   UNL     1     -45.453  60.578 -56.127  1.00  0.00    -0.084 Cl
HETATM   24  C   UNL     1     -43.237  61.669 -57.139  1.00  0.00     0.024 A 
HETATM   25  C   UNL     1     -42.019  61.677 -57.815  1.00  0.00     0.002 A 
HETATM   26  C   UNL     1     -41.511  60.492 -58.336  1.00  0.00     0.001 A 
HETATM   27  C   UNL     1     -42.222  59.300 -58.183  1.00  0.00     0.011 A 
ENDBRANCH   9  21
BRANCH  10  28
HETATM   28  C   UNL     1     -45.505  58.256 -59.516  1.00  0.00     0.293 C 
HETATM   29  O   UNL     1     -45.082  58.906 -60.459  1.00  0.00    -0.259 OA
BRANCH  28  30
HETATM   30  O   UNL     1     -46.784  58.221 -59.073  1.00  0.00    -0.323 OA
HETATM   31  C   UNL     1     -47.405  59.507 -59.007  1.00  0.00     0.213 C 
ENDBRANCH  28  30
ENDBRANCH  10  28
TORSDOF 6
ENDMDL
MODEL 5
REMARK VINA RESULT:      -8.0      3.276      4.565
REMARK  6 active torsions:
REMARK  status: ('A' for Active; 'I' for Inactive)
REMARK    1  A    between atoms: C_7  and  S_8 
REMARK    2  A    between atoms: S_8  and  C_9 
REMARK    3  A    between atoms: C_9  and  C_10 
REMARK    4  A    between atoms: C_18  and  C_19 
REMARK    5  A    between atoms: C_26  and  C_27 
REMARK    6  A    between atoms: C_27  and  O_28 
ROOT
HETATM    1  C   UNL     1     -45.584  58.975 -50.845  1.00  0.00     0.070 C 
HETATM    2  C   UNL     1     -44.782  58.438 -52.004  1.00  0.00     0.037 A 
HETATM    3  N   UNL     1     -44.444  57.092 -51.926  1.00  0.00    -0.192 N 
HETATM    4  C   UNL     1     -43.720  56.454 -52.863  1.00  0.00     0.726 A 
HETATM    5  N   UNL     1     -43.254  57.150 -53.943  1.00  0.00    -0.082 N 
HETATM    6  N   UNL     1     -42.524  56.359 -54.758  1.00  0.00    -0.128 NA
HETATM    7  C   UNL     1     -42.660  55.175 -54.145  1.00  0.00     0.226 A 
HETATM    8  N   UNL     1     -43.360  55.202 -52.964  1.00  0.00    -0.035 NA
HETATM    9  C   UNL     1     -43.531  58.575 -54.190  1.00  0.00     0.204 A 
HETATM   10  C   UNL     1     -44.368  59.173 -53.064  1.00  0.00     0.070 A 
HETATM   11  H   UNL     1     -44.789  56.562 -51.130  1.00  0.00     0.184 HD
ENDROOT
BRANCH   7  12
HETATM   12  S   UNL     1     -42.041  53.681 -54.789  1.00  0.00    -0.083 SA
BRANCH  12  13
HETATM   13  C   UNL     1     -40.397  53.606 -54.026  1.00  0.00     0.123 C 
BRANCH  13  14
HETATM   14  C   UNL     1     -40.130  52.235 -53.446  1.00  0.00    -0.027 A 
HETATM   15  C   UNL     1     -39.816  52.028 -52.092  1.00  0.00     0.041 A 
HETATM   16 CL   UNL     1     -39.735  53.328 -50.955  1.00  0.00    -0.084 Cl
HETATM   17  C   UNL     1     -39.549  50.741 -51.612  1.00  0.00     0.024 A 
HETATM   18  C   UNL     1     -39.579  49.646 -52.475  1.00  0.00     0.002 A 
HETATM   19  C   UNL     1     -39.878  49.836 -53.821  1.00  0.00     0.001 A 
HETATM   20  C   UNL     1     -40.152  51.117 -54.302  1.00  0.00     0.009 A 
ENDBRANCH  13  14
ENDBRANCH  12  13
ENDBRANCH   7  12
BRANCH   9  21
HETATM   21  C   UNL     1     -44.182  58.738 -55.563  1.00  0.00    -0.006 A 
HETATM   22  C   UNL     1     -43.572  59.459 -56.605  1.00  0.00     0.042 A 
HETATM   23 CL   UNL     1     -42.040  60.237 -56.425  1.00  0.00    -0.084 Cl
HETATM   24  C   UNL     1     -44.201  59.584 -57.849  1.00  0.00     0.024 A 
HETATM   25  C   UNL     1     -45.441  58.990 -58.077  1.00  0.00     0.002 A 
HETATM   26  C   UNL     1     -46.060  58.271 -57.061  1.00  0.00     0.001 A 
HETATM   27  C   UNL     1     -45.440  58.147 -55.816  1.00  0.00     0.011 A 
ENDBRANCH   9  21
BRANCH  10  28
HETATM   28  C   UNL     1     -44.752  60.589 -53.210  1.00  0.00     0.293 C 
HETATM   29  O   UNL     1     -45.886  60.974 -53.448  1.00  0.00    -0.259 OA
BRANCH  28  30
HETATM   30  O   UNL     1     -43.659  61.369 -53.036  1.00  0.00    -0.323 OA
HETATM   31  C   UNL     1     -43.707  62.597 -53.767  1.00  0.00     0.213 C 
ENDBRANCH  28  30
ENDBRANCH  10  28
TORSDOF 6
ENDMDL
MODEL 6
REMARK VINA RESULT:      -7.9      3.541      7.616
REMARK  6 active torsions:
REMARK  status: ('A' for Active; 'I' for Inactive)
REMARK    1  A    between atoms: C_7  and  S_8 
REMARK    2  A    between atoms: S_8  and  C_9 
REMARK    3  A    between atoms: C_9  and  C_10 
REMARK    4  A    between atoms: C_18  and  C_19 
REMARK    5  A    between atoms: C_26  and  C_27 
REMARK    6  A    between atoms: C_27  and  O_28 
ROOT
HETATM    1  C   UNL     1     -41.749  60.023 -52.057  1.00  0.00     0.070 C 
HETATM    2  C   UNL     1     -42.029  59.175 -53.273  1.00  0.00     0.037 A 
HETATM    3  N   UNL     1     -41.808  59.793 -54.498  1.00  0.00    -0.192 N 
HETATM    4  C   UNL     1     -42.020  59.189 -55.681  1.00  0.00     0.726 A 
HETATM    5  N   UNL     1     -42.507  57.912 -55.709  1.00  0.00    -0.082 N 
HETATM    6  N   UNL     1     -42.687  57.483 -56.976  1.00  0.00    -0.128 NA
HETATM    7  C   UNL     1     -42.210  58.529 -57.665  1.00  0.00     0.226 A 
HETATM    8  N   UNL     1     -41.823  59.604 -56.904  1.00  0.00    -0.035 NA
HETATM    9  C   UNL     1     -42.780  57.107 -54.506  1.00  0.00     0.204 A 
HETATM   10  C   UNL     1     -42.488  57.901 -53.237  1.00  0.00     0.070 A 
HETATM   11  H   UNL     1     -41.441  60.741 -54.492  1.00  0.00     0.184 HD
ENDROOT
BRANCH   7  12
HETATM   12  S   UNL     1     -42.043  58.545 -59.397  1.00  0.00    -0.083 SA
BRANCH  12  13
HETATM   13  C   UNL     1     -42.786  56.954 -59.851  1.00  0.00     0.123 C 
BRANCH  13  14
HETATM   14  C   UNL     1     -44.288  57.077 -59.988  1.00  0.00    -0.027 A 
HETATM   15  C   UNL     1     -45.150  55.969 -59.932  1.00  0.00     0.041 A 
HETATM   16 CL   UNL     1     -44.572  54.361 -59.671  1.00  0.00    -0.084 Cl
HETATM   17  C   UNL     1     -46.531  56.133 -60.094  1.00  0.00     0.024 A 
HETATM   18  C   UNL     1     -47.068  57.400 -60.325  1.00  0.00     0.002 A 
HETATM   19  C   UNL     1     -46.225  58.505 -60.393  1.00  0.00     0.001 A 
HETATM   20  C   UNL     1     -44.848  58.346 -60.226  1.00  0.00     0.009 A 
ENDBRANCH  13  14
ENDBRANCH  12  13
ENDBRANCH   7  12
BRANCH   9  21
HETATM   21  C   UNL     1     -41.997  55.797 -54.580  1.00  0.00    -0.006 A 
HETATM   22  C   UNL     1     -42.620  54.540 -54.486  1.00  0.00     0.042 A 
HETATM   23 CL   UNL     1     -44.325  54.361 -54.268  1.00  0.00    -0.084 Cl
HETATM   24  C   UNL     1     -41.867  53.363 -54.560  1.00  0.00     0.024 A 
HETATM   25  C   UNL     1     -40.485  53.418 -54.732  1.00  0.00     0.002 A 
HETATM   26  C   UNL     1     -39.850  54.651 -54.828  1.00  0.00     0.001 A 
HETATM   27  C   UNL     1     -40.595  55.829 -54.750  1.00  0.00     0.011 A 
ENDBRANCH   9  21
BRANCH  10  28
HETATM   28  C   UNL     1     -42.682  57.193 -51.958  1.00  0.00     0.293 C 
HETATM   29  O   UNL     1     -43.770  56.978 -51.448  1.00  0.00    -0.259 OA
BRANCH  28  30
HETATM   30  O   UNL     1     -41.476  56.828 -51.463  1.00  0.00    -0.323 OA
HETATM   31  C   UNL     1     -41.473  55.536 -50.851  1.00  0.00     0.213 C 
ENDBRANCH  28  30
ENDBRANCH  10  28
TORSDOF 6
ENDMDL
MODEL 7
REMARK VINA RESULT:      -7.9      1.745      2.071
REMARK  6 active torsions:
REMARK  status: ('A' for Active; 'I' for Inactive)
REMARK    1  A    between atoms: C_7  and  S_8 
REMARK    2  A    between atoms: S_8  and  C_9 
REMARK    3  A    between atoms: C_9  and  C_10 
REMARK    4  A    between atoms: C_18  and  C_19 
REMARK    5  A    between atoms: C_26  and  C_27 
REMARK    6  A    between atoms: C_27  and  O_28 
ROOT
HETATM    1  C   UNL     1     -45.101  61.584 -56.221  1.00  0.00     0.070 C 
HETATM    2  C   UNL     1     -44.620  60.170 -56.437  1.00  0.00     0.037 A 
HETATM    3  N   UNL     1     -44.561  59.377 -55.298  1.00  0.00    -0.192 N 
HETATM    4  C   UNL     1     -44.141  58.099 -55.306  1.00  0.00     0.726 A 
HETATM    5  N   UNL     1     -43.717  57.536 -56.477  1.00  0.00    -0.082 N 
HETATM    6  N   UNL     1     -43.304  56.265 -56.289  1.00  0.00    -0.128 NA
HETATM    7  C   UNL     1     -43.585  56.100 -54.989  1.00  0.00     0.226 A 
HETATM    8  N   UNL     1     -44.070  57.213 -54.348  1.00  0.00    -0.035 NA
HETATM    9  C   UNL     1     -43.728  58.228 -57.777  1.00  0.00     0.204 A 
HETATM   10  C   UNL     1     -44.234  59.660 -57.631  1.00  0.00     0.070 A 
HETATM   11  H   UNL     1     -44.878  59.781 -54.420  1.00  0.00     0.184 HD
ENDROOT
BRANCH   7  12
HETATM   12  S   UNL     1     -43.399  54.588 -54.148  1.00  0.00    -0.083 SA
BRANCH  12  13
HETATM   13  C   UNL     1     -41.825  54.841 -53.283  1.00  0.00     0.123 C 
BRANCH  13  14
HETATM   14  C   UNL     1     -41.052  53.545 -53.173  1.00  0.00    -0.027 A 
HETATM   15  C   UNL     1     -40.327  53.186 -52.025  1.00  0.00     0.041 A 
HETATM   16 CL   UNL     1     -40.276  54.186 -50.615  1.00  0.00    -0.084 Cl
HETATM   17  C   UNL     1     -39.604  51.988 -51.984  1.00  0.00     0.024 A 
HETATM   18  C   UNL     1     -39.586  51.139 -53.090  1.00  0.00     0.002 A 
HETATM   19  C   UNL     1     -40.291  51.485 -54.239  1.00  0.00     0.001 A 
HETATM   20  C   UNL     1     -41.018  52.676 -54.281  1.00  0.00     0.009 A 
ENDBRANCH  13  14
ENDBRANCH  12  13
ENDBRANCH   7  12
BRANCH   9  21
HETATM   21  C   UNL     1     -44.539  57.412 -58.783  1.00  0.00    -0.006 A 
HETATM   22  C   UNL     1     -43.932  56.647 -59.796  1.00  0.00     0.042 A 
HETATM   23 CL   UNL     1     -42.219  56.571 -60.003  1.00  0.00    -0.084 Cl
HETATM   24  C   UNL     1     -44.711  55.912 -60.697  1.00  0.00     0.024 A 
HETATM   25  C   UNL     1     -46.101  55.922 -60.602  1.00  0.00     0.002 A 
HETATM   26  C   UNL     1     -46.720  56.670 -59.607  1.00  0.00     0.001 A 
HETATM   27  C   UNL     1     -45.949  57.410 -58.707  1.00  0.00     0.011 A 
ENDBRANCH   9  21
BRANCH  10  28
HETATM   28  C   UNL     1     -44.335  60.452 -58.871  1.00  0.00     0.293 C 
HETATM   29  O   UNL     1     -45.369  60.620 -59.498  1.00  0.00    -0.259 OA
BRANCH  28  30
HETATM   30  O   UNL     1     -43.115  60.950 -59.183  1.00  0.00    -0.323 OA
HETATM   31  C   UNL     1     -43.159  62.257 -59.760  1.00  0.00     0.213 C 
ENDBRANCH  28  30
ENDBRANCH  10  28
TORSDOF 6
ENDMDL
MODEL 8
REMARK VINA RESULT:      -7.8      1.562      2.096
REMARK  6 active torsions:
REMARK  status: ('A' for Active; 'I' for Inactive)
REMARK    1  A    between atoms: C_7  and  S_8 
REMARK    2  A    between atoms: S_8  and  C_9 
REMARK    3  A    between atoms: C_9  and  C_10 
REMARK    4  A    between atoms: C_18  and  C_19 
REMARK    5  A    between atoms: C_26  and  C_27 
REMARK    6  A    between atoms: C_27  and  O_28 
ROOT
HETATM    1  C   UNL     1     -41.584  62.344 -58.502  1.00  0.00     0.070 C 
HETATM    2  C   UNL     1     -41.938  60.969 -57.990  1.00  0.00     0.037 A 
HETATM    3  N   UNL     1     -41.854  60.802 -56.614  1.00  0.00    -0.192 N 
HETATM    4  C   UNL     1     -42.119  59.640 -55.991  1.00  0.00     0.726 A 
HETATM    5  N   UNL     1     -42.462  58.543 -56.729  1.00  0.00    -0.082 N 
HETATM    6  N   UNL     1     -42.659  57.464 -55.943  1.00  0.00    -0.128 NA
HETATM    7  C   UNL     1     -42.496  58.007 -54.728  1.00  0.00     0.226 A 
HETATM    8  N   UNL     1     -42.133  59.331 -54.721  1.00  0.00    -0.035 NA
HETATM    9  C   UNL     1     -42.613  58.548 -58.195  1.00  0.00     0.204 A 
HETATM   10  C   UNL     1     -42.296  59.923 -58.773  1.00  0.00     0.070 A 
HETATM   11  H   UNL     1     -41.605  61.612 -56.051  1.00  0.00     0.184 HD
ENDROOT
BRANCH   7  12
HETATM   12  S   UNL     1     -42.754  57.137 -53.242  1.00  0.00    -0.083 SA
BRANCH  12  13
HETATM   13  C   UNL     1     -43.284  55.515 -53.856  1.00  0.00     0.123 C 
BRANCH  13  14
HETATM   14  C   UNL     1     -42.175  54.495 -53.719  1.00  0.00    -0.027 A 
HETATM   15  C   UNL     1     -41.894  53.832 -52.513  1.00  0.00     0.041 A 
HETATM   16 CL   UNL     1     -42.814  54.102 -51.075  1.00  0.00    -0.084 Cl
HETATM   17  C   UNL     1     -40.837  52.917 -52.433  1.00  0.00     0.024 A 
HETATM   18  C   UNL     1     -40.041  52.661 -53.549  1.00  0.00     0.002 A 
HETATM   19  C   UNL     1     -40.300  53.318 -54.748  1.00  0.00     0.001 A 
HETATM   20  C   UNL     1     -41.357  54.225 -54.834  1.00  0.00     0.009 A 
ENDBRANCH  13  14
ENDBRANCH  12  13
ENDBRANCH   7  12
BRANCH   9  21
HETATM   21  C   UNL     1     -44.011  58.056 -58.566  1.00  0.00    -0.006 A 
HETATM   22  C   UNL     1     -44.224  56.892 -59.326  1.00  0.00     0.042 A 
HETATM   23 CL   UNL     1     -42.925  55.919 -59.920  1.00  0.00    -0.084 Cl
HETATM   24  C   UNL     1     -45.521  56.475 -59.643  1.00  0.00     0.024 A 
HETATM   25  C   UNL     1     -46.625  57.204 -59.206  1.00  0.00     0.002 A 
HETATM   26  C   UNL     1     -46.436  58.357 -58.452  1.00  0.00     0.001 A 
HETATM   27  C   UNL     1     -45.144  58.782 -58.136  1.00  0.00     0.011 A 
ENDBRANCH   9  21
BRANCH  10  28
HETATM   28  C   UNL     1     -42.450  60.075 -60.232  1.00  0.00     0.293 C 
HETATM   29  O   UNL     1     -41.711  59.566 -61.059  1.00  0.00    -0.259 OA
BRANCH  28  30
HETATM   30  O   UNL     1     -43.528  60.853 -60.488  1.00  0.00    -0.323 OA
HETATM   31  C   UNL     1     -44.403  60.313 -61.480  1.00  0.00     0.213 C 
ENDBRANCH  28  30
ENDBRANCH  10  28
TORSDOF 6
ENDMDL
MODEL 9
REMARK VINA RESULT:      -7.8      3.485      5.457
REMARK  6 active torsions:
REMARK  status: ('A' for Active; 'I' for Inactive)
REMARK    1  A    between atoms: C_7  and  S_8 
REMARK    2  A    between atoms: S_8  and  C_9 
REMARK    3  A    between atoms: C_9  and  C_10 
REMARK    4  A    between atoms: C_18  and  C_19 
REMARK    5  A    between atoms: C_26  and  C_27 
REMARK    6  A    between atoms: C_27  and  O_28 
ROOT
HETATM    1  C   UNL     1     -43.855  61.116 -57.168  1.00  0.00     0.070 C 
HETATM    2  C   UNL     1     -43.717  59.981 -56.184  1.00  0.00     0.037 A 
HETATM    3  N   UNL     1     -43.562  58.719 -56.744  1.00  0.00    -0.192 N 
HETATM    4  C   UNL     1     -43.440  57.595 -56.016  1.00  0.00     0.726 A 
HETATM    5  N   UNL     1     -43.499  57.665 -54.652  1.00  0.00    -0.082 N 
HETATM    6  N   UNL     1     -43.391  56.442 -54.092  1.00  0.00    -0.128 NA
HETATM    7  C   UNL     1     -43.188  55.686 -55.180  1.00  0.00     0.226 A 
HETATM    8  N   UNL     1     -43.243  56.355 -56.378  1.00  0.00    -0.035 NA
HETATM    9  C   UNL     1     -43.643  58.921 -53.896  1.00  0.00     0.204 A 
HETATM   10  C   UNL     1     -43.759  60.116 -54.837  1.00  0.00     0.070 A 
HETATM   11  H   UNL     1     -43.511  58.652 -57.758  1.00  0.00     0.184 HD
ENDROOT
BRANCH   7  12
HETATM   12  S   UNL     1     -42.838  53.982 -55.116  1.00  0.00    -0.083 SA
BRANCH  12  13
HETATM   13  C   UNL     1     -41.028  53.985 -55.008  1.00  0.00     0.123 C 
BRANCH  13  14
HETATM   14  C   UNL     1     -40.550  53.091 -53.885  1.00  0.00    -0.027 A 
HETATM   15  C   UNL     1     -40.460  53.524 -52.552  1.00  0.00     0.041 A 
HETATM   16 CL   UNL     1     -40.916  55.119 -52.066  1.00  0.00    -0.084 Cl
HETATM   17  C   UNL     1     -39.984  52.664 -51.555  1.00  0.00     0.024 A 
HETATM   18  C   UNL     1     -39.582  51.368 -51.875  1.00  0.00     0.002 A 
HETATM   19  C   UNL     1     -39.655  50.927 -53.193  1.00  0.00     0.001 A 
HETATM   20  C   UNL     1     -40.135  51.780 -54.189  1.00  0.00     0.009 A 
ENDBRANCH  13  14
ENDBRANCH  12  13
ENDBRANCH   7  12
BRANCH   9  21
HETATM   21  C   UNL     1     -42.489  59.056 -52.905  1.00  0.00    -0.006 A 
HETATM   22  C   UNL     1     -42.692  59.375 -51.550  1.00  0.00     0.042 A 
HETATM   23 CL   UNL     1     -44.262  59.656 -50.886  1.00  0.00    -0.084 Cl
HETATM   24  C   UNL     1     -41.606  59.488 -50.674  1.00  0.00     0.024 A 
HETATM   25  C   UNL     1     -40.306  59.281 -51.129  1.00  0.00     0.002 A 
HETATM   26  C   UNL     1     -40.084  58.963 -52.464  1.00  0.00     0.001 A 
HETATM   27  C   UNL     1     -41.162  58.854 -53.345  1.00  0.00     0.011 A 
ENDBRANCH   9  21
BRANCH  10  28
HETATM   28  C   UNL     1     -43.867  61.444 -54.204  1.00  0.00     0.293 C 
HETATM   29  O   UNL     1     -42.930  62.211 -54.048  1.00  0.00    -0.259 OA
BRANCH  28  30
HETATM   30  O   UNL     1     -45.153  61.662 -53.839  1.00  0.00    -0.323 OA
HETATM   31  C   UNL     1     -45.314  62.746 -52.922  1.00  0.00     0.213 C 
ENDBRANCH  28  30
ENDBRANCH  10  28
TORSDOF 6
ENDMDL
MODEL 10
REMARK VINA RESULT:      -7.6      1.721      2.480
REMARK  6 active torsions:
REMARK  status: ('A' for Active; 'I' for Inactive)
REMARK    1  A    between atoms: C_7  and  S_8 
REMARK    2  A    between atoms: S_8  and  C_9 
REMARK    3  A    between atoms: C_9  and  C_10 
REMARK    4  A    between atoms: C_18  and  C_19 
REMARK    5  A    between atoms: C_26  and  C_27 
REMARK    6  A    between atoms: C_27  and  O_28 
ROOT
HETATM    1  C   UNL     1     -43.080  60.839 -53.786  1.00  0.00     0.070 C 
HETATM    2  C   UNL     1     -42.819  59.583 -54.580  1.00  0.00     0.037 A 
HETATM    3  N   UNL     1     -42.797  58.404 -53.845  1.00  0.00    -0.192 N 
HETATM    4  C   UNL     1     -42.563  57.196 -54.388  1.00  0.00     0.726 A 
HETATM    5  N   UNL     1     -42.301  57.098 -55.726  1.00  0.00    -0.082 N 
HETATM    6  N   UNL     1     -42.061  55.820 -56.087  1.00  0.00    -0.128 NA
HETATM    7  C   UNL     1     -42.275  55.187 -54.924  1.00  0.00     0.226 A 
HETATM    8  N   UNL     1     -42.554  56.003 -53.856  1.00  0.00    -0.035 NA
HETATM    9  C   UNL     1     -42.302  58.243 -56.653  1.00  0.00     0.204 A 
HETATM   10  C   UNL     1     -42.590  59.546 -55.914  1.00  0.00     0.070 A 
HETATM   11  H   UNL     1     -42.995  58.461 -52.848  1.00  0.00     0.184 HD
ENDROOT
BRANCH   7  12
HETATM   12  S   UNL     1     -42.249  53.456 -54.752  1.00  0.00    -0.083 SA
BRANCH  12  13
HETATM   13  C   UNL     1     -40.467  53.121 -54.695  1.00  0.00     0.123 C 
BRANCH  13  14
HETATM   14  C   UNL     1     -40.152  52.026 -53.699  1.00  0.00    -0.027 A 
HETATM   15  C   UNL     1     -40.016  52.266 -52.322  1.00  0.00     0.041 A 
HETATM   16 CL   UNL     1     -40.225  53.838 -51.634  1.00  0.00    -0.084 Cl
HETATM   17  C   UNL     1     -39.695  51.223 -51.446  1.00  0.00     0.024 A 
HETATM   18  C   UNL     1     -39.495  49.931 -51.932  1.00  0.00     0.002 A 
HETATM   19  C   UNL     1     -39.616  49.679 -53.295  1.00  0.00     0.001 A 
HETATM   20  C   UNL     1     -39.943  50.716 -54.171  1.00  0.00     0.009 A 
ENDBRANCH  13  14
ENDBRANCH  12  13
ENDBRANCH   7  12
BRANCH   9  21
HETATM   21  C   UNL     1     -43.284  57.977 -57.793  1.00  0.00    -0.006 A 
HETATM   22  C   UNL     1     -44.673  57.899 -57.588  1.00  0.00     0.042 A 
HETATM   23 CL   UNL     1     -45.395  58.086 -56.029  1.00  0.00    -0.084 Cl
HETATM   24  C   UNL     1     -45.539  57.656 -58.659  1.00  0.00     0.024 A 
HETATM   25  C   UNL     1     -45.039  57.489 -59.949  1.00  0.00     0.002 A 
HETATM   26  C   UNL     1     -43.669  57.564 -60.173  1.00  0.00     0.001 A 
HETATM   27  C   UNL     1     -42.799  57.802 -59.108  1.00  0.00     0.011 A 
ENDBRANCH   9  21
BRANCH  10  28
HETATM   28  C   UNL     1     -42.660  60.767 -56.738  1.00  0.00     0.293 C 
HETATM   29  O   UNL     1     -43.694  61.358 -57.007  1.00  0.00    -0.259 OA
BRANCH  28  30
HETATM   30  O   UNL     1     -41.411  61.114 -57.129  1.00  0.00    -0.323 OA
HETATM   31  C   UNL     1     -41.282  61.299 -58.541  1.00  0.00     0.213 C 
ENDBRANCH  28  30
ENDBRANCH  10  28
TORSDOF 6
ENDMDL
