MODEL 1
REMARK VINA RESULT:      -8.3      0.000      0.000
REMARK  8 active torsions:
REMARK  status: ('A' for Active; 'I' for Inactive)
REMARK    1  A    between atoms: C_7  and  C_8 
REMARK    2  A    between atoms: C_8  and  O_9 
REMARK    3  A    between atoms: O_9  and  C_10 
REMARK    4  A    between atoms: C_12  and  C_13 
REMARK       I    between atoms: C_13  and  N_14 
REMARK    5  A    between atoms: N_14  and  C_15 
REMARK    6  A    between atoms: C_15  and  C_16 
REMARK    7  A    between atoms: C_17  and  C_18 
REMARK    8  A    between atoms: C_18  and  N_19 
ROOT
HETATM    1  C   UNL     1     -42.324  54.443 -54.535  1.00  0.00     0.252 C 
HETATM    2  N   UNL     1     -41.151  54.364 -53.804  1.00  0.00    -0.353 N 
HETATM    3  O   UNL     1     -42.585  53.668 -55.447  1.00  0.00    -0.268 OA
HETATM    4  H   UNL     1     -40.901  55.173 -53.246  1.00  0.00     0.163 HD
ENDROOT
BRANCH   1   5
HETATM    5  C   UNL     1     -43.217  55.583 -54.212  1.00  0.00     0.034 A 
HETATM    6  C   UNL     1     -42.974  56.304 -53.038  1.00  0.00     0.053 A 
HETATM    7  C   UNL     1     -43.824  57.347 -52.657  1.00  0.00     0.070 A 
HETATM    8  C   UNL     1     -44.892  57.696 -53.487  1.00  0.00     0.037 A 
HETATM    9  C   UNL     1     -45.123  56.989 -54.673  1.00  0.00     0.004 A 
HETATM   10  C   UNL     1     -44.293  55.928 -55.035  1.00  0.00     0.017 A 
BRANCH   7  11
HETATM   11  O   UNL     1     -43.505  57.933 -51.465  1.00  0.00    -0.346 OA
BRANCH  11  12
HETATM   12  C   UNL     1     -43.019  59.277 -51.497  1.00  0.00     0.219 C 
BRANCH  12  13
HETATM   13  C   UNL     1     -41.588  59.296 -51.899  1.00  0.00     0.024 A 
HETATM   14  C   UNL     1     -40.432  59.273 -51.074  1.00  0.00     0.069 A 
HETATM   15  C   UNL     1     -40.354  59.229 -49.594  1.00  0.00     0.073 C 
HETATM   16  N   UNL     1     -39.310  59.294 -51.801  1.00  0.00    -0.133 NA
HETATM   17  O   UNL     1     -39.715  59.346 -53.119  1.00  0.00    -0.217 OA
HETATM   18  C   UNL     1     -41.072  59.350 -53.176  1.00  0.00     0.085 A 
HETATM   19  C   UNL     1     -41.671  59.411 -54.523  1.00  0.00     0.079 C 
ENDBRANCH  12  13
ENDBRANCH  11  12
ENDBRANCH   7  11
ENDBRANCH   1   5
BRANCH   2  20
HETATM   20  C   UNL     1     -40.084  53.552 -54.330  1.00  0.00     0.162 C 
BRANCH  20  21
HETATM   21  C   UNL     1     -39.983  52.221 -53.627  1.00  0.00    -0.033 A 
HETATM   22  C   UNL     1     -39.843  52.078 -52.227  1.00  0.00    -0.025 A 
HETATM   23  C   UNL     1     -39.714  50.781 -51.687  1.00  0.00     0.009 A 
HETATM   24  C   UNL     1     -39.739  49.651 -52.503  1.00  0.00     0.001 A 
HETATM   25  C   UNL     1     -39.892  49.793 -53.876  1.00  0.00     0.001 A 
HETATM   26  C   UNL     1     -40.011  51.064 -54.432  1.00  0.00     0.009 A 
BRANCH  22  27
HETATM   27  C   UNL     1     -39.848  53.248 -51.271  1.00  0.00     0.274 C 
BRANCH  27  28
HETATM   28  N   UNL     1     -40.919  53.166 -50.203  1.00  0.00    -0.067 N 
HETATM   29  H   UNL     1     -41.288  52.208 -50.222  1.00  0.00     0.280 HD
HETATM   30  C   UNL     1     -42.065  54.116 -50.439  1.00  0.00     0.235 C 
HETATM   31  C   UNL     1     -41.621  55.387 -49.748  1.00  0.00     0.029 C 
HETATM   32  C   UNL     1     -40.792  54.927 -48.559  1.00  0.00     0.029 C 
HETATM   33  C   UNL     1     -40.463  53.461 -48.797  1.00  0.00     0.235 C 
ENDBRANCH  27  28
ENDBRANCH  22  27
ENDBRANCH  20  21
ENDBRANCH   2  20
TORSDOF 8
ENDMDL
MODEL 2
REMARK VINA RESULT:      -8.1      3.181      5.816
REMARK  8 active torsions:
REMARK  status: ('A' for Active; 'I' for Inactive)
REMARK    1  A    between atoms: C_7  and  C_8 
REMARK    2  A    between atoms: C_8  and  O_9 
REMARK    3  A    between atoms: O_9  and  C_10 
REMARK    4  A    between atoms: C_12  and  C_13 
REMARK       I    between atoms: C_13  and  N_14 
REMARK    5  A    between atoms: N_14  and  C_15 
REMARK    6  A    between atoms: C_15  and  C_16 
REMARK    7  A    between atoms: C_17  and  C_18 
REMARK    8  A    between atoms: C_18  and  N_19 
ROOT
HETATM    1  C   UNL     1     -43.408  55.237 -54.044  1.00  0.00     0.252 C 
HETATM    2  N   UNL     1     -43.662  55.252 -52.684  1.00  0.00    -0.353 N 
HETATM    3  O   UNL     1     -43.207  54.200 -54.665  1.00  0.00    -0.268 OA
HETATM    4  H   UNL     1     -43.573  56.143 -52.208  1.00  0.00     0.163 HD
ENDROOT
BRANCH   1   5
HETATM    5  C   UNL     1     -43.300  56.563 -54.700  1.00  0.00     0.034 A 
HETATM    6  C   UNL     1     -44.279  56.924 -55.633  1.00  0.00     0.053 A 
HETATM    7  C   UNL     1     -44.189  58.135 -56.324  1.00  0.00     0.070 A 
HETATM    8  C   UNL     1     -43.136  59.008 -56.040  1.00  0.00     0.037 A 
HETATM    9  C   UNL     1     -42.168  58.658 -55.091  1.00  0.00     0.004 A 
HETATM   10  C   UNL     1     -42.242  57.434 -54.425  1.00  0.00     0.017 A 
BRANCH   7  11
HETATM   11  O   UNL     1     -45.179  58.340 -57.242  1.00  0.00    -0.346 OA
BRANCH  11  12
HETATM   12  C   UNL     1     -44.797  58.827 -58.531  1.00  0.00     0.219 C 
BRANCH  12  13
HETATM   13  C   UNL     1     -44.282  57.713 -59.369  1.00  0.00     0.024 A 
HETATM   14  C   UNL     1     -42.939  57.414 -59.724  1.00  0.00     0.069 A 
HETATM   15  C   UNL     1     -41.702  58.141 -59.353  1.00  0.00     0.073 C 
HETATM   16  N   UNL     1     -42.866  56.320 -60.490  1.00  0.00    -0.133 NA
HETATM   17  O   UNL     1     -44.167  55.893 -60.662  1.00  0.00    -0.217 OA
HETATM   18  C   UNL     1     -45.009  56.724 -59.997  1.00  0.00     0.085 A 
HETATM   19  C   UNL     1     -46.447  56.409 -60.086  1.00  0.00     0.079 C 
ENDBRANCH  12  13
ENDBRANCH  11  12
ENDBRANCH   7  11
ENDBRANCH   1   5
BRANCH   2  20
HETATM   20  C   UNL     1     -43.378  54.055 -51.933  1.00  0.00     0.162 C 
BRANCH  20  21
HETATM   21  C   UNL     1     -42.119  54.183 -51.113  1.00  0.00    -0.033 A 
HETATM   22  C   UNL     1     -40.905  53.529 -51.426  1.00  0.00    -0.025 A 
HETATM   23  C   UNL     1     -39.804  53.689 -50.559  1.00  0.00     0.009 A 
HETATM   24  C   UNL     1     -39.890  54.489 -49.420  1.00  0.00     0.001 A 
HETATM   25  C   UNL     1     -41.078  55.144 -49.123  1.00  0.00     0.001 A 
HETATM   26  C   UNL     1     -42.181  54.991 -49.959  1.00  0.00     0.009 A 
BRANCH  22  27
HETATM   27  C   UNL     1     -40.718  52.678 -52.661  1.00  0.00     0.274 C 
BRANCH  27  28
HETATM   28  N   UNL     1     -39.449  51.851 -52.652  1.00  0.00    -0.067 N 
HETATM   29  H   UNL     1     -38.683  52.480 -52.383  1.00  0.00     0.280 HD
HETATM   30  C   UNL     1     -39.118  51.258 -53.998  1.00  0.00     0.235 C 
HETATM   31  C   UNL     1     -39.856  49.936 -53.994  1.00  0.00     0.029 C 
HETATM   32  C   UNL     1     -39.838  49.472 -52.547  1.00  0.00     0.029 C 
HETATM   33  C   UNL     1     -39.442  50.677 -51.707  1.00  0.00     0.235 C 
ENDBRANCH  27  28
ENDBRANCH  22  27
ENDBRANCH  20  21
ENDBRANCH   2  20
TORSDOF 8
ENDMDL
MODEL 3
REMARK VINA RESULT:      -8.0      3.278      6.099
REMARK  8 active torsions:
REMARK  status: ('A' for Active; 'I' for Inactive)
REMARK    1  A    between atoms: C_7  and  C_8 
REMARK    2  A    between atoms: C_8  and  O_9 
REMARK    3  A    between atoms: O_9  and  C_10 
REMARK    4  A    between atoms: C_12  and  C_13 
REMARK       I    between atoms: C_13  and  N_14 
REMARK    5  A    between atoms: N_14  and  C_15 
REMARK    6  A    between atoms: C_15  and  C_16 
REMARK    7  A    between atoms: C_17  and  C_18 
REMARK    8  A    between atoms: C_18  and  N_19 
ROOT
HETATM    1  C   UNL     1     -43.388  55.081 -54.204  1.00  0.00     0.252 C 
HETATM    2  N   UNL     1     -43.534  55.289 -52.844  1.00  0.00    -0.353 N 
HETATM    3  O   UNL     1     -43.411  53.963 -54.706  1.00  0.00    -0.268 OA
HETATM    4  H   UNL     1     -43.261  56.197 -52.485  1.00  0.00     0.163 HD
ENDROOT
BRANCH   1   5
HETATM    5  C   UNL     1     -43.109  56.287 -55.021  1.00  0.00     0.034 A 
HETATM    6  C   UNL     1     -43.033  56.145 -56.411  1.00  0.00     0.053 A 
HETATM    7  C   UNL     1     -42.711  57.238 -57.219  1.00  0.00     0.070 A 
HETATM    8  C   UNL     1     -42.514  58.490 -56.631  1.00  0.00     0.037 A 
HETATM    9  C   UNL     1     -42.612  58.638 -55.242  1.00  0.00     0.004 A 
HETATM   10  C   UNL     1     -42.901  57.538 -54.433  1.00  0.00     0.017 A 
BRANCH   7  11
HETATM   11  O   UNL     1     -42.618  56.951 -58.551  1.00  0.00    -0.346 OA
BRANCH  11  12
HETATM   12  C   UNL     1     -43.372  57.761 -59.457  1.00  0.00     0.219 C 
BRANCH  12  13
HETATM   13  C   UNL     1     -44.795  57.333 -59.467  1.00  0.00     0.024 A 
HETATM   14  C   UNL     1     -45.909  57.934 -58.821  1.00  0.00     0.069 A 
HETATM   15  C   UNL     1     -45.938  59.143 -57.965  1.00  0.00     0.073 C 
HETATM   16  N   UNL     1     -47.040  57.264 -59.070  1.00  0.00    -0.133 NA
HETATM   17  O   UNL     1     -46.680  56.201 -59.873  1.00  0.00    -0.217 OA
HETATM   18  C   UNL     1     -45.343  56.241 -60.106  1.00  0.00     0.085 A 
HETATM   19  C   UNL     1     -44.791  55.163 -60.948  1.00  0.00     0.079 C 
ENDBRANCH  12  13
ENDBRANCH  11  12
ENDBRANCH   7  11
ENDBRANCH   1   5
BRANCH   2  20
HETATM   20  C   UNL     1     -43.399  54.150 -51.970  1.00  0.00     0.162 C 
BRANCH  20  21
HETATM   21  C   UNL     1     -42.148  54.222 -51.131  1.00  0.00    -0.033 A 
HETATM   22  C   UNL     1     -40.968  53.494 -51.413  1.00  0.00    -0.025 A 
HETATM   23  C   UNL     1     -39.874  53.608 -50.530  1.00  0.00     0.009 A 
HETATM   24  C   UNL     1     -39.933  54.432 -49.406  1.00  0.00     0.001 A 
HETATM   25  C   UNL     1     -41.086  55.157 -49.141  1.00  0.00     0.001 A 
HETATM   26  C   UNL     1     -42.183  55.052 -49.993  1.00  0.00     0.009 A 
BRANCH  22  27
HETATM   27  C   UNL     1     -40.809  52.613 -52.630  1.00  0.00     0.274 C 
BRANCH  27  28
HETATM   28  N   UNL     1     -39.500  51.853 -52.673  1.00  0.00    -0.067 N 
HETATM   29  H   UNL     1     -38.763  52.509 -52.388  1.00  0.00     0.280 HD
HETATM   30  C   UNL     1     -39.161  51.332 -54.047  1.00  0.00     0.235 C 
HETATM   31  C   UNL     1     -39.830  49.976 -54.087  1.00  0.00     0.029 C 
HETATM   32  C   UNL     1     -39.766  49.455 -52.660  1.00  0.00     0.029 C 
HETATM   33  C   UNL     1     -39.418  50.643 -51.777  1.00  0.00     0.235 C 
ENDBRANCH  27  28
ENDBRANCH  22  27
ENDBRANCH  20  21
ENDBRANCH   2  20
TORSDOF 8
ENDMDL
MODEL 4
REMARK VINA RESULT:      -8.0      2.847      5.634
REMARK  8 active torsions:
REMARK  status: ('A' for Active; 'I' for Inactive)
REMARK    1  A    between atoms: C_7  and  C_8 
REMARK    2  A    between atoms: C_8  and  O_9 
REMARK    3  A    between atoms: O_9  and  C_10 
REMARK    4  A    between atoms: C_12  and  C_13 
REMARK       I    between atoms: C_13  and  N_14 
REMARK    5  A    between atoms: N_14  and  C_15 
REMARK    6  A    between atoms: C_15  and  C_16 
REMARK    7  A    between atoms: C_17  and  C_18 
REMARK    8  A    between atoms: C_18  and  N_19 
ROOT
HETATM    1  C   UNL     1     -44.226  56.631 -52.048  1.00  0.00     0.252 C 
HETATM    2  N   UNL     1     -43.433  55.565 -52.436  1.00  0.00    -0.353 N 
HETATM    3  O   UNL     1     -44.684  56.733 -50.916  1.00  0.00    -0.268 OA
HETATM    4  H   UNL     1     -43.302  55.428 -53.432  1.00  0.00     0.163 HD
ENDROOT
BRANCH   1   5
HETATM    5  C   UNL     1     -44.571  57.607 -53.110  1.00  0.00     0.034 A 
HETATM    6  C   UNL     1     -44.518  57.185 -54.443  1.00  0.00     0.053 A 
HETATM    7  C   UNL     1     -44.772  58.083 -55.483  1.00  0.00     0.070 A 
HETATM    8  C   UNL     1     -45.129  59.398 -55.178  1.00  0.00     0.037 A 
HETATM    9  C   UNL     1     -45.204  59.817 -53.844  1.00  0.00     0.004 A 
HETATM   10  C   UNL     1     -44.918  58.927 -52.808  1.00  0.00     0.017 A 
BRANCH   7  11
HETATM   11  O   UNL     1     -44.635  57.555 -56.735  1.00  0.00    -0.346 OA
BRANCH  11  12
HETATM   12  C   UNL     1     -43.542  56.663 -56.961  1.00  0.00     0.219 C 
BRANCH  12  13
HETATM   13  C   UNL     1     -43.154  56.679 -58.396  1.00  0.00     0.024 A 
HETATM   14  C   UNL     1     -42.376  57.640 -59.096  1.00  0.00     0.069 A 
HETATM   15  C   UNL     1     -41.754  58.880 -58.576  1.00  0.00     0.073 C 
HETATM   16  N   UNL     1     -42.230  57.309 -60.384  1.00  0.00    -0.133 NA
HETATM   17  O   UNL     1     -42.926  56.129 -60.551  1.00  0.00    -0.217 OA
HETATM   18  C   UNL     1     -43.477  55.756 -59.368  1.00  0.00     0.085 A 
HETATM   19  C   UNL     1     -44.267  54.510 -59.376  1.00  0.00     0.079 C 
ENDBRANCH  12  13
ENDBRANCH  11  12
ENDBRANCH   7  11
ENDBRANCH   1   5
BRANCH   2  20
HETATM   20  C   UNL     1     -43.404  54.403 -51.585  1.00  0.00     0.162 C 
BRANCH  20  21
HETATM   21  C   UNL     1     -42.109  54.290 -50.820  1.00  0.00    -0.033 A 
HETATM   22  C   UNL     1     -40.994  53.542 -51.264  1.00  0.00    -0.025 A 
HETATM   23  C   UNL     1     -39.851  53.475 -50.440  1.00  0.00     0.009 A 
HETATM   24  C   UNL     1     -39.800  54.141 -49.217  1.00  0.00     0.001 A 
HETATM   25  C   UNL     1     -40.889  54.888 -48.790  1.00  0.00     0.001 A 
HETATM   26  C   UNL     1     -42.033  54.960 -49.582  1.00  0.00     0.009 A 
BRANCH  22  27
HETATM   27  C   UNL     1     -40.954  52.826 -52.594  1.00  0.00     0.274 C 
BRANCH  27  28
HETATM   28  N   UNL     1     -39.657  52.089 -52.857  1.00  0.00    -0.067 N 
HETATM   29  H   UNL     1     -38.894  52.737 -52.632  1.00  0.00     0.280 HD
HETATM   30  C   UNL     1     -39.500  51.659 -54.294  1.00  0.00     0.235 C 
HETATM   31  C   UNL     1     -40.160  50.298 -54.331  1.00  0.00     0.029 C 
HETATM   32  C   UNL     1     -39.903  49.691 -52.960  1.00  0.00     0.029 C 
HETATM   33  C   UNL     1     -39.448  50.828 -52.058  1.00  0.00     0.235 C 
ENDBRANCH  27  28
ENDBRANCH  22  27
ENDBRANCH  20  21
ENDBRANCH   2  20
TORSDOF 8
ENDMDL
MODEL 5
REMARK VINA RESULT:      -7.8      3.292      8.057
REMARK  8 active torsions:
REMARK  status: ('A' for Active; 'I' for Inactive)
REMARK    1  A    between atoms: C_7  and  C_8 
REMARK    2  A    between atoms: C_8  and  O_9 
REMARK    3  A    between atoms: O_9  and  C_10 
REMARK    4  A    between atoms: C_12  and  C_13 
REMARK       I    between atoms: C_13  and  N_14 
REMARK    5  A    between atoms: N_14  and  C_15 
REMARK    6  A    between atoms: C_15  and  C_16 
REMARK    7  A    between atoms: C_17  and  C_18 
REMARK    8  A    between atoms: C_18  and  N_19 
ROOT
HETATM    1  C   UNL     1     -43.376  54.809 -54.136  1.00  0.00     0.252 C 
HETATM    2  N   UNL     1     -42.414  55.050 -55.101  1.00  0.00    -0.353 N 
HETATM    3  O   UNL     1     -44.557  54.633 -54.412  1.00  0.00    -0.268 OA
HETATM    4  H   UNL     1     -41.526  55.424 -54.784  1.00  0.00     0.163 HD
ENDROOT
BRANCH   1   5
HETATM    5  C   UNL     1     -42.913  54.866 -52.727  1.00  0.00     0.034 A 
HETATM    6  C   UNL     1     -42.040  53.870 -52.275  1.00  0.00     0.053 A 
HETATM    7  C   UNL     1     -41.624  53.843 -50.941  1.00  0.00     0.070 A 
HETATM    8  C   UNL     1     -42.051  54.850 -50.071  1.00  0.00     0.037 A 
HETATM    9  C   UNL     1     -42.907  55.859 -50.528  1.00  0.00     0.004 A 
HETATM   10  C   UNL     1     -43.347  55.866 -51.852  1.00  0.00     0.017 A 
BRANCH   7  11
HETATM   11  O   UNL     1     -40.816  52.791 -50.619  1.00  0.00    -0.346 OA
BRANCH  11  12
HETATM   12  C   UNL     1     -39.586  52.658 -51.335  1.00  0.00     0.219 C 
BRANCH  12  13
HETATM   13  C   UNL     1     -39.642  51.481 -52.241  1.00  0.00     0.024 A 
HETATM   14  C   UNL     1     -39.565  50.101 -51.912  1.00  0.00     0.069 A 
HETATM   15  C   UNL     1     -39.402  49.478 -50.577  1.00  0.00     0.073 C 
HETATM   16  N   UNL     1     -39.662  49.331 -53.001  1.00  0.00    -0.133 NA
HETATM   17  O   UNL     1     -39.790  50.199 -54.066  1.00  0.00    -0.217 OA
HETATM   18  C   UNL     1     -39.775  51.479 -53.613  1.00  0.00     0.085 A 
HETATM   19  C   UNL     1     -39.895  52.537 -54.633  1.00  0.00     0.079 C 
ENDBRANCH  12  13
ENDBRANCH  11  12
ENDBRANCH   7  11
ENDBRANCH   1   5
BRANCH   2  20
HETATM   20  C   UNL     1     -42.862  55.408 -56.423  1.00  0.00     0.162 C 
BRANCH  20  21
HETATM   21  C   UNL     1     -42.706  56.882 -56.697  1.00  0.00    -0.033 A 
HETATM   22  C   UNL     1     -42.854  57.465 -57.977  1.00  0.00    -0.025 A 
HETATM   23  C   UNL     1     -42.642  58.853 -58.120  1.00  0.00     0.009 A 
HETATM   24  C   UNL     1     -42.309  59.650 -57.026  1.00  0.00     0.001 A 
HETATM   25  C   UNL     1     -42.180  59.079 -55.768  1.00  0.00     0.001 A 
HETATM   26  C   UNL     1     -42.375  57.709 -55.605  1.00  0.00     0.009 A 
BRANCH  22  27
HETATM   27  C   UNL     1     -43.253  56.678 -59.205  1.00  0.00     0.274 C 
BRANCH  27  28
HETATM   28  N   UNL     1     -44.549  55.910 -59.049  1.00  0.00    -0.067 N 
HETATM   29  H   UNL     1     -44.629  55.656 -58.058  1.00  0.00     0.280 HD
HETATM   30  C   UNL     1     -44.589  54.643 -59.864  1.00  0.00     0.235 C 
HETATM   31  C   UNL     1     -45.139  55.096 -61.199  1.00  0.00     0.029 C 
HETATM   32  C   UNL     1     -46.096  56.232 -60.873  1.00  0.00     0.029 C 
HETATM   33  C   UNL     1     -45.800  56.654 -59.442  1.00  0.00     0.235 C 
ENDBRANCH  27  28
ENDBRANCH  22  27
ENDBRANCH  20  21
ENDBRANCH   2  20
TORSDOF 8
ENDMDL
MODEL 6
REMARK VINA RESULT:      -7.8      3.316      6.930
REMARK  8 active torsions:
REMARK  status: ('A' for Active; 'I' for Inactive)
REMARK    1  A    between atoms: C_7  and  C_8 
REMARK    2  A    between atoms: C_8  and  O_9 
REMARK    3  A    between atoms: O_9  and  C_10 
REMARK    4  A    between atoms: C_12  and  C_13 
REMARK       I    between atoms: C_13  and  N_14 
REMARK    5  A    between atoms: N_14  and  C_15 
REMARK    6  A    between atoms: C_15  and  C_16 
REMARK    7  A    between atoms: C_17  and  C_18 
REMARK    8  A    between atoms: C_18  and  N_19 
ROOT
HETATM    1  C   UNL     1     -42.410  55.959 -56.266  1.00  0.00     0.252 C 
HETATM    2  N   UNL     1     -43.015  55.402 -57.379  1.00  0.00    -0.353 N 
HETATM    3  O   UNL     1     -42.110  57.145 -56.202  1.00  0.00    -0.268 OA
HETATM    4  H   UNL     1     -43.005  54.391 -57.452  1.00  0.00     0.163 HD
ENDROOT
BRANCH   1   5
HETATM    5  C   UNL     1     -42.057  55.015 -55.177  1.00  0.00     0.034 A 
HETATM    6  C   UNL     1     -42.968  54.839 -54.130  1.00  0.00     0.053 A 
HETATM    7  C   UNL     1     -42.656  54.009 -53.050  1.00  0.00     0.070 A 
HETATM    8  C   UNL     1     -41.443  53.317 -53.047  1.00  0.00     0.037 A 
HETATM    9  C   UNL     1     -40.540  53.475 -54.105  1.00  0.00     0.004 A 
HETATM   10  C   UNL     1     -40.839  54.329 -55.167  1.00  0.00     0.017 A 
BRANCH   7  11
HETATM   11  O   UNL     1     -43.609  53.966 -52.072  1.00  0.00    -0.346 OA
BRANCH  11  12
HETATM   12  C   UNL     1     -43.204  54.283 -50.739  1.00  0.00     0.219 C 
BRANCH  12  13
HETATM   13  C   UNL     1     -42.550  55.617 -50.703  1.00  0.00     0.024 A 
HETATM   14  C   UNL     1     -41.211  55.941 -50.356  1.00  0.00     0.069 A 
HETATM   15  C   UNL     1     -40.120  55.032 -49.933  1.00  0.00     0.073 C 
HETATM   16  N   UNL     1     -40.985  57.256 -50.450  1.00  0.00    -0.133 NA
HETATM   17  O   UNL     1     -42.181  57.817 -50.848  1.00  0.00    -0.217 OA
HETATM   18  C   UNL     1     -43.113  56.840 -50.996  1.00  0.00     0.085 A 
HETATM   19  C   UNL     1     -44.459  57.276 -51.413  1.00  0.00     0.079 C 
ENDBRANCH  12  13
ENDBRANCH  11  12
ENDBRANCH   7  11
ENDBRANCH   1   5
BRANCH   2  20
HETATM   20  C   UNL     1     -43.009  56.167 -58.601  1.00  0.00     0.162 C 
BRANCH  20  21
HETATM   21  C   UNL     1     -44.396  56.352 -59.163  1.00  0.00    -0.033 A 
HETATM   22  C   UNL     1     -45.248  57.427 -58.820  1.00  0.00    -0.025 A 
HETATM   23  C   UNL     1     -46.543  57.472 -59.378  1.00  0.00     0.009 A 
HETATM   24  C   UNL     1     -46.982  56.492 -60.267  1.00  0.00     0.001 A 
HETATM   25  C   UNL     1     -46.139  55.446 -60.615  1.00  0.00     0.001 A 
HETATM   26  C   UNL     1     -44.860  55.376 -60.068  1.00  0.00     0.009 A 
BRANCH  22  27
HETATM   27  C   UNL     1     -44.834  58.550 -57.897  1.00  0.00     0.274 C 
BRANCH  27  28
HETATM   28  N   UNL     1     -45.789  58.785 -56.745  1.00  0.00    -0.067 N 
HETATM   29  H   UNL     1     -46.722  58.501 -57.067  1.00  0.00     0.280 HD
HETATM   30  C   UNL     1     -45.859  60.229 -56.318  1.00  0.00     0.235 C 
HETATM   31  C   UNL     1     -44.755  60.349 -55.290  1.00  0.00     0.029 C 
HETATM   32  C   UNL     1     -44.699  58.994 -54.603  1.00  0.00     0.029 C 
HETATM   33  C   UNL     1     -45.483  58.028 -55.478  1.00  0.00     0.235 C 
ENDBRANCH  27  28
ENDBRANCH  22  27
ENDBRANCH  20  21
ENDBRANCH   2  20
TORSDOF 8
ENDMDL
MODEL 7
REMARK VINA RESULT:      -7.7      3.847      8.242
REMARK  8 active torsions:
REMARK  status: ('A' for Active; 'I' for Inactive)
REMARK    1  A    between atoms: C_7  and  C_8 
REMARK    2  A    between atoms: C_8  and  O_9 
REMARK    3  A    between atoms: O_9  and  C_10 
REMARK    4  A    between atoms: C_12  and  C_13 
REMARK       I    between atoms: C_13  and  N_14 
REMARK    5  A    between atoms: N_14  and  C_15 
REMARK    6  A    between atoms: C_15  and  C_16 
REMARK    7  A    between atoms: C_17  and  C_18 
REMARK    8  A    between atoms: C_18  and  N_19 
ROOT
HETATM    1  C   UNL     1     -42.465  57.484 -56.077  1.00  0.00     0.252 C 
HETATM    2  N   UNL     1     -42.485  56.591 -57.134  1.00  0.00    -0.353 N 
HETATM    3  O   UNL     1     -42.696  58.679 -56.220  1.00  0.00    -0.268 OA
HETATM    4  H   UNL     1     -42.050  55.688 -56.982  1.00  0.00     0.163 HD
ENDROOT
BRANCH   1   5
HETATM    5  C   UNL     1     -42.056  56.930 -54.763  1.00  0.00     0.034 A 
HETATM    6  C   UNL     1     -41.912  55.544 -54.644  1.00  0.00     0.053 A 
HETATM    7  C   UNL     1     -41.590  54.967 -53.412  1.00  0.00     0.070 A 
HETATM    8  C   UNL     1     -41.364  55.794 -52.308  1.00  0.00     0.037 A 
HETATM    9  C   UNL     1     -41.487  57.182 -52.432  1.00  0.00     0.004 A 
HETATM   10  C   UNL     1     -41.840  57.754 -53.655  1.00  0.00     0.017 A 
BRANCH   7  11
HETATM   11  O   UNL     1     -41.531  53.603 -53.421  1.00  0.00    -0.346 OA
BRANCH  11  12
HETATM   12  C   UNL     1     -40.305  52.996 -53.836  1.00  0.00     0.219 C 
BRANCH  12  13
HETATM   13  C   UNL     1     -39.985  51.836 -52.964  1.00  0.00     0.024 A 
HETATM   14  C   UNL     1     -39.852  51.796 -51.549  1.00  0.00     0.069 A 
HETATM   15  C   UNL     1     -39.995  52.906 -50.577  1.00  0.00     0.073 C 
HETATM   16  N   UNL     1     -39.565  50.563 -51.118  1.00  0.00    -0.133 NA
HETATM   17  O   UNL     1     -39.489  49.776 -52.249  1.00  0.00    -0.217 OA
HETATM   18  C   UNL     1     -39.737  50.535 -53.347  1.00  0.00     0.085 A 
HETATM   19  C   UNL     1     -39.687  49.842 -54.648  1.00  0.00     0.079 C 
ENDBRANCH  12  13
ENDBRANCH  11  12
ENDBRANCH   7  11
ENDBRANCH   1   5
BRANCH   2  20
HETATM   20  C   UNL     1     -42.471  57.129 -58.470  1.00  0.00     0.162 C 
BRANCH  20  21
HETATM   21  C   UNL     1     -43.658  56.670 -59.281  1.00  0.00    -0.033 A 
HETATM   22  C   UNL     1     -44.720  57.519 -59.671  1.00  0.00    -0.025 A 
HETATM   23  C   UNL     1     -45.800  56.966 -60.392  1.00  0.00     0.009 A 
HETATM   24  C   UNL     1     -45.826  55.615 -60.735  1.00  0.00     0.001 A 
HETATM   25  C   UNL     1     -44.774  54.788 -60.365  1.00  0.00     0.001 A 
HETATM   26  C   UNL     1     -43.703  55.309 -59.644  1.00  0.00     0.009 A 
BRANCH  22  27
HETATM   27  C   UNL     1     -44.749  59.000 -59.375  1.00  0.00     0.274 C 
BRANCH  27  28
HETATM   28  N   UNL     1     -45.119  59.335 -57.944  1.00  0.00    -0.067 N 
HETATM   29  H   UNL     1     -44.286  59.162 -57.371  1.00  0.00     0.280 HD
HETATM   30  C   UNL     1     -46.244  58.484 -57.409  1.00  0.00     0.235 C 
HETATM   31  C   UNL     1     -47.487  59.252 -57.801  1.00  0.00     0.029 C 
HETATM   32  C   UNL     1     -47.087  60.718 -57.747  1.00  0.00     0.029 C 
HETATM   33  C   UNL     1     -45.567  60.754 -57.701  1.00  0.00     0.235 C 
ENDBRANCH  27  28
ENDBRANCH  22  27
ENDBRANCH  20  21
ENDBRANCH   2  20
TORSDOF 8
ENDMDL
MODEL 8
REMARK VINA RESULT:      -7.7      4.015      5.410
REMARK  8 active torsions:
REMARK  status: ('A' for Active; 'I' for Inactive)
REMARK    1  A    between atoms: C_7  and  C_8 
REMARK    2  A    between atoms: C_8  and  O_9 
REMARK    3  A    between atoms: O_9  and  C_10 
REMARK    4  A    between atoms: C_12  and  C_13 
REMARK       I    between atoms: C_13  and  N_14 
REMARK    5  A    between atoms: N_14  and  C_15 
REMARK    6  A    between atoms: C_15  and  C_16 
REMARK    7  A    between atoms: C_17  and  C_18 
REMARK    8  A    between atoms: C_18  and  N_19 
ROOT
HETATM    1  C   UNL     1     -42.933  55.847 -56.453  1.00  0.00     0.252 C 
HETATM    2  N   UNL     1     -43.317  54.652 -55.870  1.00  0.00    -0.353 N 
HETATM    3  O   UNL     1     -42.491  56.786 -55.802  1.00  0.00    -0.268 OA
HETATM    4  H   UNL     1     -43.892  54.031 -56.427  1.00  0.00     0.163 HD
ENDROOT
BRANCH   1   5
HETATM    5  C   UNL     1     -43.173  55.965 -57.912  1.00  0.00     0.034 A 
HETATM    6  C   UNL     1     -42.719  57.115 -58.568  1.00  0.00     0.053 A 
HETATM    7  C   UNL     1     -42.975  57.302 -59.930  1.00  0.00     0.070 A 
HETATM    8  C   UNL     1     -43.646  56.306 -60.643  1.00  0.00     0.037 A 
HETATM    9  C   UNL     1     -44.081  55.146 -59.992  1.00  0.00     0.004 A 
HETATM   10  C   UNL     1     -43.853  54.975 -58.626  1.00  0.00     0.017 A 
BRANCH   7  11
HETATM   11  O   UNL     1     -42.524  58.489 -60.434  1.00  0.00    -0.346 OA
BRANCH  11  12
HETATM   12  C   UNL     1     -43.107  59.690 -59.921  1.00  0.00     0.219 C 
BRANCH  12  13
HETATM   13  C   UNL     1     -42.043  60.630 -59.482  1.00  0.00     0.024 A 
HETATM   14  C   UNL     1     -41.543  60.858 -58.171  1.00  0.00     0.069 A 
HETATM   15  C   UNL     1     -41.958  60.218 -56.900  1.00  0.00     0.073 C 
HETATM   16  N   UNL     1     -40.574  61.780 -58.169  1.00  0.00    -0.133 NA
HETATM   17  O   UNL     1     -40.434  62.183 -59.481  1.00  0.00    -0.217 OA
HETATM   18  C   UNL     1     -41.311  61.500 -60.261  1.00  0.00     0.085 A 
HETATM   19  C   UNL     1     -41.295  61.821 -61.701  1.00  0.00     0.079 C 
ENDBRANCH  12  13
ENDBRANCH  11  12
ENDBRANCH   7  11
ENDBRANCH   1   5
BRANCH   2  20
HETATM   20  C   UNL     1     -43.489  54.627 -54.439  1.00  0.00     0.162 C 
BRANCH  20  21
HETATM   21  C   UNL     1     -42.346  53.936 -53.740  1.00  0.00    -0.033 A 
HETATM   22  C   UNL     1     -42.204  53.873 -52.335  1.00  0.00    -0.025 A 
HETATM   23  C   UNL     1     -41.067  53.236 -51.794  1.00  0.00     0.009 A 
HETATM   24  C   UNL     1     -40.102  52.658 -52.618  1.00  0.00     0.001 A 
HETATM   25  C   UNL     1     -40.251  52.707 -53.997  1.00  0.00     0.001 A 
HETATM   26  C   UNL     1     -41.360  53.340 -54.553  1.00  0.00     0.009 A 
BRANCH  22  27
HETATM   27  C   UNL     1     -43.225  54.437 -51.373  1.00  0.00     0.274 C 
BRANCH  27  28
HETATM   28  N   UNL     1     -42.825  55.763 -50.759  1.00  0.00    -0.067 N 
HETATM   29  H   UNL     1     -42.714  55.605 -49.751  1.00  0.00     0.280 HD
HETATM   30  C   UNL     1     -43.860  56.842 -50.954  1.00  0.00     0.235 C 
HETATM   31  C   UNL     1     -43.481  57.462 -52.282  1.00  0.00     0.029 C 
HETATM   32  C   UNL     1     -41.966  57.356 -52.355  1.00  0.00     0.029 C 
HETATM   33  C   UNL     1     -41.545  56.365 -51.280  1.00  0.00     0.235 C 
ENDBRANCH  27  28
ENDBRANCH  22  27
ENDBRANCH  20  21
ENDBRANCH   2  20
TORSDOF 8
ENDMDL
MODEL 9
REMARK VINA RESULT:      -7.7      3.396      7.975
REMARK  8 active torsions:
REMARK  status: ('A' for Active; 'I' for Inactive)
REMARK    1  A    between atoms: C_7  and  C_8 
REMARK    2  A    between atoms: C_8  and  O_9 
REMARK    3  A    between atoms: O_9  and  C_10 
REMARK    4  A    between atoms: C_12  and  C_13 
REMARK       I    between atoms: C_13  and  N_14 
REMARK    5  A    between atoms: N_14  and  C_15 
REMARK    6  A    between atoms: C_15  and  C_16 
REMARK    7  A    between atoms: C_17  and  C_18 
REMARK    8  A    between atoms: C_18  and  N_19 
ROOT
HETATM    1  C   UNL     1     -43.166  56.754 -53.858  1.00  0.00     0.252 C 
HETATM    2  N   UNL     1     -42.438  57.257 -54.923  1.00  0.00    -0.353 N 
HETATM    3  O   UNL     1     -44.390  56.702 -53.862  1.00  0.00    -0.268 OA
HETATM    4  H   UNL     1     -41.468  57.491 -54.748  1.00  0.00     0.163 HD
ENDROOT
BRANCH   1   5
HETATM    5  C   UNL     1     -42.381  56.359 -52.662  1.00  0.00     0.034 A 
HETATM    6  C   UNL     1     -42.070  55.006 -52.489  1.00  0.00     0.053 A 
HETATM    7  C   UNL     1     -41.387  54.575 -51.349  1.00  0.00     0.070 A 
HETATM    8  C   UNL     1     -40.973  55.516 -50.403  1.00  0.00     0.037 A 
HETATM    9  C   UNL     1     -41.264  56.873 -50.586  1.00  0.00     0.004 A 
HETATM   10  C   UNL     1     -41.974  57.297 -51.710  1.00  0.00     0.017 A 
BRANCH   7  11
HETATM   11  O   UNL     1     -41.194  53.225 -51.279  1.00  0.00    -0.346 OA
BRANCH  11  12
HETATM   12  C   UNL     1     -39.858  52.738 -51.429  1.00  0.00     0.219 C 
BRANCH  12  13
HETATM   13  C   UNL     1     -39.816  51.660 -52.452  1.00  0.00     0.024 A 
HETATM   14  C   UNL     1     -39.637  50.263 -52.264  1.00  0.00     0.069 A 
HETATM   15  C   UNL     1     -39.442  49.519 -50.997  1.00  0.00     0.073 C 
HETATM   16  N   UNL     1     -39.664  49.605 -53.428  1.00  0.00    -0.133 NA
HETATM   17  O   UNL     1     -39.846  50.566 -54.401  1.00  0.00    -0.217 OA
HETATM   18  C   UNL     1     -39.933  51.790 -53.819  1.00  0.00     0.085 A 
HETATM   19  C   UNL     1     -40.122  52.936 -54.728  1.00  0.00     0.079 C 
ENDBRANCH  12  13
ENDBRANCH  11  12
ENDBRANCH   7  11
ENDBRANCH   1   5
BRANCH   2  20
HETATM   20  C   UNL     1     -43.146  58.018 -55.921  1.00  0.00     0.162 C 
BRANCH  20  21
HETATM   21  C   UNL     1     -42.802  57.578 -57.322  1.00  0.00    -0.033 A 
HETATM   22  C   UNL     1     -42.142  58.399 -58.265  1.00  0.00    -0.025 A 
HETATM   23  C   UNL     1     -41.912  57.893 -59.562  1.00  0.00     0.009 A 
HETATM   24  C   UNL     1     -42.306  56.603 -59.916  1.00  0.00     0.001 A 
HETATM   25  C   UNL     1     -42.938  55.793 -58.983  1.00  0.00     0.001 A 
HETATM   26  C   UNL     1     -43.186  56.275 -57.700  1.00  0.00     0.009 A 
BRANCH  22  27
HETATM   27  C   UNL     1     -41.648  59.791 -57.949  1.00  0.00     0.274 C 
BRANCH  27  28
HETATM   28  N   UNL     1     -42.516  60.897 -58.514  1.00  0.00    -0.067 N 
HETATM   29  H   UNL     1     -42.240  61.022 -59.495  1.00  0.00     0.280 HD
HETATM   30  C   UNL     1     -42.336  62.214 -57.803  1.00  0.00     0.235 C 
HETATM   31  C   UNL     1     -43.340  62.147 -56.672  1.00  0.00     0.029 C 
HETATM   32  C   UNL     1     -44.503  61.333 -57.217  1.00  0.00     0.029 C 
HETATM   33  C   UNL     1     -44.001  60.643 -58.477  1.00  0.00     0.235 C 
ENDBRANCH  27  28
ENDBRANCH  22  27
ENDBRANCH  20  21
ENDBRANCH   2  20
TORSDOF 8
ENDMDL
MODEL 10
REMARK VINA RESULT:      -7.7      3.105      8.380
REMARK  8 active torsions:
REMARK  status: ('A' for Active; 'I' for Inactive)
REMARK    1  A    between atoms: C_7  and  C_8 
REMARK    2  A    between atoms: C_8  and  O_9 
REMARK    3  A    between atoms: O_9  and  C_10 
REMARK    4  A    between atoms: C_12  and  C_13 
REMARK       I    between atoms: C_13  and  N_14 
REMARK    5  A    between atoms: N_14  and  C_15 
REMARK    6  A    between atoms: C_15  and  C_16 
REMARK    7  A    between atoms: C_17  and  C_18 
REMARK    8  A    between atoms: C_18  and  N_19 
ROOT
HETATM    1  C   UNL     1     -43.207  56.435 -53.705  1.00  0.00     0.252 C 
HETATM    2  N   UNL     1     -44.067  57.516 -53.616  1.00  0.00    -0.353 N 
HETATM    3  O   UNL     1     -43.148  55.720 -54.698  1.00  0.00    -0.268 OA
HETATM    4  H   UNL     1     -44.233  57.899 -52.692  1.00  0.00     0.163 HD
ENDROOT
BRANCH   1   5
HETATM    5  C   UNL     1     -42.417  56.131 -52.487  1.00  0.00     0.034 A 
HETATM    6  C   UNL     1     -41.986  54.815 -52.287  1.00  0.00     0.053 A 
HETATM    7  C   UNL     1     -41.292  54.464 -51.126  1.00  0.00     0.070 A 
HETATM    8  C   UNL     1     -40.990  55.451 -50.185  1.00  0.00     0.037 A 
HETATM    9  C   UNL     1     -41.401  56.772 -50.394  1.00  0.00     0.004 A 
HETATM   10  C   UNL     1     -42.122  57.115 -51.539  1.00  0.00     0.017 A 
BRANCH   7  11
HETATM   11  O   UNL     1     -40.976  53.138 -51.032  1.00  0.00    -0.346 OA
BRANCH  11  12
HETATM   12  C   UNL     1     -39.664  52.741 -51.437  1.00  0.00     0.219 C 
BRANCH  12  13
HETATM   13  C   UNL     1     -39.742  51.594 -52.379  1.00  0.00     0.024 A 
HETATM   14  C   UNL     1     -39.959  51.610 -53.784  1.00  0.00     0.069 A 
HETATM   15  C   UNL     1     -40.169  52.778 -54.672  1.00  0.00     0.073 C 
HETATM   16  N   UNL     1     -39.956  50.374 -54.294  1.00  0.00    -0.133 NA
HETATM   17  O   UNL     1     -39.752  49.525 -53.226  1.00  0.00    -0.217 OA
HETATM   18  C   UNL     1     -39.627  50.252 -52.086  1.00  0.00     0.085 A 
HETATM   19  C   UNL     1     -39.410  49.489 -50.842  1.00  0.00     0.079 C 
ENDBRANCH  12  13
ENDBRANCH  11  12
ENDBRANCH   7  11
ENDBRANCH   1   5
BRANCH   2  20
HETATM   20  C   UNL     1     -45.129  57.613 -54.585  1.00  0.00     0.162 C 
BRANCH  20  21
HETATM   21  C   UNL     1     -45.070  58.901 -55.368  1.00  0.00    -0.033 A 
HETATM   22  C   UNL     1     -44.859  58.965 -56.765  1.00  0.00    -0.025 A 
HETATM   23  C   UNL     1     -44.780  60.231 -57.382  1.00  0.00     0.009 A 
HETATM   24  C   UNL     1     -44.922  61.406 -56.644  1.00  0.00     0.001 A 
HETATM   25  C   UNL     1     -45.145  61.340 -55.276  1.00  0.00     0.001 A 
HETATM   26  C   UNL     1     -45.216  60.101 -54.644  1.00  0.00     0.009 A 
BRANCH  22  27
HETATM   27  C   UNL     1     -44.737  57.739 -57.641  1.00  0.00     0.274 C 
BRANCH  27  28
HETATM   28  N   UNL     1     -43.388  57.054 -57.555  1.00  0.00    -0.067 N 
HETATM   29  H   UNL     1     -43.211  56.866 -56.562  1.00  0.00     0.280 HD
HETATM   30  C   UNL     1     -42.258  57.901 -58.082  1.00  0.00     0.235 C 
HETATM   31  C   UNL     1     -42.219  57.563 -59.557  1.00  0.00     0.029 C 
HETATM   32  C   UNL     1     -42.643  56.105 -59.645  1.00  0.00     0.029 C 
HETATM   33  C   UNL     1     -43.269  55.751 -58.304  1.00  0.00     0.235 C 
ENDBRANCH  27  28
ENDBRANCH  22  27
ENDBRANCH  20  21
ENDBRANCH   2  20
TORSDOF 8
ENDMDL
