MODEL 1
REMARK VINA RESULT:      -7.7      0.000      0.000
REMARK  6 active torsions:
REMARK  status: ('A' for Active; 'I' for Inactive)
REMARK    1  A    between atoms: C_9  and  C_10 
REMARK       I    between atoms: C_10  and  N_11 
REMARK    2  A    between atoms: N_11  and  C_12 
REMARK    3  A    between atoms: C_12  and  C_13 
REMARK    4  A    between atoms: C_13  and  O_14 
REMARK    5  A    between atoms: C_13  and  C_15 
REMARK    6  A    between atoms: C_18  and  O_19 
ROOT
HETATM    1  C   UNL     1     -44.348  57.372 -51.814  1.00  0.00     0.258 C 
HETATM    2  N   UNL     1     -43.104  56.793 -51.715  1.00  0.00    -0.350 N 
HETATM    3  O   UNL     1     -45.181  57.313 -50.915  1.00  0.00    -0.267 OA
HETATM    4  H   UNL     1     -42.453  56.975 -52.478  1.00  0.00     0.163 HD
ENDROOT
BRANCH   2   5
HETATM    5  C   UNL     1     -42.598  56.127 -50.518  1.00  0.00     0.114 C 
HETATM    6  C   UNL     1     -41.113  56.444 -50.307  1.00  0.00     0.035 C 
BRANCH   5   7
HETATM    7  C   UNL     1     -42.882  54.595 -50.486  1.00  0.00     0.173 C 
BRANCH   7   8
HETATM    8  O   UNL     1     -44.242  54.326 -50.849  1.00  0.00    -0.389 OA
HETATM    9  H   UNL     1     -44.711  55.177 -50.798  1.00  0.00     0.210 HD
ENDBRANCH   7   8
BRANCH   7  10
HETATM   10  C   UNL     1     -41.976  53.828 -51.435  1.00  0.00    -0.028 A 
HETATM   11  C   UNL     1     -40.894  53.091 -50.935  1.00  0.00     0.012 A 
HETATM   12  C   UNL     1     -40.047  52.393 -51.801  1.00  0.00     0.037 A 
HETATM   13  C   UNL     1     -40.273  52.402 -53.177  1.00  0.00     0.068 A 
HETATM   14  C   UNL     1     -41.337  53.144 -53.688  1.00  0.00     0.037 A 
HETATM   15  C   UNL     1     -42.179  53.853 -52.823  1.00  0.00     0.012 A 
BRANCH  13  16
HETATM   16  O   UNL     1     -39.386  51.665 -53.912  1.00  0.00    -0.356 OA
HETATM   17  C   UNL     1     -39.750  50.314 -54.171  1.00  0.00     0.210 C 
ENDBRANCH  13  16
ENDBRANCH   7  10
ENDBRANCH   5   7
ENDBRANCH   2   5
BRANCH   1  18
HETATM   18  C   UNL     1     -44.594  58.092 -53.053  1.00  0.00     0.105 A 
HETATM   19  C   UNL     1     -44.256  57.705 -54.338  1.00  0.00     0.169 A 
HETATM   20  N   UNL     1     -43.626  56.581 -54.810  1.00  0.00    -0.233 NA
HETATM   21  N   UNL     1     -44.680  58.732 -55.188  1.00  0.00    -0.219 N 
HETATM   22  C   UNL     1     -43.445  56.514 -56.098  1.00  0.00     0.035 A 
HETATM   23  C   UNL     1     -42.752  55.301 -56.664  1.00  0.00     0.070 C 
HETATM   24  C   UNL     1     -43.858  57.567 -57.079  1.00  0.00     0.053 A 
HETATM   25  C   UNL     1     -44.470  58.651 -56.572  1.00  0.00     0.036 A 
HETATM   26  C   UNL     1     -44.938  59.789 -57.424  1.00  0.00     0.070 C 
HETATM   27  N   UNL     1     -45.275  59.735 -54.497  1.00  0.00    -0.170 NA
HETATM   28  C   UNL     1     -45.222  59.354 -53.217  1.00  0.00     0.071 A 
HETATM   29  C   UNL     1     -45.787  60.234 -52.160  1.00  0.00     0.073 C 
ENDBRANCH   1  18
TORSDOF 6
ENDMDL
MODEL 2
REMARK VINA RESULT:      -7.6      2.346      3.113
REMARK  6 active torsions:
REMARK  status: ('A' for Active; 'I' for Inactive)
REMARK    1  A    between atoms: C_9  and  C_10 
REMARK       I    between atoms: C_10  and  N_11 
REMARK    2  A    between atoms: N_11  and  C_12 
REMARK    3  A    between atoms: C_12  and  C_13 
REMARK    4  A    between atoms: C_13  and  O_14 
REMARK    5  A    between atoms: C_13  and  C_15 
REMARK    6  A    between atoms: C_18  and  O_19 
ROOT
HETATM    1  C   UNL     1     -43.483  57.460 -54.943  1.00  0.00     0.258 C 
HETATM    2  N   UNL     1     -42.502  56.889 -54.167  1.00  0.00    -0.350 N 
HETATM    3  O   UNL     1     -44.643  57.583 -54.562  1.00  0.00    -0.267 OA
HETATM    4  H   UNL     1     -41.553  56.916 -54.538  1.00  0.00     0.163 HD
ENDROOT
BRANCH   2   5
HETATM    5  C   UNL     1     -42.693  56.449 -52.787  1.00  0.00     0.114 C 
HETATM    6  C   UNL     1     -41.428  56.693 -51.959  1.00  0.00     0.035 C 
BRANCH   5   7
HETATM    7  C   UNL     1     -43.202  54.981 -52.664  1.00  0.00     0.173 C 
BRANCH   7   8
HETATM    8  O   UNL     1     -44.231  54.721 -53.627  1.00  0.00    -0.389 OA
HETATM    9  H   UNL     1     -44.011  53.868 -54.039  1.00  0.00     0.210 HD
ENDBRANCH   7   8
BRANCH   7  10
HETATM   10  C   UNL     1     -42.086  53.971 -52.875  1.00  0.00    -0.028 A 
HETATM   11  C   UNL     1     -41.849  53.440 -54.150  1.00  0.00     0.012 A 
HETATM   12  C   UNL     1     -40.834  52.500 -54.352  1.00  0.00     0.037 A 
HETATM   13  C   UNL     1     -40.027  52.086 -53.293  1.00  0.00     0.068 A 
HETATM   14  C   UNL     1     -40.263  52.595 -52.017  1.00  0.00     0.037 A 
HETATM   15  C   UNL     1     -41.288  53.528 -51.810  1.00  0.00     0.012 A 
BRANCH  13  16
HETATM   16  O   UNL     1     -39.059  51.179 -53.625  1.00  0.00    -0.356 OA
HETATM   17  C   UNL     1     -39.497  50.020 -54.325  1.00  0.00     0.210 C 
ENDBRANCH  13  16
ENDBRANCH   7  10
ENDBRANCH   5   7
ENDBRANCH   2   5
BRANCH   1  18
HETATM   18  C   UNL     1     -43.039  57.942 -56.241  1.00  0.00     0.105 A 
HETATM   19  C   UNL     1     -43.150  57.302 -57.464  1.00  0.00     0.169 A 
HETATM   20  N   UNL     1     -43.691  56.088 -57.805  1.00  0.00    -0.233 NA
HETATM   21  N   UNL     1     -42.562  58.148 -58.410  1.00  0.00    -0.219 N 
HETATM   22  C   UNL     1     -43.634  55.761 -59.065  1.00  0.00     0.035 A 
HETATM   23  C   UNL     1     -44.208  54.434 -59.490  1.00  0.00     0.070 C 
HETATM   24  C   UNL     1     -43.018  56.599 -60.142  1.00  0.00     0.053 A 
HETATM   25  C   UNL     1     -42.500  57.779 -59.762  1.00  0.00     0.036 A 
HETATM   26  C   UNL     1     -41.848  58.725 -60.721  1.00  0.00     0.070 C 
HETATM   27  N   UNL     1     -42.100  59.287 -57.840  1.00  0.00    -0.170 NA
HETATM   28  C   UNL     1     -42.384  59.164 -56.539  1.00  0.00     0.071 A 
HETATM   29  C   UNL     1     -42.005  60.248 -55.595  1.00  0.00     0.073 C 
ENDBRANCH   1  18
TORSDOF 6
ENDMDL
MODEL 3
REMARK VINA RESULT:      -7.5      2.765      6.416
REMARK  6 active torsions:
REMARK  status: ('A' for Active; 'I' for Inactive)
REMARK    1  A    between atoms: C_9  and  C_10 
REMARK       I    between atoms: C_10  and  N_11 
REMARK    2  A    between atoms: N_11  and  C_12 
REMARK    3  A    between atoms: C_12  and  C_13 
REMARK    4  A    between atoms: C_13  and  O_14 
REMARK    5  A    between atoms: C_13  and  C_15 
REMARK    6  A    between atoms: C_18  and  O_19 
ROOT
HETATM    1  C   UNL     1     -41.347  56.272 -50.686  1.00  0.00     0.258 C 
HETATM    2  N   UNL     1     -42.595  56.468 -51.231  1.00  0.00    -0.350 N 
HETATM    3  O   UNL     1     -40.688  57.182 -50.192  1.00  0.00    -0.267 OA
HETATM    4  H   UNL     1     -43.097  55.635 -51.533  1.00  0.00     0.163 HD
ENDROOT
BRANCH   2   5
HETATM    5  C   UNL     1     -43.313  57.740 -51.209  1.00  0.00     0.114 C 
HETATM    6  C   UNL     1     -44.825  57.508 -51.107  1.00  0.00     0.035 C 
BRANCH   5   7
HETATM    7  C   UNL     1     -42.943  58.688 -52.390  1.00  0.00     0.173 C 
BRANCH   7   8
HETATM    8  O   UNL     1     -41.620  59.213 -52.219  1.00  0.00    -0.389 OA
HETATM    9  H   UNL     1     -41.647  60.131 -52.539  1.00  0.00     0.210 HD
ENDBRANCH   7   8
BRANCH   7  10
HETATM   10  C   UNL     1     -43.004  57.979 -53.732  1.00  0.00    -0.028 A 
HETATM   11  C   UNL     1     -41.825  57.546 -54.354  1.00  0.00     0.012 A 
HETATM   12  C   UNL     1     -41.870  56.904 -55.595  1.00  0.00     0.037 A 
HETATM   13  C   UNL     1     -43.089  56.667 -56.230  1.00  0.00     0.068 A 
HETATM   14  C   UNL     1     -44.267  57.107 -55.629  1.00  0.00     0.037 A 
HETATM   15  C   UNL     1     -44.223  57.761 -54.391  1.00  0.00     0.012 A 
BRANCH  13  16
HETATM   16  O   UNL     1     -42.997  56.015 -57.429  1.00  0.00    -0.356 OA
HETATM   17  C   UNL     1     -43.455  56.730 -58.571  1.00  0.00     0.210 C 
ENDBRANCH  13  16
ENDBRANCH   7  10
ENDBRANCH   5   7
ENDBRANCH   2   5
BRANCH   1  18
HETATM   18  C   UNL     1     -40.876  54.897 -50.706  1.00  0.00     0.105 A 
HETATM   19  C   UNL     1     -40.605  54.111 -51.813  1.00  0.00     0.169 A 
HETATM   20  N   UNL     1     -40.687  54.380 -53.156  1.00  0.00    -0.233 NA
HETATM   21  N   UNL     1     -40.202  52.864 -51.326  1.00  0.00    -0.219 N 
HETATM   22  C   UNL     1     -40.363  53.410 -53.962  1.00  0.00     0.035 A 
HETATM   23  C   UNL     1     -40.442  53.653 -55.447  1.00  0.00     0.070 C 
HETATM   24  C   UNL     1     -39.929  52.044 -53.531  1.00  0.00     0.053 A 
HETATM   25  C   UNL     1     -39.864  51.826 -52.206  1.00  0.00     0.036 A 
HETATM   26  C   UNL     1     -39.451  50.511 -51.620  1.00  0.00     0.070 C 
HETATM   27  N   UNL     1     -40.197  52.836 -49.971  1.00  0.00    -0.170 NA
HETATM   28  C   UNL     1     -40.603  54.054 -49.598  1.00  0.00     0.071 A 
HETATM   29  C   UNL     1     -40.725  54.381 -48.153  1.00  0.00     0.073 C 
ENDBRANCH   1  18
TORSDOF 6
ENDMDL
MODEL 4
REMARK VINA RESULT:      -7.5      2.242      2.722
REMARK  6 active torsions:
REMARK  status: ('A' for Active; 'I' for Inactive)
REMARK    1  A    between atoms: C_9  and  C_10 
REMARK       I    between atoms: C_10  and  N_11 
REMARK    2  A    between atoms: N_11  and  C_12 
REMARK    3  A    between atoms: C_12  and  C_13 
REMARK    4  A    between atoms: C_13  and  O_14 
REMARK    5  A    between atoms: C_13  and  C_15 
REMARK    6  A    between atoms: C_18  and  O_19 
ROOT
HETATM    1  C   UNL     1     -42.943  56.769 -54.050  1.00  0.00     0.258 C 
HETATM    2  N   UNL     1     -42.088  56.528 -53.000  1.00  0.00    -0.350 N 
HETATM    3  O   UNL     1     -43.972  56.124 -54.230  1.00  0.00    -0.267 OA
HETATM    4  H   UNL     1     -41.310  57.176 -52.887  1.00  0.00     0.163 HD
ENDROOT
BRANCH   2   5
HETATM    5  C   UNL     1     -42.339  55.556 -51.939  1.00  0.00     0.114 C 
HETATM    6  C   UNL     1     -43.382  56.088 -50.950  1.00  0.00     0.035 C 
BRANCH   5   7
HETATM    7  C   UNL     1     -41.045  55.066 -51.220  1.00  0.00     0.173 C 
BRANCH   7   8
HETATM    8  O   UNL     1     -41.262  54.962 -49.807  1.00  0.00    -0.389 OA
HETATM    9  H   UNL     1     -40.777  55.700 -49.401  1.00  0.00     0.210 HD
ENDBRANCH   7   8
BRANCH   7  10
HETATM   10  C   UNL     1     -40.586  53.712 -51.732  1.00  0.00    -0.028 A 
HETATM   11  C   UNL     1     -40.602  53.435 -53.106  1.00  0.00     0.012 A 
HETATM   12  C   UNL     1     -40.194  52.188 -53.586  1.00  0.00     0.037 A 
HETATM   13  C   UNL     1     -39.748  51.199 -52.709  1.00  0.00     0.068 A 
HETATM   14  C   UNL     1     -39.743  51.456 -51.339  1.00  0.00     0.037 A 
HETATM   15  C   UNL     1     -40.162  52.702 -50.855  1.00  0.00     0.012 A 
BRANCH  13  16
HETATM   16  O   UNL     1     -39.360  50.031 -53.305  1.00  0.00    -0.356 OA
HETATM   17  C   UNL     1     -39.800  49.831 -54.644  1.00  0.00     0.210 C 
ENDBRANCH  13  16
ENDBRANCH   7  10
ENDBRANCH   5   7
ENDBRANCH   2   5
BRANCH   1  18
HETATM   18  C   UNL     1     -42.557  57.870 -54.918  1.00  0.00     0.105 A 
HETATM   19  C   UNL     1     -42.473  57.868 -56.299  1.00  0.00     0.169 A 
HETATM   20  N   UNL     1     -42.723  56.883 -57.221  1.00  0.00    -0.233 NA
HETATM   21  N   UNL     1     -42.041  59.145 -56.673  1.00  0.00    -0.219 N 
HETATM   22  C   UNL     1     -42.542  57.199 -58.472  1.00  0.00     0.035 A 
HETATM   23  C   UNL     1     -42.797  56.149 -59.522  1.00  0.00     0.070 C 
HETATM   24  C   UNL     1     -42.075  58.535 -58.961  1.00  0.00     0.053 A 
HETATM   25  C   UNL     1     -41.842  59.468 -58.023  1.00  0.00     0.036 A 
HETATM   26  C   UNL     1     -41.369  60.850 -58.354  1.00  0.00     0.070 C 
HETATM   27  N   UNL     1     -41.863  59.945 -55.594  1.00  0.00    -0.170 NA
HETATM   28  C   UNL     1     -42.170  59.182 -54.541  1.00  0.00     0.071 A 
HETATM   29  C   UNL     1     -42.076  59.744 -53.168  1.00  0.00     0.073 C 
ENDBRANCH   1  18
TORSDOF 6
ENDMDL
MODEL 5
REMARK VINA RESULT:      -7.4      2.560      7.645
REMARK  6 active torsions:
REMARK  status: ('A' for Active; 'I' for Inactive)
REMARK    1  A    between atoms: C_9  and  C_10 
REMARK       I    between atoms: C_10  and  N_11 
REMARK    2  A    between atoms: N_11  and  C_12 
REMARK    3  A    between atoms: C_12  and  C_13 
REMARK    4  A    between atoms: C_13  and  O_14 
REMARK    5  A    between atoms: C_13  and  C_15 
REMARK    6  A    between atoms: C_18  and  O_19 
ROOT
HETATM    1  C   UNL     1     -40.880  55.018 -53.677  1.00  0.00     0.258 C 
HETATM    2  N   UNL     1     -42.087  55.670 -53.573  1.00  0.00    -0.350 N 
HETATM    3  O   UNL     1     -40.057  55.281 -54.549  1.00  0.00    -0.267 OA
HETATM    4  H   UNL     1     -42.661  55.442 -52.762  1.00  0.00     0.163 HD
ENDROOT
BRANCH   2   5
HETATM    5  C   UNL     1     -42.491  56.795 -54.412  1.00  0.00     0.114 C 
HETATM    6  C   UNL     1     -41.781  58.081 -53.977  1.00  0.00     0.035 C 
BRANCH   5   7
HETATM    7  C   UNL     1     -44.036  56.981 -54.508  1.00  0.00     0.173 C 
BRANCH   7   8
HETATM    8  O   UNL     1     -44.700  55.711 -54.465  1.00  0.00    -0.389 OA
HETATM    9  H   UNL     1     -45.127  55.655 -53.593  1.00  0.00     0.210 HD
ENDBRANCH   7   8
BRANCH   7  10
HETATM   10  C   UNL     1     -44.578  57.840 -53.378  1.00  0.00    -0.028 A 
HETATM   11  C   UNL     1     -44.615  57.340 -52.069  1.00  0.00     0.012 A 
HETATM   12  C   UNL     1     -45.124  58.117 -51.025  1.00  0.00     0.037 A 
HETATM   13  C   UNL     1     -45.590  59.411 -51.262  1.00  0.00     0.068 A 
HETATM   14  C   UNL     1     -45.574  59.912 -52.562  1.00  0.00     0.037 A 
HETATM   15  C   UNL     1     -45.074  59.131 -53.612  1.00  0.00     0.012 A 
BRANCH  13  16
HETATM   16  O   UNL     1     -46.045  60.072 -50.155  1.00  0.00    -0.356 OA
HETATM   17  C   UNL     1     -45.088  60.858 -49.453  1.00  0.00     0.210 C 
ENDBRANCH  13  16
ENDBRANCH   7  10
ENDBRANCH   5   7
ENDBRANCH   2   5
BRANCH   1  18
HETATM   18  C   UNL     1     -40.634  54.013 -52.656  1.00  0.00     0.105 A 
HETATM   19  C   UNL     1     -40.321  52.677 -52.842  1.00  0.00     0.169 A 
HETATM   20  N   UNL     1     -40.150  51.937 -53.985  1.00  0.00    -0.233 NA
HETATM   21  N   UNL     1     -40.199  52.116 -51.567  1.00  0.00    -0.219 N 
HETATM   22  C   UNL     1     -39.860  50.678 -53.823  1.00  0.00     0.035 A 
HETATM   23  C   UNL     1     -39.669  49.821 -55.048  1.00  0.00     0.070 C 
HETATM   24  C   UNL     1     -39.718  49.993 -52.499  1.00  0.00     0.053 A 
HETATM   25  C   UNL     1     -39.896  50.756 -51.407  1.00  0.00     0.036 A 
HETATM   26  C   UNL     1     -39.790  50.216 -50.015  1.00  0.00     0.070 C 
HETATM   27  N   UNL     1     -40.409  53.038 -50.596  1.00  0.00    -0.170 NA
HETATM   28  C   UNL     1     -40.672  54.175 -51.247  1.00  0.00     0.071 A 
HETATM   29  C   UNL     1     -40.964  55.415 -50.481  1.00  0.00     0.073 C 
ENDBRANCH   1  18
TORSDOF 6
ENDMDL
MODEL 6
REMARK VINA RESULT:      -7.2      1.671      3.303
REMARK  6 active torsions:
REMARK  status: ('A' for Active; 'I' for Inactive)
REMARK    1  A    between atoms: C_9  and  C_10 
REMARK       I    between atoms: C_10  and  N_11 
REMARK    2  A    between atoms: N_11  and  C_12 
REMARK    3  A    between atoms: C_12  and  C_13 
REMARK    4  A    between atoms: C_13  and  O_14 
REMARK    5  A    between atoms: C_13  and  C_15 
REMARK    6  A    between atoms: C_18  and  O_19 
ROOT
HETATM    1  C   UNL     1     -43.558  55.938 -54.426  1.00  0.00     0.258 C 
HETATM    2  N   UNL     1     -42.975  56.385 -53.263  1.00  0.00    -0.350 N 
HETATM    3  O   UNL     1     -43.841  54.759 -54.616  1.00  0.00    -0.267 OA
HETATM    4  H   UNL     1     -42.862  57.393 -53.166  1.00  0.00     0.163 HD
ENDROOT
BRANCH   2   5
HETATM    5  C   UNL     1     -42.709  55.545 -52.098  1.00  0.00     0.114 C 
HETATM    6  C   UNL     1     -43.484  56.049 -50.876  1.00  0.00     0.035 C 
BRANCH   5   7
HETATM    7  C   UNL     1     -41.191  55.357 -51.794  1.00  0.00     0.173 C 
BRANCH   7   8
HETATM    8  O   UNL     1     -40.923  55.585 -50.404  1.00  0.00    -0.389 OA
HETATM    9  H   UNL     1     -41.661  55.185 -49.915  1.00  0.00     0.210 HD
ENDBRANCH   7   8
BRANCH   7  10
HETATM   10  C   UNL     1     -40.707  53.962 -52.150  1.00  0.00    -0.028 A 
HETATM   11  C   UNL     1     -40.809  53.495 -53.467  1.00  0.00     0.012 A 
HETATM   12  C   UNL     1     -40.379  52.208 -53.801  1.00  0.00     0.037 A 
HETATM   13  C   UNL     1     -39.823  51.370 -52.834  1.00  0.00     0.068 A 
HETATM   14  C   UNL     1     -39.731  51.817 -51.517  1.00  0.00     0.037 A 
HETATM   15  C   UNL     1     -40.173  53.102 -51.178  1.00  0.00     0.012 A 
BRANCH  13  16
HETATM   16  O   UNL     1     -39.425  50.144 -53.293  1.00  0.00    -0.356 OA
HETATM   17  C   UNL     1     -39.732  49.850 -54.650  1.00  0.00     0.210 C 
ENDBRANCH  13  16
ENDBRANCH   7  10
ENDBRANCH   5   7
ENDBRANCH   2   5
BRANCH   1  18
HETATM   18  C   UNL     1     -43.847  56.972 -55.406  1.00  0.00     0.105 A 
HETATM   19  C   UNL     1     -44.431  58.207 -55.185  1.00  0.00     0.169 A 
HETATM   20  N   UNL     1     -44.884  58.803 -54.034  1.00  0.00    -0.233 NA
HETATM   21  N   UNL     1     -44.519  58.835 -56.432  1.00  0.00    -0.219 N 
HETATM   22  C   UNL     1     -45.398  59.993 -54.161  1.00  0.00     0.035 A 
HETATM   23  C   UNL     1     -45.915  60.687 -52.927  1.00  0.00     0.070 C 
HETATM   24  C   UNL     1     -45.539  60.735 -55.453  1.00  0.00     0.053 A 
HETATM   25  C   UNL     1     -45.084  60.113 -56.554  1.00  0.00     0.036 A 
HETATM   26  C   UNL     1     -45.157  60.723 -57.919  1.00  0.00     0.070 C 
HETATM   27  N   UNL     1     -44.009  58.057 -57.417  1.00  0.00    -0.170 NA
HETATM   28  C   UNL     1     -43.607  56.939 -56.804  1.00  0.00     0.071 A 
HETATM   29  C   UNL     1     -42.994  55.841 -57.596  1.00  0.00     0.073 C 
ENDBRANCH   1  18
TORSDOF 6
ENDMDL
MODEL 7
REMARK VINA RESULT:      -7.2      3.640      7.534
REMARK  6 active torsions:
REMARK  status: ('A' for Active; 'I' for Inactive)
REMARK    1  A    between atoms: C_9  and  C_10 
REMARK       I    between atoms: C_10  and  N_11 
REMARK    2  A    between atoms: N_11  and  C_12 
REMARK    3  A    between atoms: C_12  and  C_13 
REMARK    4  A    between atoms: C_13  and  O_14 
REMARK    5  A    between atoms: C_13  and  C_15 
REMARK    6  A    between atoms: C_18  and  O_19 
ROOT
HETATM    1  C   UNL     1     -41.649  57.598 -53.676  1.00  0.00     0.258 C 
HETATM    2  N   UNL     1     -42.596  57.008 -54.480  1.00  0.00    -0.350 N 
HETATM    3  O   UNL     1     -41.094  58.653 -53.968  1.00  0.00    -0.267 OA
HETATM    4  H   UNL     1     -43.062  56.183 -54.106  1.00  0.00     0.163 HD
ENDROOT
BRANCH   2   5
HETATM    5  C   UNL     1     -43.114  57.597 -55.712  1.00  0.00     0.114 C 
HETATM    6  C   UNL     1     -44.641  57.704 -55.663  1.00  0.00     0.035 C 
BRANCH   5   7
HETATM    7  C   UNL     1     -42.617  56.881 -57.005  1.00  0.00     0.173 C 
BRANCH   7   8
HETATM    8  O   UNL     1     -43.575  55.908 -57.442  1.00  0.00    -0.389 OA
HETATM    9  H   UNL     1     -43.600  55.966 -58.412  1.00  0.00     0.210 HD
ENDBRANCH   7   8
BRANCH   7  10
HETATM   10  C   UNL     1     -42.380  57.859 -58.143  1.00  0.00    -0.028 A 
HETATM   11  C   UNL     1     -42.147  59.214 -57.871  1.00  0.00     0.012 A 
HETATM   12  C   UNL     1     -41.941  60.124 -58.911  1.00  0.00     0.037 A 
HETATM   13  C   UNL     1     -41.946  59.699 -60.240  1.00  0.00     0.068 A 
HETATM   14  C   UNL     1     -42.193  58.357 -60.524  1.00  0.00     0.037 A 
HETATM   15  C   UNL     1     -42.411  57.445 -59.483  1.00  0.00     0.012 A 
BRANCH  13  16
HETATM   16  O   UNL     1     -41.714  60.683 -61.162  1.00  0.00    -0.356 OA
HETATM   17  C   UNL     1     -41.191  61.906 -60.658  1.00  0.00     0.210 C 
ENDBRANCH  13  16
ENDBRANCH   7  10
ENDBRANCH   5   7
ENDBRANCH   2   5
BRANCH   1  18
HETATM   18  C   UNL     1     -41.375  56.898 -52.432  1.00  0.00     0.105 A 
HETATM   19  C   UNL     1     -41.040  55.565 -52.267  1.00  0.00     0.169 A 
HETATM   20  N   UNL     1     -40.867  54.555 -53.181  1.00  0.00    -0.233 NA
HETATM   21  N   UNL     1     -40.897  55.357 -50.892  1.00  0.00    -0.219 N 
HETATM   22  C   UNL     1     -40.553  53.386 -52.700  1.00  0.00     0.035 A 
HETATM   23  C   UNL     1     -40.358  52.242 -53.663  1.00  0.00     0.070 C 
HETATM   24  C   UNL     1     -40.387  53.071 -51.246  1.00  0.00     0.053 A 
HETATM   25  C   UNL     1     -40.568  54.090 -50.388  1.00  0.00     0.036 A 
HETATM   26  C   UNL     1     -40.440  53.933 -48.905  1.00  0.00     0.070 C 
HETATM   27  N   UNL     1     -41.114  56.496 -50.191  1.00  0.00    -0.170 NA
HETATM   28  C   UNL     1     -41.403  57.421 -51.113  1.00  0.00     0.071 A 
HETATM   29  C   UNL     1     -41.710  58.813 -50.692  1.00  0.00     0.073 C 
ENDBRANCH   1  18
TORSDOF 6
ENDMDL
MODEL 8
REMARK VINA RESULT:      -7.1      2.482      4.351
REMARK  6 active torsions:
REMARK  status: ('A' for Active; 'I' for Inactive)
REMARK    1  A    between atoms: C_9  and  C_10 
REMARK       I    between atoms: C_10  and  N_11 
REMARK    2  A    between atoms: N_11  and  C_12 
REMARK    3  A    between atoms: C_12  and  C_13 
REMARK    4  A    between atoms: C_13  and  O_14 
REMARK    5  A    between atoms: C_13  and  C_15 
REMARK    6  A    between atoms: C_18  and  O_19 
ROOT
HETATM    1  C   UNL     1     -42.806  56.403 -57.111  1.00  0.00     0.258 C 
HETATM    2  N   UNL     1     -42.274  56.354 -55.843  1.00  0.00    -0.350 N 
HETATM    3  O   UNL     1     -43.135  55.398 -57.732  1.00  0.00    -0.267 OA
HETATM    4  H   UNL     1     -42.118  57.247 -55.378  1.00  0.00     0.163 HD
ENDROOT
BRANCH   2   5
HETATM    5  C   UNL     1     -42.122  55.130 -55.061  1.00  0.00     0.114 C 
HETATM    6  C   UNL     1     -43.424  54.787 -54.329  1.00  0.00     0.035 C 
BRANCH   5   7
HETATM    7  C   UNL     1     -40.896  55.151 -54.097  1.00  0.00     0.173 C 
BRANCH   7   8
HETATM    8  O   UNL     1     -41.178  55.949 -52.940  1.00  0.00    -0.389 OA
HETATM    9  H   UNL     1     -41.082  56.875 -53.217  1.00  0.00     0.210 HD
ENDBRANCH   7   8
BRANCH   7  10
HETATM   10  C   UNL     1     -40.513  53.756 -53.632  1.00  0.00    -0.028 A 
HETATM   11  C   UNL     1     -40.366  53.485 -52.264  1.00  0.00     0.012 A 
HETATM   12  C   UNL     1     -40.001  52.209 -51.827  1.00  0.00     0.037 A 
HETATM   13  C   UNL     1     -39.792  51.176 -52.741  1.00  0.00     0.068 A 
HETATM   14  C   UNL     1     -39.918  51.437 -54.104  1.00  0.00     0.037 A 
HETATM   15  C   UNL     1     -40.274  52.719 -54.545  1.00  0.00     0.012 A 
BRANCH  13  16
HETATM   16  O   UNL     1     -39.457  49.973 -52.184  1.00  0.00    -0.356 OA
HETATM   17  C   UNL     1     -39.619  49.864 -50.775  1.00  0.00     0.210 C 
ENDBRANCH  13  16
ENDBRANCH   7  10
ENDBRANCH   5   7
ENDBRANCH   2   5
BRANCH   1  18
HETATM   18  C   UNL     1     -42.983  57.741 -57.651  1.00  0.00     0.105 A 
HETATM   19  C   UNL     1     -43.594  58.825 -57.045  1.00  0.00     0.169 A 
HETATM   20  N   UNL     1     -44.180  58.961 -55.811  1.00  0.00    -0.233 NA
HETATM   21  N   UNL     1     -43.539  59.879 -57.963  1.00  0.00    -0.219 N 
HETATM   22  C   UNL     1     -44.681  60.131 -55.533  1.00  0.00     0.035 A 
HETATM   23  C   UNL     1     -45.342  60.329 -54.193  1.00  0.00     0.070 C 
HETATM   24  C   UNL     1     -44.673  61.310 -56.455  1.00  0.00     0.053 A 
HETATM   25  C   UNL     1     -44.090  61.130 -57.653  1.00  0.00     0.036 A 
HETATM   26  C   UNL     1     -44.006  62.212 -58.684  1.00  0.00     0.070 C 
HETATM   27  N   UNL     1     -42.913  59.509 -59.107  1.00  0.00    -0.170 NA
HETATM   28  C   UNL     1     -42.582  58.227 -58.923  1.00  0.00     0.071 A 
HETATM   29  C   UNL     1     -41.875  57.485 -59.999  1.00  0.00     0.073 C 
ENDBRANCH   1  18
TORSDOF 6
ENDMDL
MODEL 9
REMARK VINA RESULT:      -7.0      2.513      3.410
REMARK  6 active torsions:
REMARK  status: ('A' for Active; 'I' for Inactive)
REMARK    1  A    between atoms: C_9  and  C_10 
REMARK       I    between atoms: C_10  and  N_11 
REMARK    2  A    between atoms: N_11  and  C_12 
REMARK    3  A    between atoms: C_12  and  C_13 
REMARK    4  A    between atoms: C_13  and  O_14 
REMARK    5  A    between atoms: C_13  and  C_15 
REMARK    6  A    between atoms: C_18  and  O_19 
ROOT
HETATM    1  C   UNL     1     -42.314  56.388 -55.588  1.00  0.00     0.258 C 
HETATM    2  N   UNL     1     -42.906  56.555 -54.358  1.00  0.00    -0.350 N 
HETATM    3  O   UNL     1     -41.493  55.504 -55.815  1.00  0.00    -0.267 OA
HETATM    4  H   UNL     1     -43.640  57.259 -54.295  1.00  0.00     0.163 HD
ENDROOT
BRANCH   2   5
HETATM    5  C   UNL     1     -42.704  55.664 -53.218  1.00  0.00     0.114 C 
HETATM    6  C   UNL     1     -43.681  55.999 -52.086  1.00  0.00     0.035 C 
BRANCH   5   7
HETATM    7  C   UNL     1     -41.227  55.609 -52.721  1.00  0.00     0.173 C 
BRANCH   7   8
HETATM    8  O   UNL     1     -41.096  56.267 -51.454  1.00  0.00    -0.389 OA
HETATM    9  H   UNL     1     -41.776  56.962 -51.436  1.00  0.00     0.210 HD
ENDBRANCH   7   8
BRANCH   7  10
HETATM   10  C   UNL     1     -40.729  54.182 -52.569  1.00  0.00    -0.028 A 
HETATM   11  C   UNL     1     -40.483  53.653 -51.294  1.00  0.00     0.012 A 
HETATM   12  C   UNL     1     -40.012  52.346 -51.144  1.00  0.00     0.037 A 
HETATM   13  C   UNL     1     -39.794  51.536 -52.259  1.00  0.00     0.068 A 
HETATM   14  C   UNL     1     -40.020  52.055 -53.533  1.00  0.00     0.037 A 
HETATM   15  C   UNL     1     -40.481  53.369 -53.685  1.00  0.00     0.012 A 
BRANCH  13  16
HETATM   16  O   UNL     1     -39.351  50.273 -51.977  1.00  0.00    -0.356 OA
HETATM   17  C   UNL     1     -39.693  49.757 -50.696  1.00  0.00     0.210 C 
ENDBRANCH  13  16
ENDBRANCH   7  10
ENDBRANCH   5   7
ENDBRANCH   2   5
BRANCH   1  18
HETATM   18  C   UNL     1     -42.758  57.316 -56.615  1.00  0.00     0.105 A 
HETATM   19  C   UNL     1     -43.376  57.016 -57.817  1.00  0.00     0.169 A 
HETATM   20  N   UNL     1     -43.745  55.816 -58.371  1.00  0.00    -0.233 NA
HETATM   21  N   UNL     1     -43.588  58.235 -58.470  1.00  0.00    -0.219 N 
HETATM   22  C   UNL     1     -44.313  55.868 -59.542  1.00  0.00     0.035 A 
HETATM   23  C   UNL     1     -44.731  54.576 -60.196  1.00  0.00     0.070 C 
HETATM   24  C   UNL     1     -44.572  57.124 -60.316  1.00  0.00     0.053 A 
HETATM   25  C   UNL     1     -44.192  58.275 -59.735  1.00  0.00     0.036 A 
HETATM   26  C   UNL     1     -44.381  59.611 -60.384  1.00  0.00     0.070 C 
HETATM   27  N   UNL     1     -43.144  59.279 -57.731  1.00  0.00    -0.170 NA
HETATM   28  C   UNL     1     -42.643  58.730 -56.619  1.00  0.00     0.071 A 
HETATM   29  C   UNL     1     -42.052  59.599 -55.568  1.00  0.00     0.073 C 
ENDBRANCH   1  18
TORSDOF 6
ENDMDL
MODEL 10
REMARK VINA RESULT:      -7.0     16.127     19.002
REMARK  6 active torsions:
REMARK  status: ('A' for Active; 'I' for Inactive)
REMARK    1  A    between atoms: C_9  and  C_10 
REMARK       I    between atoms: C_10  and  N_11 
REMARK    2  A    between atoms: N_11  and  C_12 
REMARK    3  A    between atoms: C_12  and  C_13 
REMARK    4  A    between atoms: C_13  and  O_14 
REMARK    5  A    between atoms: C_13  and  C_15 
REMARK    6  A    between atoms: C_18  and  O_19 
ROOT
HETATM    1  C   UNL     1     -35.793  41.555 -53.909  1.00  0.00     0.258 C 
HETATM    2  N   UNL     1     -36.158  41.144 -55.170  1.00  0.00    -0.350 N 
HETATM    3  O   UNL     1     -36.114  42.645 -53.447  1.00  0.00    -0.267 OA
HETATM    4  H   UNL     1     -35.918  40.188 -55.427  1.00  0.00     0.163 HD
ENDROOT
BRANCH   2   5
HETATM    5  C   UNL     1     -37.031  41.902 -56.063  1.00  0.00     0.114 C 
HETATM    6  C   UNL     1     -38.365  41.174 -56.264  1.00  0.00     0.035 C 
BRANCH   5   7
HETATM    7  C   UNL     1     -36.362  42.284 -57.418  1.00  0.00     0.173 C 
BRANCH   7   8
HETATM    8  O   UNL     1     -34.969  42.569 -57.230  1.00  0.00    -0.389 OA
HETATM    9  H   UNL     1     -34.689  42.058 -56.452  1.00  0.00     0.210 HD
ENDBRANCH   7   8
BRANCH   7  10
HETATM   10  C   UNL     1     -36.486  41.174 -58.449  1.00  0.00    -0.028 A 
HETATM   11  C   UNL     1     -37.264  41.365 -59.599  1.00  0.00     0.012 A 
HETATM   12  C   UNL     1     -37.395  40.345 -60.546  1.00  0.00     0.037 A 
HETATM   13  C   UNL     1     -36.740  39.125 -60.373  1.00  0.00     0.068 A 
HETATM   14  C   UNL     1     -35.977  38.918 -59.226  1.00  0.00     0.037 A 
HETATM   15  C   UNL     1     -35.854  39.935 -58.270  1.00  0.00     0.012 A 
BRANCH  13  16
HETATM   16  O   UNL     1     -36.935  38.219 -61.379  1.00  0.00    -0.356 OA
HETATM   17  C   UNL     1     -37.502  38.726 -62.582  1.00  0.00     0.210 C 
ENDBRANCH  13  16
ENDBRANCH   7  10
ENDBRANCH   5   7
ENDBRANCH   2   5
BRANCH   1  18
HETATM   18  C   UNL     1     -35.023  40.587 -53.146  1.00  0.00     0.105 A 
HETATM   19  C   UNL     1     -33.828  39.986 -53.502  1.00  0.00     0.169 A 
HETATM   20  N   UNL     1     -33.044  40.121 -54.620  1.00  0.00    -0.233 NA
HETATM   21  N   UNL     1     -33.492  39.118 -52.458  1.00  0.00    -0.219 N 
HETATM   22  C   UNL     1     -31.960  39.399 -54.660  1.00  0.00     0.035 A 
HETATM   23  C   UNL     1     -31.069  39.507 -55.871  1.00  0.00     0.070 C 
HETATM   24  C   UNL     1     -31.528  38.440 -53.595  1.00  0.00     0.053 A 
HETATM   25  C   UNL     1     -32.327  38.340 -52.518  1.00  0.00     0.036 A 
HETATM   26  C   UNL     1     -32.031  37.423 -51.372  1.00  0.00     0.070 C 
HETATM   27  N   UNL     1     -34.413  39.156 -51.464  1.00  0.00    -0.170 NA
HETATM   28  C   UNL     1     -35.332  40.034 -51.876  1.00  0.00     0.071 A 
HETATM   29  C   UNL     1     -36.513  40.323 -51.021  1.00  0.00     0.073 C 
ENDBRANCH   1  18
TORSDOF 6
ENDMDL
