MODEL 1
REMARK VINA RESULT:      -9.1      0.000      0.000
REMARK  7 active torsions:
REMARK  status: ('A' for Active; 'I' for Inactive)
REMARK    1  A    between atoms: C_2  and  C_3 
REMARK    2  A    between atoms: C_3  and  O_4 
REMARK    3  A    between atoms: O_4  and  C_5 
REMARK    4  A    between atoms: C_8  and  N_9 
REMARK    5  A    between atoms: C_12  and  N_13 
REMARK    6  A    between atoms: C_17  and  O_18 
REMARK    7  A    between atoms: C_17  and  C_19 
ROOT
HETATM    1  N   UNL     1     -42.845  57.582 -55.270  1.00  0.00    -0.251 N 
HETATM    2  C   UNL     1     -43.246  56.831 -54.188  1.00  0.00     0.262 C 
HETATM    3  O   UNL     1     -43.755  55.721 -54.112  1.00  0.00    -0.270 OA
HETATM    4  C   UNL     1     -42.931  57.620 -52.941  1.00  0.00     0.289 C 
HETATM    5  C   UNL     1     -41.811  58.527 -53.375  1.00  0.00     0.146 C 
HETATM    6  C   UNL     1     -42.085  58.657 -54.848  1.00  0.00     0.233 C 
HETATM    7  O   UNL     1     -41.641  59.602 -55.480  1.00  0.00    -0.273 OA
ENDROOT
BRANCH   4   8
HETATM    8  N   UNL     1     -42.628  56.770 -51.695  1.00  0.00    -0.058 N 
HETATM    9  H   UNL     1     -42.996  57.349 -50.919  1.00  0.00     0.281 HD
HETATM   10  C   UNL     1     -43.394  55.467 -51.591  1.00  0.00     0.239 C 
HETATM   11  C   UNL     1     -43.077  54.788 -50.267  1.00  0.00     0.071 C 
HETATM   12  C   UNL     1     -41.566  54.514 -50.109  1.00  0.00     0.088 C 
HETATM   13  C   UNL     1     -40.880  55.894 -50.160  1.00  0.00     0.071 C 
HETATM   14  C   UNL     1     -41.144  56.614 -51.471  1.00  0.00     0.239 C 
BRANCH  12  15
HETATM   15  O   UNL     1     -41.375  54.017 -48.784  1.00  0.00    -0.385 OA
HETATM   16  H   UNL     1     -40.520  54.330 -48.434  1.00  0.00     0.211 HD
ENDBRANCH  12  15
BRANCH  12  17
HETATM   17  C   UNL     1     -41.001  53.478 -51.091  1.00  0.00    -0.024 A 
HETATM   18  C   UNL     1     -41.139  53.625 -52.486  1.00  0.00     0.011 A 
HETATM   19  C   UNL     1     -40.645  52.664 -53.374  1.00  0.00     0.020 A 
HETATM   20  C   UNL     1     -39.972  51.550 -52.888  1.00  0.00     0.011 A 
HETATM   21 BR   UNL     1     -39.317  50.245 -54.085  1.00  0.00    -0.051 Br
HETATM   22  C   UNL     1     -39.769  51.404 -51.521  1.00  0.00     0.020 A 
HETATM   23  C   UNL     1     -40.265  52.367 -50.634  1.00  0.00     0.011 A 
ENDBRANCH  12  17
ENDBRANCH   4   8
BRANCH   1  24
HETATM   24  C   UNL     1     -43.196  57.310 -56.630  1.00  0.00     0.045 A 
HETATM   25  C   UNL     1     -42.898  56.077 -57.234  1.00  0.00     0.033 A 
HETATM   26  C   UNL     1     -43.304  55.780 -58.546  1.00  0.00     0.039 A 
HETATM   27  C   UNL     1     -44.021  56.711 -59.286  1.00  0.00     0.068 A 
HETATM   28  C   UNL     1     -44.284  57.954 -58.723  1.00  0.00     0.039 A 
HETATM   29  C   UNL     1     -43.882  58.250 -57.414  1.00  0.00     0.033 A 
BRANCH  27  30
HETATM   30  O   UNL     1     -44.498  56.534 -60.552  1.00  0.00    -0.351 OA
BRANCH  30  31
HETATM   31  C   UNL     1     -45.517  55.546 -60.723  1.00  0.00     0.175 C 
BRANCH  31  32
HETATM   32  C   UNL     1     -46.841  56.161 -60.279  1.00  0.00     0.022 C 
HETATM   33  C   UNL     1     -47.679  56.609 -61.463  1.00  0.00     0.007 C 
ENDBRANCH  31  32
ENDBRANCH  30  31
ENDBRANCH  27  30
ENDBRANCH   1  24
TORSDOF 7
ENDMDL
MODEL 2
REMARK VINA RESULT:      -8.7      1.974      3.281
REMARK  7 active torsions:
REMARK  status: ('A' for Active; 'I' for Inactive)
REMARK    1  A    between atoms: C_2  and  C_3 
REMARK    2  A    between atoms: C_3  and  O_4 
REMARK    3  A    between atoms: O_4  and  C_5 
REMARK    4  A    between atoms: C_8  and  N_9 
REMARK    5  A    between atoms: C_12  and  N_13 
REMARK    6  A    between atoms: C_17  and  O_18 
REMARK    7  A    between atoms: C_17  and  C_19 
ROOT
HETATM    1  N   UNL     1     -44.209  57.334 -58.000  1.00  0.00    -0.251 N 
HETATM    2  C   UNL     1     -43.876  57.688 -56.712  1.00  0.00     0.262 C 
HETATM    3  O   UNL     1     -44.358  58.509 -55.943  1.00  0.00    -0.270 OA
HETATM    4  C   UNL     1     -42.711  56.827 -56.288  1.00  0.00     0.289 C 
HETATM    5  C   UNL     1     -42.841  55.609 -57.162  1.00  0.00     0.146 C 
HETATM    6  C   UNL     1     -43.548  56.175 -58.362  1.00  0.00     0.233 C 
HETATM    7  O   UNL     1     -43.492  55.606 -59.440  1.00  0.00    -0.273 OA
ENDROOT
BRANCH   4   8
HETATM    8  N   UNL     1     -42.636  56.535 -54.779  1.00  0.00    -0.058 N 
HETATM    9  H   UNL     1     -43.103  57.358 -54.356  1.00  0.00     0.281 HD
HETATM   10  C   UNL     1     -43.451  55.350 -54.301  1.00  0.00     0.239 C 
HETATM   11  C   UNL     1     -43.369  55.247 -52.786  1.00  0.00     0.071 C 
HETATM   12  C   UNL     1     -41.911  55.103 -52.298  1.00  0.00     0.088 C 
HETATM   13  C   UNL     1     -41.182  56.377 -52.770  1.00  0.00     0.071 C 
HETATM   14  C   UNL     1     -41.211  56.524 -54.281  1.00  0.00     0.239 C 
BRANCH  12  15
HETATM   15  O   UNL     1     -41.948  55.164 -50.872  1.00  0.00    -0.385 OA
HETATM   16  H   UNL     1     -41.193  55.688 -50.544  1.00  0.00     0.211 HD
ENDBRANCH  12  15
BRANCH  12  17
HETATM   17  C   UNL     1     -41.234  53.786 -52.700  1.00  0.00    -0.024 A 
HETATM   18  C   UNL     1     -41.384  53.237 -53.989  1.00  0.00     0.011 A 
HETATM   19  C   UNL     1     -40.784  52.023 -54.340  1.00  0.00     0.020 A 
HETATM   20  C   UNL     1     -39.993  51.347 -53.420  1.00  0.00     0.011 A 
HETATM   21 BR   UNL     1     -39.195  49.702 -53.888  1.00  0.00    -0.051 Br
HETATM   22  C   UNL     1     -39.778  51.891 -52.160  1.00  0.00     0.020 A 
HETATM   23  C   UNL     1     -40.379  53.105 -51.810  1.00  0.00     0.011 A 
ENDBRANCH  12  17
ENDBRANCH   4   8
BRANCH   1  24
HETATM   24  C   UNL     1     -45.082  58.079 -58.853  1.00  0.00     0.045 A 
HETATM   25  C   UNL     1     -44.585  58.893 -59.885  1.00  0.00     0.033 A 
HETATM   26  C   UNL     1     -45.440  59.570 -60.770  1.00  0.00     0.039 A 
HETATM   27  C   UNL     1     -46.818  59.447 -60.645  1.00  0.00     0.068 A 
HETATM   28  C   UNL     1     -47.330  58.685 -59.602  1.00  0.00     0.039 A 
HETATM   29  C   UNL     1     -46.477  58.008 -58.720  1.00  0.00     0.033 A 
BRANCH  27  30
HETATM   30  O   UNL     1     -47.752  60.024 -61.455  1.00  0.00    -0.351 OA
BRANCH  30  31
HETATM   31  C   UNL     1     -48.932  59.262 -61.720  1.00  0.00     0.175 C 
BRANCH  31  32
HETATM   32  C   UNL     1     -48.633  58.333 -62.892  1.00  0.00     0.022 C 
HETATM   33  C   UNL     1     -48.735  56.871 -62.495  1.00  0.00     0.007 C 
ENDBRANCH  31  32
ENDBRANCH  30  31
ENDBRANCH  27  30
ENDBRANCH   1  24
TORSDOF 7
ENDMDL
MODEL 3
REMARK VINA RESULT:      -8.7      5.085      8.778
REMARK  7 active torsions:
REMARK  status: ('A' for Active; 'I' for Inactive)
REMARK    1  A    between atoms: C_2  and  C_3 
REMARK    2  A    between atoms: C_3  and  O_4 
REMARK    3  A    between atoms: O_4  and  C_5 
REMARK    4  A    between atoms: C_8  and  N_9 
REMARK    5  A    between atoms: C_12  and  N_13 
REMARK    6  A    between atoms: C_17  and  O_18 
REMARK    7  A    between atoms: C_17  and  C_19 
ROOT
HETATM    1  N   UNL     1     -42.801  55.808 -52.124  1.00  0.00    -0.251 N 
HETATM    2  C   UNL     1     -42.611  57.118 -52.498  1.00  0.00     0.262 C 
HETATM    3  O   UNL     1     -42.041  57.616 -53.460  1.00  0.00    -0.270 OA
HETATM    4  C   UNL     1     -43.290  57.990 -51.470  1.00  0.00     0.289 C 
HETATM    5  C   UNL     1     -44.345  57.088 -50.889  1.00  0.00     0.146 C 
HETATM    6  C   UNL     1     -43.732  55.732 -51.105  1.00  0.00     0.233 C 
HETATM    7  O   UNL     1     -44.090  54.777 -50.436  1.00  0.00    -0.273 OA
ENDROOT
BRANCH   4   8
HETATM    8  N   UNL     1     -43.811  59.336 -52.003  1.00  0.00    -0.058 N 
HETATM    9  H   UNL     1     -43.727  59.231 -53.031  1.00  0.00     0.281 HD
HETATM   10  C   UNL     1     -45.285  59.605 -51.770  1.00  0.00     0.239 C 
HETATM   11  C   UNL     1     -45.681  60.912 -52.439  1.00  0.00     0.071 C 
HETATM   12  C   UNL     1     -44.848  62.102 -51.915  1.00  0.00     0.088 C 
HETATM   13  C   UNL     1     -43.381  61.771 -52.255  1.00  0.00     0.071 C 
HETATM   14  C   UNL     1     -42.919  60.483 -51.595  1.00  0.00     0.239 C 
BRANCH  12  15
HETATM   15  O   UNL     1     -45.202  63.233 -52.711  1.00  0.00    -0.385 OA
HETATM   16  H   UNL     1     -45.955  63.700 -52.305  1.00  0.00     0.211 HD
ENDBRANCH  12  15
BRANCH  12  17
HETATM   17  C   UNL     1     -45.104  62.457 -50.444  1.00  0.00    -0.024 A 
HETATM   18  C   UNL     1     -44.182  63.214 -49.693  1.00  0.00     0.011 A 
HETATM   19  C   UNL     1     -44.410  63.512 -48.344  1.00  0.00     0.020 A 
HETATM   20  C   UNL     1     -45.580  63.088 -47.727  1.00  0.00     0.011 A 
HETATM   21 BR   UNL     1     -45.881  63.477 -45.905  1.00  0.00    -0.051 Br
HETATM   22  C   UNL     1     -46.534  62.389 -48.456  1.00  0.00     0.020 A 
HETATM   23  C   UNL     1     -46.305  62.092 -49.805  1.00  0.00     0.011 A 
ENDBRANCH  12  17
ENDBRANCH   4   8
BRANCH   1  24
HETATM   24  C   UNL     1     -42.106  54.689 -52.683  1.00  0.00     0.045 A 
HETATM   25  C   UNL     1     -42.480  54.133 -53.918  1.00  0.00     0.033 A 
HETATM   26  C   UNL     1     -41.757  53.080 -54.503  1.00  0.00     0.039 A 
HETATM   27  C   UNL     1     -40.639  52.559 -53.867  1.00  0.00     0.068 A 
HETATM   28  C   UNL     1     -40.280  53.063 -52.623  1.00  0.00     0.039 A 
HETATM   29  C   UNL     1     -41.000  54.114 -52.039  1.00  0.00     0.033 A 
BRANCH  27  30
HETATM   30  O   UNL     1     -39.836  51.563 -54.343  1.00  0.00    -0.351 OA
BRANCH  30  31
HETATM   31  C   UNL     1     -40.314  50.224 -54.191  1.00  0.00     0.175 C 
BRANCH  31  32
HETATM   32  C   UNL     1     -39.329  49.476 -53.299  1.00  0.00     0.022 C 
HETATM   33  C   UNL     1     -39.749  49.512 -51.840  1.00  0.00     0.007 C 
ENDBRANCH  31  32
ENDBRANCH  30  31
ENDBRANCH  27  30
ENDBRANCH   1  24
TORSDOF 7
ENDMDL
MODEL 4
REMARK VINA RESULT:      -8.5      3.295      9.374
REMARK  7 active torsions:
REMARK  status: ('A' for Active; 'I' for Inactive)
REMARK    1  A    between atoms: C_2  and  C_3 
REMARK    2  A    between atoms: C_3  and  O_4 
REMARK    3  A    between atoms: O_4  and  C_5 
REMARK    4  A    between atoms: C_8  and  N_9 
REMARK    5  A    between atoms: C_12  and  N_13 
REMARK    6  A    between atoms: C_17  and  O_18 
REMARK    7  A    between atoms: C_17  and  C_19 
ROOT
HETATM    1  N   UNL     1     -43.521  56.949 -53.392  1.00  0.00    -0.251 N 
HETATM    2  C   UNL     1     -43.151  56.628 -54.678  1.00  0.00     0.262 C 
HETATM    3  O   UNL     1     -42.441  55.736 -55.121  1.00  0.00    -0.270 OA
HETATM    4  C   UNL     1     -43.821  57.611 -55.606  1.00  0.00     0.289 C 
HETATM    5  C   UNL     1     -45.021  58.070 -54.822  1.00  0.00     0.146 C 
HETATM    6  C   UNL     1     -44.547  57.876 -53.408  1.00  0.00     0.233 C 
HETATM    7  O   UNL     1     -45.071  58.486 -52.490  1.00  0.00    -0.273 OA
ENDROOT
BRANCH   4   8
HETATM    8  N   UNL     1     -44.135  57.067 -57.010  1.00  0.00    -0.058 N 
HETATM    9  H   UNL     1     -44.561  56.143 -56.815  1.00  0.00     0.281 HD
HETATM   10  C   UNL     1     -45.202  57.820 -57.780  1.00  0.00     0.239 C 
HETATM   11  C   UNL     1     -45.483  57.112 -59.096  1.00  0.00     0.071 C 
HETATM   12  C   UNL     1     -44.212  56.984 -59.963  1.00  0.00     0.088 C 
HETATM   13  C   UNL     1     -43.217  56.151 -59.130  1.00  0.00     0.071 C 
HETATM   14  C   UNL     1     -42.879  56.821 -57.809  1.00  0.00     0.239 C 
BRANCH  12  15
HETATM   15  O   UNL     1     -44.564  56.183 -61.091  1.00  0.00    -0.385 OA
HETATM   16  H   UNL     1     -44.016  56.433 -61.858  1.00  0.00     0.211 HD
ENDBRANCH  12  15
BRANCH  12  17
HETATM   17  C   UNL     1     -43.659  58.318 -60.482  1.00  0.00    -0.024 A 
HETATM   18  C   UNL     1     -44.507  59.395 -60.812  1.00  0.00     0.011 A 
HETATM   19  C   UNL     1     -43.997  60.600 -61.309  1.00  0.00     0.020 A 
HETATM   20  C   UNL     1     -42.626  60.766 -61.455  1.00  0.00     0.011 A 
HETATM   21 BR   UNL     1     -41.938  62.385 -62.139  1.00  0.00    -0.051 Br
HETATM   22  C   UNL     1     -41.760  59.744 -61.085  1.00  0.00     0.020 A 
HETATM   23  C   UNL     1     -42.272  58.540 -60.588  1.00  0.00     0.011 A 
ENDBRANCH  12  17
ENDBRANCH   4   8
BRANCH   1  24
HETATM   24  C   UNL     1     -42.907  56.429 -52.209  1.00  0.00     0.045 A 
HETATM   25  C   UNL     1     -41.894  57.133 -51.536  1.00  0.00     0.033 A 
HETATM   26  C   UNL     1     -41.339  56.659 -50.335  1.00  0.00     0.039 A 
HETATM   27  C   UNL     1     -41.785  55.469 -49.777  1.00  0.00     0.068 A 
HETATM   28  C   UNL     1     -42.752  54.734 -50.453  1.00  0.00     0.039 A 
HETATM   29  C   UNL     1     -43.308  55.207 -51.649  1.00  0.00     0.033 A 
BRANCH  27  30
HETATM   30  O   UNL     1     -41.352  54.919 -48.606  1.00  0.00    -0.351 OA
BRANCH  30  31
HETATM   31  C   UNL     1     -40.629  53.689 -48.702  1.00  0.00     0.175 C 
BRANCH  31  32
HETATM   32  C   UNL     1     -39.589  53.844 -49.806  1.00  0.00     0.022 C 
HETATM   33  C   UNL     1     -39.742  52.781 -50.879  1.00  0.00     0.007 C 
ENDBRANCH  31  32
ENDBRANCH  30  31
ENDBRANCH  27  30
ENDBRANCH   1  24
TORSDOF 7
ENDMDL
MODEL 5
REMARK VINA RESULT:      -8.4      2.785      4.023
REMARK  7 active torsions:
REMARK  status: ('A' for Active; 'I' for Inactive)
REMARK    1  A    between atoms: C_2  and  C_3 
REMARK    2  A    between atoms: C_3  and  O_4 
REMARK    3  A    between atoms: O_4  and  C_5 
REMARK    4  A    between atoms: C_8  and  N_9 
REMARK    5  A    between atoms: C_12  and  N_13 
REMARK    6  A    between atoms: C_17  and  O_18 
REMARK    7  A    between atoms: C_17  and  C_19 
ROOT
HETATM    1  N   UNL     1     -42.921  57.352 -57.957  1.00  0.00    -0.251 N 
HETATM    2  C   UNL     1     -42.431  57.737 -56.730  1.00  0.00     0.262 C 
HETATM    3  O   UNL     1     -42.226  58.842 -56.247  1.00  0.00    -0.270 OA
HETATM    4  C   UNL     1     -42.158  56.485 -55.933  1.00  0.00     0.289 C 
HETATM    5  C   UNL     1     -43.082  55.470 -56.548  1.00  0.00     0.146 C 
HETATM    6  C   UNL     1     -43.223  56.002 -57.948  1.00  0.00     0.233 C 
HETATM    7  O   UNL     1     -43.571  55.268 -58.858  1.00  0.00    -0.273 OA
ENDROOT
BRANCH   4   8
HETATM    8  N   UNL     1     -42.295  56.644 -54.409  1.00  0.00    -0.058 N 
HETATM    9  H   UNL     1     -42.764  57.563 -54.308  1.00  0.00     0.281 HD
HETATM   10  C   UNL     1     -43.232  55.665 -53.730  1.00  0.00     0.239 C 
HETATM   11  C   UNL     1     -43.352  56.006 -52.253  1.00  0.00     0.071 C 
HETATM   12  C   UNL     1     -41.980  55.984 -51.545  1.00  0.00     0.088 C 
HETATM   13  C   UNL     1     -41.123  57.052 -52.255  1.00  0.00     0.071 C 
HETATM   14  C   UNL     1     -40.949  56.753 -53.734  1.00  0.00     0.239 C 
BRANCH  12  15
HETATM   15  O   UNL     1     -42.196  56.458 -50.216  1.00  0.00    -0.385 OA
HETATM   16  H   UNL     1     -41.590  56.005 -49.601  1.00  0.00     0.211 HD
ENDBRANCH  12  15
BRANCH  12  17
HETATM   17  C   UNL     1     -41.333  54.595 -51.455  1.00  0.00    -0.024 A 
HETATM   18  C   UNL     1     -40.853  53.924 -52.598  1.00  0.00     0.011 A 
HETATM   19  C   UNL     1     -40.288  52.646 -52.511  1.00  0.00     0.020 A 
HETATM   20  C   UNL     1     -40.161  52.026 -51.275  1.00  0.00     0.011 A 
HETATM   21 BR   UNL     1     -39.412  50.297 -51.159  1.00  0.00    -0.051 Br
HETATM   22  C   UNL     1     -40.572  52.685 -50.123  1.00  0.00     0.020 A 
HETATM   23  C   UNL     1     -41.137  53.962 -50.212  1.00  0.00     0.011 A 
ENDBRANCH  12  17
ENDBRANCH   4   8
BRANCH   1  24
HETATM   24  C   UNL     1     -43.061  58.214 -59.090  1.00  0.00     0.045 A 
HETATM   25  C   UNL     1     -44.302  58.773 -59.440  1.00  0.00     0.033 A 
HETATM   26  C   UNL     1     -44.430  59.676 -60.508  1.00  0.00     0.039 A 
HETATM   27  C   UNL     1     -43.318  60.044 -61.253  1.00  0.00     0.068 A 
HETATM   28  C   UNL     1     -42.090  59.467 -60.952  1.00  0.00     0.039 A 
HETATM   29  C   UNL     1     -41.961  58.568 -59.885  1.00  0.00     0.033 A 
BRANCH  27  30
HETATM   30  O   UNL     1     -43.303  60.932 -62.289  1.00  0.00    -0.351 OA
BRANCH  30  31
HETATM   31  C   UNL     1     -42.774  62.231 -62.015  1.00  0.00     0.175 C 
BRANCH  31  32
HETATM   32  C   UNL     1     -41.578  62.451 -62.935  1.00  0.00     0.022 C 
HETATM   33  C   UNL     1     -40.302  62.700 -62.151  1.00  0.00     0.007 C 
ENDBRANCH  31  32
ENDBRANCH  30  31
ENDBRANCH  27  30
ENDBRANCH   1  24
TORSDOF 7
ENDMDL
MODEL 6
REMARK VINA RESULT:      -8.4      5.341      8.638
REMARK  7 active torsions:
REMARK  status: ('A' for Active; 'I' for Inactive)
REMARK    1  A    between atoms: C_2  and  C_3 
REMARK    2  A    between atoms: C_3  and  O_4 
REMARK    3  A    between atoms: O_4  and  C_5 
REMARK    4  A    between atoms: C_8  and  N_9 
REMARK    5  A    between atoms: C_12  and  N_13 
REMARK    6  A    between atoms: C_17  and  O_18 
REMARK    7  A    between atoms: C_17  and  C_19 
ROOT
HETATM    1  N   UNL     1     -41.700  57.589 -52.180  1.00  0.00    -0.251 N 
HETATM    2  C   UNL     1     -42.760  58.265 -52.740  1.00  0.00     0.262 C 
HETATM    3  O   UNL     1     -43.683  57.888 -53.449  1.00  0.00    -0.270 OA
HETATM    4  C   UNL     1     -42.659  59.709 -52.311  1.00  0.00     0.289 C 
HETATM    5  C   UNL     1     -41.871  59.639 -51.032  1.00  0.00     0.146 C 
HETATM    6  C   UNL     1     -41.069  58.385 -51.242  1.00  0.00     0.233 C 
HETATM    7  O   UNL     1     -40.040  58.195 -50.615  1.00  0.00    -0.273 OA
ENDROOT
BRANCH   4   8
HETATM    8  N   UNL     1     -44.004  60.448 -52.202  1.00  0.00    -0.058 N 
HETATM    9  H   UNL     1     -44.391  60.378 -53.161  1.00  0.00     0.281 HD
HETATM   10  C   UNL     1     -45.046  59.784 -51.324  1.00  0.00     0.239 C 
HETATM   11  C   UNL     1     -46.351  60.562 -51.395  1.00  0.00     0.071 C 
HETATM   12  C   UNL     1     -46.168  62.032 -50.959  1.00  0.00     0.088 C 
HETATM   13  C   UNL     1     -45.149  62.639 -51.944  1.00  0.00     0.071 C 
HETATM   14  C   UNL     1     -43.814  61.915 -51.902  1.00  0.00     0.239 C 
BRANCH  12  15
HETATM   15  O   UNL     1     -47.410  62.691 -51.205  1.00  0.00    -0.385 OA
HETATM   16  H   UNL     1     -47.871  62.853 -50.361  1.00  0.00     0.211 HD
ENDBRANCH  12  15
BRANCH  12  17
HETATM   17  C   UNL     1     -45.818  62.216 -49.476  1.00  0.00    -0.024 A 
HETATM   18  C   UNL     1     -45.739  61.122 -48.590  1.00  0.00     0.011 A 
HETATM   19  C   UNL     1     -45.445  61.301 -47.234  1.00  0.00     0.020 A 
HETATM   20  C   UNL     1     -45.192  62.574 -46.740  1.00  0.00     0.011 A 
HETATM   21 BR   UNL     1     -44.809  62.817 -44.907  1.00  0.00    -0.051 Br
HETATM   22  C   UNL     1     -45.205  63.666 -47.598  1.00  0.00     0.020 A 
HETATM   23  C   UNL     1     -45.500  63.485 -48.955  1.00  0.00     0.011 A 
ENDBRANCH  12  17
ENDBRANCH   4   8
BRANCH   1  24
HETATM   24  C   UNL     1     -41.288  56.269 -52.544  1.00  0.00     0.045 A 
HETATM   25  C   UNL     1     -41.352  55.201 -51.633  1.00  0.00     0.033 A 
HETATM   26  C   UNL     1     -41.016  53.889 -52.007  1.00  0.00     0.039 A 
HETATM   27  C   UNL     1     -40.608  53.613 -53.306  1.00  0.00     0.068 A 
HETATM   28  C   UNL     1     -40.492  54.663 -54.209  1.00  0.00     0.039 A 
HETATM   29  C   UNL     1     -40.830  55.971 -53.836  1.00  0.00     0.033 A 
BRANCH  27  30
HETATM   30  O   UNL     1     -40.286  52.383 -53.801  1.00  0.00    -0.351 OA
BRANCH  30  31
HETATM   31  C   UNL     1     -39.407  51.581 -53.009  1.00  0.00     0.175 C 
BRANCH  31  32
HETATM   32  C   UNL     1     -39.764  50.118 -53.253  1.00  0.00     0.022 C 
HETATM   33  C   UNL     1     -39.835  49.795 -54.735  1.00  0.00     0.007 C 
ENDBRANCH  31  32
ENDBRANCH  30  31
ENDBRANCH  27  30
ENDBRANCH   1  24
TORSDOF 7
ENDMDL
MODEL 7
REMARK VINA RESULT:      -8.3      3.063      7.998
REMARK  7 active torsions:
REMARK  status: ('A' for Active; 'I' for Inactive)
REMARK    1  A    between atoms: C_2  and  C_3 
REMARK    2  A    between atoms: C_3  and  O_4 
REMARK    3  A    between atoms: O_4  and  C_5 
REMARK    4  A    between atoms: C_8  and  N_9 
REMARK    5  A    between atoms: C_12  and  N_13 
REMARK    6  A    between atoms: C_17  and  O_18 
REMARK    7  A    between atoms: C_17  and  C_19 
ROOT
HETATM    1  N   UNL     1     -42.423  55.980 -51.711  1.00  0.00    -0.251 N 
HETATM    2  C   UNL     1     -42.195  57.224 -52.254  1.00  0.00     0.262 C 
HETATM    3  O   UNL     1     -41.361  57.622 -53.055  1.00  0.00    -0.270 OA
HETATM    4  C   UNL     1     -43.236  58.164 -51.695  1.00  0.00     0.289 C 
HETATM    5  C   UNL     1     -44.370  57.248 -51.324  1.00  0.00     0.146 C 
HETATM    6  C   UNL     1     -43.641  55.960 -51.057  1.00  0.00     0.233 C 
HETATM    7  O   UNL     1     -44.148  55.093 -50.366  1.00  0.00    -0.273 OA
ENDROOT
BRANCH   4   8
HETATM    8  N   UNL     1     -43.623  59.328 -52.624  1.00  0.00    -0.058 N 
HETATM    9  H   UNL     1     -43.937  60.063 -51.964  1.00  0.00     0.281 HD
HETATM   10  C   UNL     1     -42.477  59.968 -53.383  1.00  0.00     0.239 C 
HETATM   11  C   UNL     1     -42.987  61.163 -54.172  1.00  0.00     0.071 C 
HETATM   12  C   UNL     1     -44.105  60.767 -55.160  1.00  0.00     0.088 C 
HETATM   13  C   UNL     1     -45.246  60.193 -54.296  1.00  0.00     0.071 C 
HETATM   14  C   UNL     1     -44.802  58.979 -53.498  1.00  0.00     0.239 C 
BRANCH  12  15
HETATM   15  O   UNL     1     -44.599  61.979 -55.729  1.00  0.00    -0.385 OA
HETATM   16  H   UNL     1     -44.597  62.685 -55.056  1.00  0.00     0.211 HD
ENDBRANCH  12  15
BRANCH  12  17
HETATM   17  C   UNL     1     -43.645  59.856 -56.307  1.00  0.00    -0.024 A 
HETATM   18  C   UNL     1     -44.516  58.928 -56.913  1.00  0.00     0.011 A 
HETATM   19  C   UNL     1     -44.083  58.083 -57.941  1.00  0.00     0.020 A 
HETATM   20  C   UNL     1     -42.777  58.170 -58.407  1.00  0.00     0.011 A 
HETATM   21 BR   UNL     1     -42.187  57.021 -59.784  1.00  0.00    -0.051 Br
HETATM   22  C   UNL     1     -41.910  59.114 -57.870  1.00  0.00     0.020 A 
HETATM   23  C   UNL     1     -42.346  59.958 -56.842  1.00  0.00     0.011 A 
ENDBRANCH  12  17
ENDBRANCH   4   8
BRANCH   1  24
HETATM   24  C   UNL     1     -41.513  54.878 -51.780  1.00  0.00     0.045 A 
HETATM   25  C   UNL     1     -40.664  54.557 -50.707  1.00  0.00     0.033 A 
HETATM   26  C   UNL     1     -39.820  53.435 -50.743  1.00  0.00     0.039 A 
HETATM   27  C   UNL     1     -39.807  52.603 -51.855  1.00  0.00     0.068 A 
HETATM   28  C   UNL     1     -40.605  52.929 -52.945  1.00  0.00     0.039 A 
HETATM   29  C   UNL     1     -41.448  54.048 -52.909  1.00  0.00     0.033 A 
BRANCH  27  30
HETATM   30  O   UNL     1     -39.061  51.469 -52.001  1.00  0.00    -0.351 OA
BRANCH  30  31
HETATM   31  C   UNL     1     -39.778  50.235 -52.087  1.00  0.00     0.175 C 
BRANCH  31  32
HETATM   32  C   UNL     1     -39.276  49.490 -53.319  1.00  0.00     0.022 C 
HETATM   33  C   UNL     1     -40.041  49.887 -54.569  1.00  0.00     0.007 C 
ENDBRANCH  31  32
ENDBRANCH  30  31
ENDBRANCH  27  30
ENDBRANCH   1  24
TORSDOF 7
ENDMDL
MODEL 8
REMARK VINA RESULT:      -8.3      4.280      7.482
REMARK  7 active torsions:
REMARK  status: ('A' for Active; 'I' for Inactive)
REMARK    1  A    between atoms: C_2  and  C_3 
REMARK    2  A    between atoms: C_3  and  O_4 
REMARK    3  A    between atoms: O_4  and  C_5 
REMARK    4  A    between atoms: C_8  and  N_9 
REMARK    5  A    between atoms: C_12  and  N_13 
REMARK    6  A    between atoms: C_17  and  O_18 
REMARK    7  A    between atoms: C_17  and  C_19 
ROOT
HETATM    1  N   UNL     1     -44.108  59.667 -52.811  1.00  0.00    -0.251 N 
HETATM    2  C   UNL     1     -43.178  58.660 -52.934  1.00  0.00     0.262 C 
HETATM    3  O   UNL     1     -42.474  58.097 -52.108  1.00  0.00    -0.270 OA
HETATM    4  C   UNL     1     -43.129  58.259 -54.389  1.00  0.00     0.289 C 
HETATM    5  C   UNL     1     -44.483  58.660 -54.908  1.00  0.00     0.146 C 
HETATM    6  C   UNL     1     -44.838  59.789 -53.979  1.00  0.00     0.233 C 
HETATM    7  O   UNL     1     -45.668  60.621 -54.304  1.00  0.00    -0.273 OA
ENDROOT
BRANCH   4   8
HETATM    8  N   UNL     1     -42.748  56.790 -54.644  1.00  0.00    -0.058 N 
HETATM    9  H   UNL     1     -42.918  56.675 -55.659  1.00  0.00     0.281 HD
HETATM   10  C   UNL     1     -41.281  56.455 -54.466  1.00  0.00     0.239 C 
HETATM   11  C   UNL     1     -41.034  55.005 -54.852  1.00  0.00     0.071 C 
HETATM   12  C   UNL     1     -41.893  54.032 -54.014  1.00  0.00     0.088 C 
HETATM   13  C   UNL     1     -43.360  54.404 -54.311  1.00  0.00     0.071 C 
HETATM   14  C   UNL     1     -43.674  55.840 -53.925  1.00  0.00     0.239 C 
BRANCH  12  15
HETATM   15  O   UNL     1     -41.689  52.729 -54.561  1.00  0.00    -0.385 OA
HETATM   16  H   UNL     1     -41.074  52.226 -53.995  1.00  0.00     0.211 HD
ENDBRANCH  12  15
BRANCH  12  17
HETATM   17  C   UNL     1     -41.529  53.985 -52.524  1.00  0.00    -0.024 A 
HETATM   18  C   UNL     1     -42.447  54.364 -51.524  1.00  0.00     0.011 A 
HETATM   19  C   UNL     1     -42.099  54.343 -50.168  1.00  0.00     0.020 A 
HETATM   20  C   UNL     1     -40.837  53.913 -49.782  1.00  0.00     0.011 A 
HETATM   21 BR   UNL     1     -40.362  53.898 -47.955  1.00  0.00    -0.051 Br
HETATM   22  C   UNL     1     -39.928  53.479 -50.740  1.00  0.00     0.020 A 
HETATM   23  C   UNL     1     -40.278  53.500 -52.095  1.00  0.00     0.011 A 
ENDBRANCH  12  17
ENDBRANCH   4   8
BRANCH   1  24
HETATM   24  C   UNL     1     -44.271  60.493 -51.654  1.00  0.00     0.045 A 
HETATM   25  C   UNL     1     -45.405  60.390 -50.831  1.00  0.00     0.033 A 
HETATM   26  C   UNL     1     -45.535  61.149 -49.656  1.00  0.00     0.039 A 
HETATM   27  C   UNL     1     -44.531  62.029 -49.274  1.00  0.00     0.068 A 
HETATM   28  C   UNL     1     -43.424  62.180 -50.100  1.00  0.00     0.039 A 
HETATM   29  C   UNL     1     -43.292  61.422 -51.271  1.00  0.00     0.033 A 
BRANCH  27  30
HETATM   30  O   UNL     1     -44.523  62.796 -48.145  1.00  0.00    -0.351 OA
BRANCH  30  31
HETATM   31  C   UNL     1     -45.700  62.760 -47.334  1.00  0.00     0.175 C 
BRANCH  31  32
HETATM   32  C   UNL     1     -45.271  62.453 -45.903  1.00  0.00     0.022 C 
HETATM   33  C   UNL     1     -44.825  61.010 -45.744  1.00  0.00     0.007 C 
ENDBRANCH  31  32
ENDBRANCH  30  31
ENDBRANCH  27  30
ENDBRANCH   1  24
TORSDOF 7
ENDMDL
MODEL 9
REMARK VINA RESULT:      -8.2      5.398      8.885
REMARK  7 active torsions:
REMARK  status: ('A' for Active; 'I' for Inactive)
REMARK    1  A    between atoms: C_2  and  C_3 
REMARK    2  A    between atoms: C_3  and  O_4 
REMARK    3  A    between atoms: O_4  and  C_5 
REMARK    4  A    between atoms: C_8  and  N_9 
REMARK    5  A    between atoms: C_12  and  N_13 
REMARK    6  A    between atoms: C_17  and  O_18 
REMARK    7  A    between atoms: C_17  and  C_19 
ROOT
HETATM    1  N   UNL     1     -42.985  56.812 -52.512  1.00  0.00    -0.251 N 
HETATM    2  C   UNL     1     -42.847  57.628 -51.412  1.00  0.00     0.262 C 
HETATM    3  O   UNL     1     -41.940  57.752 -50.600  1.00  0.00    -0.270 OA
HETATM    4  C   UNL     1     -44.090  58.479 -51.315  1.00  0.00     0.289 C 
HETATM    5  C   UNL     1     -44.602  58.511 -52.729  1.00  0.00     0.146 C 
HETATM    6  C   UNL     1     -44.067  57.215 -53.272  1.00  0.00     0.233 C 
HETATM    7  O   UNL     1     -44.579  56.694 -54.249  1.00  0.00    -0.273 OA
ENDROOT
BRANCH   4   8
HETATM    8  N   UNL     1     -43.882  59.860 -50.670  1.00  0.00    -0.058 N 
HETATM    9  H   UNL     1     -43.046  59.719 -50.074  1.00  0.00     0.281 HD
HETATM   10  C   UNL     1     -43.485  60.972 -51.621  1.00  0.00     0.239 C 
HETATM   11  C   UNL     1     -43.210  62.245 -50.837  1.00  0.00     0.071 C 
HETATM   12  C   UNL     1     -44.435  62.686 -50.007  1.00  0.00     0.088 C 
HETATM   13  C   UNL     1     -44.720  61.528 -49.030  1.00  0.00     0.071 C 
HETATM   14  C   UNL     1     -45.025  60.230 -49.757  1.00  0.00     0.239 C 
BRANCH  12  15
HETATM   15  O   UNL     1     -44.015  63.793 -49.210  1.00  0.00    -0.385 OA
HETATM   16  H   UNL     1     -43.295  64.271 -49.662  1.00  0.00     0.211 HD
ENDBRANCH  12  15
BRANCH  12  17
HETATM   17  C   UNL     1     -45.641  63.134 -50.844  1.00  0.00    -0.024 A 
HETATM   18  C   UNL     1     -46.965  62.936 -50.404  1.00  0.00     0.011 A 
HETATM   19  C   UNL     1     -48.060  63.323 -51.185  1.00  0.00     0.020 A 
HETATM   20  C   UNL     1     -47.854  63.946 -52.409  1.00  0.00     0.011 A 
HETATM   21 BR   UNL     1     -49.331  64.456 -53.469  1.00  0.00    -0.051 Br
HETATM   22  C   UNL     1     -46.562  64.207 -52.845  1.00  0.00     0.020 A 
HETATM   23  C   UNL     1     -45.468  63.819 -52.063  1.00  0.00     0.011 A 
ENDBRANCH  12  17
ENDBRANCH   4   8
BRANCH   1  24
HETATM   24  C   UNL     1     -42.152  55.687 -52.805  1.00  0.00     0.045 A 
HETATM   25  C   UNL     1     -42.131  54.552 -51.977  1.00  0.00     0.033 A 
HETATM   26  C   UNL     1     -41.369  53.416 -52.299  1.00  0.00     0.039 A 
HETATM   27  C   UNL     1     -40.609  53.388 -53.461  1.00  0.00     0.068 A 
HETATM   28  C   UNL     1     -40.579  54.518 -54.269  1.00  0.00     0.039 A 
HETATM   29  C   UNL     1     -41.341  55.650 -53.949  1.00  0.00     0.033 A 
BRANCH  27  30
HETATM   30  O   UNL     1     -39.854  52.340 -53.901  1.00  0.00    -0.351 OA
BRANCH  30  31
HETATM   31  C   UNL     1     -39.363  51.439 -52.906  1.00  0.00     0.175 C 
BRANCH  31  32
HETATM   32  C   UNL     1     -39.823  50.034 -53.282  1.00  0.00     0.022 C 
HETATM   33  C   UNL     1     -39.814  49.820 -54.785  1.00  0.00     0.007 C 
ENDBRANCH  31  32
ENDBRANCH  30  31
ENDBRANCH  27  30
ENDBRANCH   1  24
TORSDOF 7
ENDMDL
MODEL 10
REMARK VINA RESULT:      -8.2      1.725      2.211
REMARK  7 active torsions:
REMARK  status: ('A' for Active; 'I' for Inactive)
REMARK    1  A    between atoms: C_2  and  C_3 
REMARK    2  A    between atoms: C_3  and  O_4 
REMARK    3  A    between atoms: O_4  and  C_5 
REMARK    4  A    between atoms: C_8  and  N_9 
REMARK    5  A    between atoms: C_12  and  N_13 
REMARK    6  A    between atoms: C_17  and  O_18 
REMARK    7  A    between atoms: C_17  and  C_19 
ROOT
HETATM    1  N   UNL     1     -43.679  57.795 -54.548  1.00  0.00    -0.251 N 
HETATM    2  C   UNL     1     -43.263  56.723 -53.792  1.00  0.00     0.262 C 
HETATM    3  O   UNL     1     -42.634  55.715 -54.086  1.00  0.00    -0.270 OA
HETATM    4  C   UNL     1     -43.707  56.967 -52.370  1.00  0.00     0.289 C 
HETATM    5  C   UNL     1     -43.830  58.464 -52.294  1.00  0.00     0.146 C 
HETATM    6  C   UNL     1     -44.125  58.814 -53.727  1.00  0.00     0.233 C 
HETATM    7  O   UNL     1     -44.667  59.870 -54.008  1.00  0.00    -0.273 OA
ENDROOT
BRANCH   4   8
HETATM    8  N   UNL     1     -42.806  56.337 -51.293  1.00  0.00    -0.058 N 
HETATM    9  H   UNL     1     -42.957  56.950 -50.471  1.00  0.00     0.281 HD
HETATM   10  C   UNL     1     -43.222  54.959 -50.818  1.00  0.00     0.239 C 
HETATM   11  C   UNL     1     -42.311  54.509 -49.686  1.00  0.00     0.071 C 
HETATM   12  C   UNL     1     -40.828  54.483 -50.116  1.00  0.00     0.088 C 
HETATM   13  C   UNL     1     -40.481  55.932 -50.515  1.00  0.00     0.071 C 
HETATM   14  C   UNL     1     -41.346  56.431 -51.660  1.00  0.00     0.239 C 
BRANCH  12  15
HETATM   15  O   UNL     1     -40.066  54.193 -48.944  1.00  0.00    -0.385 OA
HETATM   16  H   UNL     1     -39.463  54.935 -48.751  1.00  0.00     0.211 HD
ENDBRANCH  12  15
BRANCH  12  17
HETATM   17  C   UNL     1     -40.492  53.425 -51.176  1.00  0.00    -0.024 A 
HETATM   18  C   UNL     1     -40.559  53.708 -52.554  1.00  0.00     0.011 A 
HETATM   19  C   UNL     1     -40.276  52.731 -53.516  1.00  0.00     0.020 A 
HETATM   20  C   UNL     1     -39.889  51.458 -53.118  1.00  0.00     0.011 A 
HETATM   21 BR   UNL     1     -39.521  50.134 -54.413  1.00  0.00    -0.051 Br
HETATM   22  C   UNL     1     -39.758  51.163 -51.766  1.00  0.00     0.020 A 
HETATM   23  C   UNL     1     -40.042  52.142 -50.807  1.00  0.00     0.011 A 
ENDBRANCH  12  17
ENDBRANCH   4   8
BRANCH   1  24
HETATM   24  C   UNL     1     -43.685  57.834 -55.978  1.00  0.00     0.045 A 
HETATM   25  C   UNL     1     -44.881  57.753 -56.711  1.00  0.00     0.033 A 
HETATM   26  C   UNL     1     -44.898  57.862 -58.111  1.00  0.00     0.039 A 
HETATM   27  C   UNL     1     -43.716  58.059 -58.814  1.00  0.00     0.068 A 
HETATM   28  C   UNL     1     -42.518  58.095 -58.111  1.00  0.00     0.039 A 
HETATM   29  C   UNL     1     -42.501  57.988 -56.714  1.00  0.00     0.033 A 
BRANCH  27  30
HETATM   30  O   UNL     1     -43.602  58.212 -60.165  1.00  0.00    -0.351 OA
BRANCH  30  31
HETATM   31  C   UNL     1     -44.274  59.333 -60.744  1.00  0.00     0.175 C 
BRANCH  31  32
HETATM   32  C   UNL     1     -43.267  60.472 -60.859  1.00  0.00     0.022 C 
HETATM   33  C   UNL     1     -41.911  59.981 -61.333  1.00  0.00     0.007 C 
ENDBRANCH  31  32
ENDBRANCH  30  31
ENDBRANCH  27  30
ENDBRANCH   1  24
TORSDOF 7
ENDMDL
