MODEL 1
REMARK VINA RESULT:      -9.2      0.000      0.000
REMARK  7 active torsions:
REMARK  status: ('A' for Active; 'I' for Inactive)
REMARK    1  A    between atoms: C_2  and  O_3 
REMARK    2  A    between atoms: O_3  and  C_4 
REMARK    3  A    between atoms: C_4  and  C_5 
REMARK    4  A    between atoms: C_6  and  C_7 
REMARK    5  A    between atoms: C_18  and  S_19 
REMARK    6  A    between atoms: S_19  and  C_20 
REMARK    7  A    between atoms: C_20  and  C_21 
ROOT
HETATM    1  C   UNL     1     -44.586  57.296 -58.744  1.00  0.00     0.070 C 
HETATM    2  C   UNL     1     -44.398  58.007 -57.411  1.00  0.00     0.203 C 
HETATM    3  N   UNL     1     -43.830  57.106 -56.406  1.00  0.00    -0.082 N 
HETATM    4  C   UNL     1     -43.354  55.853 -56.676  1.00  0.00     0.726 A 
HETATM    5  N   UNL     1     -43.432  55.380 -57.935  1.00  0.00    -0.192 N 
HETATM    6  N   UNL     1     -43.803  57.368 -55.085  1.00  0.00    -0.128 NA
HETATM    7  C   UNL     1     -43.215  56.257 -54.623  1.00  0.00     0.226 A 
HETATM    8  N   UNL     1     -42.918  55.306 -55.570  1.00  0.00    -0.035 NA
HETATM    9  C   UNL     1     -44.098  56.048 -58.960  1.00  0.00     0.037 C 
HETATM   10  C   UNL     1     -44.254  55.283 -60.250  1.00  0.00     0.070 C 
HETATM   11  H   UNL     1     -43.137  54.423 -58.115  1.00  0.00     0.184 HD
ENDROOT
BRANCH   7  12
HETATM   12  S   UNL     1     -42.922  56.053 -52.923  1.00  0.00    -0.083 SA
BRANCH  12  13
HETATM   13  C   UNL     1     -41.124  55.835 -52.937  1.00  0.00     0.121 C 
BRANCH  13  14
HETATM   14  C   UNL     1     -40.746  54.411 -52.607  1.00  0.00    -0.048 A 
HETATM   15  C   UNL     1     -40.650  53.446 -53.623  1.00  0.00     0.020 A 
HETATM   16  C   UNL     1     -40.258  52.127 -53.341  1.00  0.00    -0.025 A 
HETATM   17  C   UNL     1     -39.959  51.763 -52.009  1.00  0.00    -0.026 A 
HETATM   18  C   UNL     1     -40.147  51.163 -54.356  1.00  0.00     0.012 A 
HETATM   19  C   UNL     1     -40.060  52.729 -50.996  1.00  0.00     0.013 A 
HETATM   20  C   UNL     1     -39.561  50.446 -51.729  1.00  0.00     0.012 A 
HETATM   21  C   UNL     1     -40.445  54.040 -51.292  1.00  0.00     0.009 A 
HETATM   22  C   UNL     1     -39.454  49.500 -52.749  1.00  0.00     0.001 A 
HETATM   23  C   UNL     1     -39.747  49.858 -54.062  1.00  0.00     0.001 A 
ENDBRANCH  13  14
ENDBRANCH  12  13
ENDBRANCH   7  12
BRANCH   2  24
HETATM   24  C   UNL     1     -43.526  59.257 -57.529  1.00  0.00    -0.028 A 
HETATM   25  C   UNL     1     -44.048  60.511 -57.163  1.00  0.00     0.012 A 
HETATM   26  C   UNL     1     -43.266  61.663 -57.264  1.00  0.00     0.043 A 
HETATM   27  C   UNL     1     -41.960  61.567 -57.729  1.00  0.00     0.116 A 
HETATM   28  F   UNL     1     -41.212  62.674 -57.824  1.00  0.00    -0.206 F 
HETATM   29  C   UNL     1     -41.420  60.341 -58.093  1.00  0.00     0.043 A 
HETATM   30  C   UNL     1     -42.197  59.187 -57.992  1.00  0.00     0.012 A 
ENDBRANCH   2  24
BRANCH   1  31
HETATM   31  C   UNL     1     -45.285  58.062 -59.798  1.00  0.00     0.293 C 
HETATM   32  O   UNL     1     -44.731  58.784 -60.611  1.00  0.00    -0.259 OA
BRANCH  31  33
HETATM   33  O   UNL     1     -46.618  57.832 -59.706  1.00  0.00    -0.318 OA
BRANCH  33  34
HETATM   34  C   UNL     1     -47.362  57.957 -60.929  1.00  0.00     0.174 C 
HETATM   35  C   UNL     1     -47.756  56.585 -61.443  1.00  0.00     0.034 C 
ENDBRANCH  33  34
ENDBRANCH  31  33
ENDBRANCH   1  31
TORSDOF 7
ENDMDL
MODEL 2
REMARK VINA RESULT:      -9.1      2.201      3.770
REMARK  7 active torsions:
REMARK  status: ('A' for Active; 'I' for Inactive)
REMARK    1  A    between atoms: C_2  and  O_3 
REMARK    2  A    between atoms: O_3  and  C_4 
REMARK    3  A    between atoms: C_4  and  C_5 
REMARK    4  A    between atoms: C_6  and  C_7 
REMARK    5  A    between atoms: C_18  and  S_19 
REMARK    6  A    between atoms: S_19  and  C_20 
REMARK    7  A    between atoms: C_20  and  C_21 
ROOT
HETATM    1  C   UNL     1     -42.291  58.928 -58.745  1.00  0.00     0.070 C 
HETATM    2  C   UNL     1     -42.780  57.575 -58.244  1.00  0.00     0.203 C 
HETATM    3  N   UNL     1     -42.825  57.538 -56.780  1.00  0.00    -0.082 N 
HETATM    4  C   UNL     1     -42.638  58.628 -55.976  1.00  0.00     0.726 A 
HETATM    5  N   UNL     1     -42.359  59.819 -56.540  1.00  0.00    -0.192 N 
HETATM    6  N   UNL     1     -42.955  56.410 -56.057  1.00  0.00    -0.128 NA
HETATM    7  C   UNL     1     -42.924  56.906 -54.814  1.00  0.00     0.226 A 
HETATM    8  N   UNL     1     -42.737  58.265 -54.723  1.00  0.00    -0.035 NA
HETATM    9  C   UNL     1     -42.116  59.977 -57.903  1.00  0.00     0.037 C 
HETATM   10  C   UNL     1     -41.627  61.339 -58.328  1.00  0.00     0.070 C 
HETATM   11  H   UNL     1     -42.156  60.610 -55.934  1.00  0.00     0.184 HD
ENDROOT
BRANCH   7  12
HETATM   12  S   UNL     1     -43.056  55.854 -53.437  1.00  0.00    -0.083 SA
BRANCH  12  13
HETATM   13  C   UNL     1     -41.325  55.816 -52.903  1.00  0.00     0.121 C 
BRANCH  13  14
HETATM   14  C   UNL     1     -40.878  54.405 -52.608  1.00  0.00    -0.048 A 
HETATM   15  C   UNL     1     -40.826  53.446 -53.633  1.00  0.00     0.020 A 
HETATM   16  C   UNL     1     -40.371  52.140 -53.387  1.00  0.00    -0.025 A 
HETATM   17  C   UNL     1     -39.962  51.783 -52.083  1.00  0.00    -0.026 A 
HETATM   18  C   UNL     1     -40.304  51.182 -54.412  1.00  0.00     0.012 A 
HETATM   19  C   UNL     1     -40.020  52.743 -51.060  1.00  0.00     0.013 A 
HETATM   20  C   UNL     1     -39.501  50.480 -51.839  1.00  0.00     0.012 A 
HETATM   21  C   UNL     1     -40.468  54.041 -51.320  1.00  0.00     0.009 A 
HETATM   22  C   UNL     1     -39.440  49.540 -52.869  1.00  0.00     0.001 A 
HETATM   23  C   UNL     1     -39.841  49.891 -54.155  1.00  0.00     0.001 A 
ENDBRANCH  13  14
ENDBRANCH  12  13
ENDBRANCH   7  12
BRANCH   2  24
HETATM   24  C   UNL     1     -44.150  57.200 -58.808  1.00  0.00    -0.028 A 
HETATM   25  C   UNL     1     -44.252  56.193 -59.785  1.00  0.00     0.012 A 
HETATM   26  C   UNL     1     -45.495  55.837 -60.310  1.00  0.00     0.043 A 
HETATM   27  C   UNL     1     -46.641  56.483 -59.863  1.00  0.00     0.116 A 
HETATM   28  F   UNL     1     -47.832  56.139 -60.368  1.00  0.00    -0.206 F 
HETATM   29  C   UNL     1     -46.568  57.477 -58.897  1.00  0.00     0.043 A 
HETATM   30  C   UNL     1     -45.327  57.836 -58.367  1.00  0.00     0.012 A 
ENDBRANCH   2  24
BRANCH   1  31
HETATM   31  C   UNL     1     -42.067  59.040 -60.203  1.00  0.00     0.293 C 
HETATM   32  O   UNL     1     -41.406  58.256 -60.862  1.00  0.00    -0.259 OA
BRANCH  31  33
HETATM   33  O   UNL     1     -42.706  60.141 -60.668  1.00  0.00    -0.318 OA
BRANCH  33  34
HETATM   34  C   UNL     1     -44.008  59.918 -61.233  1.00  0.00     0.174 C 
HETATM   35  C   UNL     1     -45.033  60.802 -60.548  1.00  0.00     0.034 C 
ENDBRANCH  33  34
ENDBRANCH  31  33
ENDBRANCH   1  31
TORSDOF 7
ENDMDL
MODEL 3
REMARK VINA RESULT:      -8.9      4.535      6.467
REMARK  7 active torsions:
REMARK  status: ('A' for Active; 'I' for Inactive)
REMARK    1  A    between atoms: C_2  and  O_3 
REMARK    2  A    between atoms: O_3  and  C_4 
REMARK    3  A    between atoms: C_4  and  C_5 
REMARK    4  A    between atoms: C_6  and  C_7 
REMARK    5  A    between atoms: C_18  and  S_19 
REMARK    6  A    between atoms: S_19  and  C_20 
REMARK    7  A    between atoms: C_20  and  C_21 
ROOT
HETATM    1  C   UNL     1     -45.240  59.379 -51.698  1.00  0.00     0.070 C 
HETATM    2  C   UNL     1     -44.233  58.239 -51.776  1.00  0.00     0.203 C 
HETATM    3  N   UNL     1     -44.099  57.744 -53.149  1.00  0.00    -0.082 N 
HETATM    4  C   UNL     1     -44.657  58.346 -54.242  1.00  0.00     0.726 A 
HETATM    5  N   UNL     1     -45.411  59.449 -54.070  1.00  0.00    -0.192 N 
HETATM    6  N   UNL     1     -43.497  56.586 -53.478  1.00  0.00    -0.128 NA
HETATM    7  C   UNL     1     -43.655  56.593 -54.808  1.00  0.00     0.226 A 
HETATM    8  N   UNL     1     -44.357  57.661 -55.316  1.00  0.00    -0.035 NA
HETATM    9  C   UNL     1     -45.768  59.939 -52.815  1.00  0.00     0.037 C 
HETATM   10  C   UNL     1     -46.775  61.062 -52.812  1.00  0.00     0.070 C 
HETATM   11  H   UNL     1     -45.876  59.853 -54.880  1.00  0.00     0.184 HD
ENDROOT
BRANCH   7  12
HETATM   12  S   UNL     1     -43.048  55.286 -55.778  1.00  0.00    -0.083 SA
BRANCH  12  13
HETATM   13  C   UNL     1     -41.288  55.373 -55.359  1.00  0.00     0.121 C 
BRANCH  13  14
HETATM   14  C   UNL     1     -40.918  54.320 -54.343  1.00  0.00    -0.048 A 
HETATM   15  C   UNL     1     -40.676  52.996 -54.746  1.00  0.00     0.020 A 
HETATM   16  C   UNL     1     -40.289  52.012 -53.821  1.00  0.00    -0.025 A 
HETATM   17  C   UNL     1     -40.145  52.359 -52.460  1.00  0.00    -0.026 A 
HETATM   18  C   UNL     1     -40.032  50.691 -54.222  1.00  0.00     0.012 A 
HETATM   19  C   UNL     1     -40.392  53.681 -52.060  1.00  0.00     0.013 A 
HETATM   20  C   UNL     1     -39.751  51.377 -51.537  1.00  0.00     0.012 A 
HETATM   21  C   UNL     1     -40.769  54.653 -52.992  1.00  0.00     0.009 A 
HETATM   22  C   UNL     1     -39.498  50.068 -51.952  1.00  0.00     0.001 A 
HETATM   23  C   UNL     1     -39.639  49.725 -53.294  1.00  0.00     0.001 A 
ENDBRANCH  13  14
ENDBRANCH  12  13
ENDBRANCH   7  12
BRANCH   2  24
HETATM   24  C   UNL     1     -42.857  58.633 -51.238  1.00  0.00    -0.028 A 
HETATM   25  C   UNL     1     -42.530  59.992 -51.083  1.00  0.00     0.012 A 
HETATM   26  C   UNL     1     -41.279  60.370 -50.592  1.00  0.00     0.043 A 
HETATM   27  C   UNL     1     -40.351  59.393 -50.252  1.00  0.00     0.116 A 
HETATM   28  F   UNL     1     -39.152  59.758 -49.781  1.00  0.00    -0.206 F 
HETATM   29  C   UNL     1     -40.651  58.044 -50.391  1.00  0.00     0.043 A 
HETATM   30  C   UNL     1     -41.901  57.662 -50.880  1.00  0.00     0.012 A 
ENDBRANCH   2  24
BRANCH   1  31
HETATM   31  C   UNL     1     -45.567  59.867 -50.341  1.00  0.00     0.293 C 
HETATM   32  O   UNL     1     -46.023  59.173 -49.448  1.00  0.00    -0.259 OA
BRANCH  31  33
HETATM   33  O   UNL     1     -45.281  61.190 -50.262  1.00  0.00    -0.318 OA
BRANCH  33  34
HETATM   34  C   UNL     1     -45.840  61.887 -49.138  1.00  0.00     0.174 C 
HETATM   35  C   UNL     1     -44.741  62.287 -48.173  1.00  0.00     0.034 C 
ENDBRANCH  33  34
ENDBRANCH  31  33
ENDBRANCH   1  31
TORSDOF 7
ENDMDL
MODEL 4
REMARK VINA RESULT:      -8.7      3.817      8.879
REMARK  7 active torsions:
REMARK  status: ('A' for Active; 'I' for Inactive)
REMARK    1  A    between atoms: C_2  and  O_3 
REMARK    2  A    between atoms: O_3  and  C_4 
REMARK    3  A    between atoms: C_4  and  C_5 
REMARK    4  A    between atoms: C_6  and  C_7 
REMARK    5  A    between atoms: C_18  and  S_19 
REMARK    6  A    between atoms: S_19  and  C_20 
REMARK    7  A    between atoms: C_20  and  C_21 
ROOT
HETATM    1  C   UNL     1     -42.530  57.539 -52.131  1.00  0.00     0.070 C 
HETATM    2  C   UNL     1     -42.807  57.129 -53.571  1.00  0.00     0.203 C 
HETATM    3  N   UNL     1     -42.397  58.178 -54.508  1.00  0.00    -0.082 N 
HETATM    4  C   UNL     1     -41.687  59.291 -54.155  1.00  0.00     0.726 A 
HETATM    5  N   UNL     1     -41.361  59.478 -52.862  1.00  0.00    -0.192 N 
HETATM    6  N   UNL     1     -42.757  58.215 -55.805  1.00  0.00    -0.128 NA
HETATM    7  C   UNL     1     -42.155  59.343 -56.199  1.00  0.00     0.226 A 
HETATM    8  N   UNL     1     -41.483  60.030 -55.216  1.00  0.00    -0.035 NA
HETATM    9  C   UNL     1     -41.825  58.660 -51.834  1.00  0.00     0.037 C 
HETATM   10  C   UNL     1     -41.521  59.130 -50.433  1.00  0.00     0.070 C 
HETATM   11  H   UNL     1     -40.891  60.341 -52.597  1.00  0.00     0.184 HD
ENDROOT
BRANCH   7  12
HETATM   12  S   UNL     1     -42.294  59.895 -57.841  1.00  0.00    -0.083 SA
BRANCH  12  13
HETATM   13  C   UNL     1     -41.820  58.384 -58.721  1.00  0.00     0.121 C 
BRANCH  13  14
HETATM   14  C   UNL     1     -43.031  57.681 -59.285  1.00  0.00    -0.048 A 
HETATM   15  C   UNL     1     -44.206  58.399 -59.562  1.00  0.00     0.020 A 
HETATM   16  C   UNL     1     -45.328  57.771 -60.127  1.00  0.00    -0.025 A 
HETATM   17  C   UNL     1     -45.275  56.390 -60.418  1.00  0.00    -0.026 A 
HETATM   18  C   UNL     1     -46.500  58.489 -60.419  1.00  0.00     0.012 A 
HETATM   19  C   UNL     1     -44.101  55.675 -60.136  1.00  0.00     0.013 A 
HETATM   20  C   UNL     1     -46.395  55.764 -60.990  1.00  0.00     0.012 A 
HETATM   21  C   UNL     1     -42.989  56.314 -59.581  1.00  0.00     0.009 A 
HETATM   22  C   UNL     1     -47.552  56.492 -61.275  1.00  0.00     0.001 A 
HETATM   23  C   UNL     1     -47.604  57.853 -60.989  1.00  0.00     0.001 A 
ENDBRANCH  13  14
ENDBRANCH  12  13
ENDBRANCH   7  12
BRANCH   2  24
HETATM   24  C   UNL     1     -42.129  55.812 -53.947  1.00  0.00    -0.028 A 
HETATM   25  C   UNL     1     -40.737  55.775 -54.151  1.00  0.00     0.012 A 
HETATM   26  C   UNL     1     -40.101  54.582 -54.494  1.00  0.00     0.043 A 
HETATM   27  C   UNL     1     -40.850  53.420 -54.634  1.00  0.00     0.116 A 
HETATM   28  F   UNL     1     -40.237  52.276 -54.963  1.00  0.00    -0.206 F 
HETATM   29  C   UNL     1     -42.223  53.428 -54.434  1.00  0.00     0.043 A 
HETATM   30  C   UNL     1     -42.864  54.618 -54.089  1.00  0.00     0.012 A 
ENDBRANCH   2  24
BRANCH   1  31
HETATM   31  C   UNL     1     -43.032  56.623 -51.084  1.00  0.00     0.293 C 
HETATM   32  O   UNL     1     -44.207  56.497 -50.782  1.00  0.00    -0.259 OA
BRANCH  31  33
HETATM   33  O   UNL     1     -41.985  55.963 -50.531  1.00  0.00    -0.318 OA
BRANCH  33  34
HETATM   34  C   UNL     1     -42.105  54.532 -50.474  1.00  0.00     0.174 C 
HETATM   35  C   UNL     1     -40.790  53.883 -50.861  1.00  0.00     0.034 C 
ENDBRANCH  33  34
ENDBRANCH  31  33
ENDBRANCH   1  31
TORSDOF 7
ENDMDL
MODEL 5
REMARK VINA RESULT:      -8.6      2.256      4.297
REMARK  7 active torsions:
REMARK  status: ('A' for Active; 'I' for Inactive)
REMARK    1  A    between atoms: C_2  and  O_3 
REMARK    2  A    between atoms: O_3  and  C_4 
REMARK    3  A    between atoms: C_4  and  C_5 
REMARK    4  A    between atoms: C_6  and  C_7 
REMARK    5  A    between atoms: C_18  and  S_19 
REMARK    6  A    between atoms: S_19  and  C_20 
REMARK    7  A    between atoms: C_20  and  C_21 
ROOT
HETATM    1  C   UNL     1     -43.663  59.897 -57.695  1.00  0.00     0.070 C 
HETATM    2  C   UNL     1     -43.154  58.503 -57.355  1.00  0.00     0.203 C 
HETATM    3  N   UNL     1     -43.507  58.130 -55.983  1.00  0.00    -0.082 N 
HETATM    4  C   UNL     1     -44.343  58.854 -55.180  1.00  0.00     0.726 A 
HETATM    5  N   UNL     1     -44.864  60.007 -55.644  1.00  0.00    -0.192 N 
HETATM    6  N   UNL     1     -42.970  57.087 -55.322  1.00  0.00    -0.128 NA
HETATM    7  C   UNL     1     -43.596  57.191 -54.143  1.00  0.00     0.226 A 
HETATM    8  N   UNL     1     -44.452  58.260 -54.019  1.00  0.00    -0.035 NA
HETATM    9  C   UNL     1     -44.488  60.576 -56.859  1.00  0.00     0.037 C 
HETATM   10  C   UNL     1     -45.022  61.961 -57.127  1.00  0.00     0.070 C 
HETATM   11  H   UNL     1     -45.431  60.572 -55.017  1.00  0.00     0.184 HD
ENDROOT
BRANCH   7  12
HETATM   12  S   UNL     1     -43.269  56.060 -52.865  1.00  0.00    -0.083 SA
BRANCH  12  13
HETATM   13  C   UNL     1     -41.463  55.979 -52.970  1.00  0.00     0.121 C 
BRANCH  13  14
HETATM   14  C   UNL     1     -40.995  54.562 -53.196  1.00  0.00    -0.048 A 
HETATM   15  C   UNL     1     -40.630  53.750 -52.109  1.00  0.00     0.020 A 
HETATM   16  C   UNL     1     -40.234  52.416 -52.296  1.00  0.00    -0.025 A 
HETATM   17  C   UNL     1     -40.197  51.881 -53.603  1.00  0.00    -0.026 A 
HETATM   18  C   UNL     1     -39.882  51.597 -51.210  1.00  0.00     0.012 A 
HETATM   19  C   UNL     1     -40.558  52.696 -54.687  1.00  0.00     0.013 A 
HETATM   20  C   UNL     1     -39.808  50.545 -53.788  1.00  0.00     0.012 A 
HETATM   21  C   UNL     1     -40.958  54.020 -54.486  1.00  0.00     0.009 A 
HETATM   22  C   UNL     1     -39.462  49.744 -52.699  1.00  0.00     0.001 A 
HETATM   23  C   UNL     1     -39.499  50.270 -51.410  1.00  0.00     0.001 A 
ENDBRANCH  13  14
ENDBRANCH  12  13
ENDBRANCH   7  12
BRANCH   2  24
HETATM   24  C   UNL     1     -43.668  57.438 -58.324  1.00  0.00    -0.028 A 
HETATM   25  C   UNL     1     -45.032  57.406 -58.668  1.00  0.00     0.012 A 
HETATM   26  C   UNL     1     -45.519  56.441 -59.551  1.00  0.00     0.043 A 
HETATM   27  C   UNL     1     -44.647  55.506 -60.095  1.00  0.00     0.116 A 
HETATM   28  F   UNL     1     -45.117  54.582 -60.942  1.00  0.00    -0.206 F 
HETATM   29  C   UNL     1     -43.297  55.518 -59.775  1.00  0.00     0.043 A 
HETATM   30  C   UNL     1     -42.804  56.482 -58.894  1.00  0.00     0.012 A 
ENDBRANCH   2  24
BRANCH   1  31
HETATM   31  C   UNL     1     -43.245  60.443 -59.005  1.00  0.00     0.293 C 
HETATM   32  O   UNL     1     -43.992  60.611 -59.953  1.00  0.00    -0.259 OA
BRANCH  31  33
HETATM   33  O   UNL     1     -41.917  60.714 -58.970  1.00  0.00    -0.318 OA
BRANCH  33  34
HETATM   34  C   UNL     1     -41.500  61.894 -59.675  1.00  0.00     0.174 C 
HETATM   35  C   UNL     1     -40.227  62.446 -59.063  1.00  0.00     0.034 C 
ENDBRANCH  33  34
ENDBRANCH  31  33
ENDBRANCH   1  31
TORSDOF 7
ENDMDL
MODEL 6
REMARK VINA RESULT:      -8.6      1.742      2.200
REMARK  7 active torsions:
REMARK  status: ('A' for Active; 'I' for Inactive)
REMARK    1  A    between atoms: C_2  and  O_3 
REMARK    2  A    between atoms: O_3  and  C_4 
REMARK    3  A    between atoms: C_4  and  C_5 
REMARK    4  A    between atoms: C_6  and  C_7 
REMARK    5  A    between atoms: C_18  and  S_19 
REMARK    6  A    between atoms: S_19  and  C_20 
REMARK    7  A    between atoms: C_20  and  C_21 
ROOT
HETATM    1  C   UNL     1     -45.500  58.188 -59.416  1.00  0.00     0.070 C 
HETATM    2  C   UNL     1     -44.464  58.764 -58.460  1.00  0.00     0.203 C 
HETATM    3  N   UNL     1     -43.767  57.700 -57.733  1.00  0.00    -0.082 N 
HETATM    4  C   UNL     1     -43.891  56.367 -58.011  1.00  0.00     0.726 A 
HETATM    5  N   UNL     1     -44.730  55.978 -58.991  1.00  0.00    -0.192 N 
HETATM    6  N   UNL     1     -43.002  57.905 -56.644  1.00  0.00    -0.128 NA
HETATM    7  C   UNL     1     -42.624  56.652 -56.364  1.00  0.00     0.226 A 
HETATM    8  N   UNL     1     -43.145  55.680 -57.185  1.00  0.00    -0.035 NA
HETATM    9  C   UNL     1     -45.586  56.855 -59.653  1.00  0.00     0.037 C 
HETATM   10  C   UNL     1     -46.591  56.217 -60.579  1.00  0.00     0.070 C 
HETATM   11  H   UNL     1     -44.867  54.982 -59.148  1.00  0.00     0.184 HD
ENDROOT
BRANCH   7  12
HETATM   12  S   UNL     1     -41.591  56.320 -55.007  1.00  0.00    -0.083 SA
BRANCH  12  13
HETATM   13  C   UNL     1     -40.877  54.741 -55.534  1.00  0.00     0.121 C 
BRANCH  13  14
HETATM   14  C   UNL     1     -40.640  53.831 -54.353  1.00  0.00    -0.048 A 
HETATM   15  C   UNL     1     -40.349  52.471 -54.549  1.00  0.00     0.020 A 
HETATM   16  C   UNL     1     -40.082  51.619 -53.464  1.00  0.00    -0.025 A 
HETATM   17  C   UNL     1     -40.112  52.139 -52.152  1.00  0.00    -0.026 A 
HETATM   18  C   UNL     1     -39.776  50.261 -53.657  1.00  0.00     0.012 A 
HETATM   19  C   UNL     1     -40.407  53.497 -51.959  1.00  0.00     0.013 A 
HETATM   20  C   UNL     1     -39.838  51.288 -51.069  1.00  0.00     0.012 A 
HETATM   21  C   UNL     1     -40.663  54.336 -53.048  1.00  0.00     0.009 A 
HETATM   22  C   UNL     1     -39.535  49.941 -51.277  1.00  0.00     0.001 A 
HETATM   23  C   UNL     1     -39.505  49.428 -52.571  1.00  0.00     0.001 A 
ENDBRANCH  13  14
ENDBRANCH  12  13
ENDBRANCH   7  12
BRANCH   2  24
HETATM   24  C   UNL     1     -43.443  59.656 -59.167  1.00  0.00    -0.028 A 
HETATM   25  C   UNL     1     -43.184  60.948 -58.674  1.00  0.00     0.012 A 
HETATM   26  C   UNL     1     -42.255  61.775 -59.307  1.00  0.00     0.043 A 
HETATM   27  C   UNL     1     -41.580  61.316 -60.431  1.00  0.00     0.116 A 
HETATM   28  F   UNL     1     -40.689  62.112 -61.036  1.00  0.00    -0.206 F 
HETATM   29  C   UNL     1     -41.814  60.044 -60.935  1.00  0.00     0.043 A 
HETATM   30  C   UNL     1     -42.741  59.212 -60.305  1.00  0.00     0.012 A 
ENDBRANCH   2  24
BRANCH   1  31
HETATM   31  C   UNL     1     -46.369  59.169 -60.102  1.00  0.00     0.293 C 
HETATM   32  O   UNL     1     -46.177  59.592 -61.229  1.00  0.00    -0.259 OA
BRANCH  31  33
HETATM   33  O   UNL     1     -47.392  59.510 -59.279  1.00  0.00    -0.318 OA
BRANCH  33  34
HETATM   34  C   UNL     1     -47.706  60.910 -59.217  1.00  0.00     0.174 C 
HETATM   35  C   UNL     1     -46.914  61.574 -58.107  1.00  0.00     0.034 C 
ENDBRANCH  33  34
ENDBRANCH  31  33
ENDBRANCH   1  31
TORSDOF 7
ENDMDL
MODEL 7
REMARK VINA RESULT:      -8.6      1.533      2.003
REMARK  7 active torsions:
REMARK  status: ('A' for Active; 'I' for Inactive)
REMARK    1  A    between atoms: C_2  and  O_3 
REMARK    2  A    between atoms: O_3  and  C_4 
REMARK    3  A    between atoms: C_4  and  C_5 
REMARK    4  A    between atoms: C_6  and  C_7 
REMARK    5  A    between atoms: C_18  and  S_19 
REMARK    6  A    between atoms: S_19  and  C_20 
REMARK    7  A    between atoms: C_20  and  C_21 
ROOT
HETATM    1  C   UNL     1     -44.132  57.468 -58.611  1.00  0.00     0.070 C 
HETATM    2  C   UNL     1     -44.752  57.692 -57.238  1.00  0.00     0.203 C 
HETATM    3  N   UNL     1     -43.857  57.235 -56.172  1.00  0.00    -0.082 N 
HETATM    4  C   UNL     1     -42.565  56.838 -56.370  1.00  0.00     0.726 A 
HETATM    5  N   UNL     1     -42.067  56.824 -57.621  1.00  0.00    -0.192 N 
HETATM    6  N   UNL     1     -44.236  57.059 -54.892  1.00  0.00    -0.128 NA
HETATM    7  C   UNL     1     -43.090  56.630 -54.350  1.00  0.00     0.226 A 
HETATM    8  N   UNL     1     -42.038  56.487 -55.224  1.00  0.00    -0.035 NA
HETATM    9  C   UNL     1     -42.844  57.066 -58.752  1.00  0.00     0.037 C 
HETATM   10  C   UNL     1     -42.169  56.816 -60.078  1.00  0.00     0.070 C 
HETATM   11  H   UNL     1     -41.127  56.464 -57.768  1.00  0.00     0.184 HD
ENDROOT
BRANCH   7  12
HETATM   12  S   UNL     1     -43.002  56.236 -52.660  1.00  0.00    -0.083 SA
BRANCH  12  13
HETATM   13  C   UNL     1     -41.209  56.065 -52.469  1.00  0.00     0.121 C 
BRANCH  13  14
HETATM   14  C   UNL     1     -40.816  54.617 -52.302  1.00  0.00    -0.048 A 
HETATM   15  C   UNL     1     -40.808  53.750 -53.408  1.00  0.00     0.020 A 
HETATM   16  C   UNL     1     -40.403  52.410 -53.280  1.00  0.00    -0.025 A 
HETATM   17  C   UNL     1     -40.002  51.926 -52.015  1.00  0.00    -0.026 A 
HETATM   18  C   UNL     1     -40.380  51.544 -54.385  1.00  0.00     0.012 A 
HETATM   19  C   UNL     1     -40.016  52.794 -50.913  1.00  0.00     0.013 A 
HETATM   20  C   UNL     1     -39.591  50.589 -51.890  1.00  0.00     0.012 A 
HETATM   21  C   UNL     1     -40.413  54.126 -51.055  1.00  0.00     0.009 A 
HETATM   22  C   UNL     1     -39.573  49.741 -52.998  1.00  0.00     0.001 A 
HETATM   23  C   UNL     1     -39.967  50.218 -54.245  1.00  0.00     0.001 A 
ENDBRANCH  13  14
ENDBRANCH  12  13
ENDBRANCH   7  12
BRANCH   2  24
HETATM   24  C   UNL     1     -45.131  59.154 -56.997  1.00  0.00    -0.028 A 
HETATM   25  C   UNL     1     -44.142  60.079 -56.617  1.00  0.00     0.012 A 
HETATM   26  C   UNL     1     -44.470  61.417 -56.393  1.00  0.00     0.043 A 
HETATM   27  C   UNL     1     -45.785  61.837 -56.550  1.00  0.00     0.116 A 
HETATM   28  F   UNL     1     -46.096  63.122 -56.335  1.00  0.00    -0.206 F 
HETATM   29  C   UNL     1     -46.779  60.945 -56.929  1.00  0.00     0.043 A 
HETATM   30  C   UNL     1     -46.456  59.607 -57.155  1.00  0.00     0.012 A 
ENDBRANCH   2  24
BRANCH   1  31
HETATM   31  C   UNL     1     -45.000  57.758 -59.773  1.00  0.00     0.293 C 
HETATM   32  O   UNL     1     -44.837  58.690 -60.541  1.00  0.00    -0.259 OA
BRANCH  31  33
HETATM   33  O   UNL     1     -45.987  56.830 -59.834  1.00  0.00    -0.318 OA
BRANCH  33  34
HETATM   34  C   UNL     1     -45.937  55.934 -60.956  1.00  0.00     0.174 C 
HETATM   35  C   UNL     1     -45.125  54.702 -60.603  1.00  0.00     0.034 C 
ENDBRANCH  33  34
ENDBRANCH  31  33
ENDBRANCH   1  31
TORSDOF 7
ENDMDL
MODEL 8
REMARK VINA RESULT:      -8.4      4.309     10.045
REMARK  7 active torsions:
REMARK  status: ('A' for Active; 'I' for Inactive)
REMARK    1  A    between atoms: C_2  and  O_3 
REMARK    2  A    between atoms: O_3  and  C_4 
REMARK    3  A    between atoms: C_4  and  C_5 
REMARK    4  A    between atoms: C_6  and  C_7 
REMARK    5  A    between atoms: C_18  and  S_19 
REMARK    6  A    between atoms: S_19  and  C_20 
REMARK    7  A    between atoms: C_20  and  C_21 
ROOT
HETATM    1  C   UNL     1     -42.327  57.435 -52.389  1.00  0.00     0.070 C 
HETATM    2  C   UNL     1     -42.723  56.869 -53.746  1.00  0.00     0.203 C 
HETATM    3  N   UNL     1     -42.464  57.835 -54.817  1.00  0.00    -0.082 N 
HETATM    4  C   UNL     1     -41.784  59.008 -54.648  1.00  0.00     0.726 A 
HETATM    5  N   UNL     1     -41.341  59.339 -53.420  1.00  0.00    -0.192 N 
HETATM    6  N   UNL     1     -42.953  57.725 -56.067  1.00  0.00    -0.128 NA
HETATM    7  C   UNL     1     -42.454  58.833 -56.628  1.00  0.00     0.226 A 
HETATM    8  N   UNL     1     -41.725  59.645 -55.790  1.00  0.00    -0.035 NA
HETATM    9  C   UNL     1     -41.657  58.609 -52.275  1.00  0.00     0.037 C 
HETATM   10  C   UNL     1     -41.242  59.231 -50.965  1.00  0.00     0.070 C 
HETATM   11  H   UNL     1     -40.895  60.243 -53.289  1.00  0.00     0.184 HD
ENDROOT
BRANCH   7  12
HETATM   12  S   UNL     1     -42.783  59.209 -58.292  1.00  0.00    -0.083 SA
BRANCH  12  13
HETATM   13  C   UNL     1     -42.780  61.019 -58.213  1.00  0.00     0.121 C 
BRANCH  13  14
HETATM   14  C   UNL     1     -41.910  61.609 -59.295  1.00  0.00    -0.048 A 
HETATM   15  C   UNL     1     -40.839  62.457 -58.965  1.00  0.00     0.020 A 
HETATM   16  C   UNL     1     -39.992  62.980 -59.956  1.00  0.00    -0.025 A 
HETATM   17  C   UNL     1     -40.223  62.652 -61.309  1.00  0.00    -0.026 A 
HETATM   18  C   UNL     1     -38.912  63.817 -59.628  1.00  0.00     0.012 A 
HETATM   19  C   UNL     1     -41.296  61.808 -61.636  1.00  0.00     0.013 A 
HETATM   20  C   UNL     1     -39.372  63.170 -62.298  1.00  0.00     0.012 A 
HETATM   21  C   UNL     1     -42.127  61.288 -60.640  1.00  0.00     0.009 A 
HETATM   22  C   UNL     1     -38.302  63.999 -61.957  1.00  0.00     0.001 A 
HETATM   23  C   UNL     1     -38.072  64.323 -60.622  1.00  0.00     0.001 A 
ENDBRANCH  13  14
ENDBRANCH  12  13
ENDBRANCH   7  12
BRANCH   2  24
HETATM   24  C   UNL     1     -42.015  55.551 -54.063  1.00  0.00    -0.028 A 
HETATM   25  C   UNL     1     -40.656  55.558 -54.429  1.00  0.00     0.012 A 
HETATM   26  C   UNL     1     -39.994  54.365 -54.721  1.00  0.00     0.043 A 
HETATM   27  C   UNL     1     -40.683  53.161 -54.647  1.00  0.00     0.116 A 
HETATM   28  F   UNL     1     -40.045  52.017 -54.926  1.00  0.00    -0.206 F 
HETATM   29  C   UNL     1     -42.023  53.126 -54.283  1.00  0.00     0.043 A 
HETATM   30  C   UNL     1     -42.689  54.317 -53.989  1.00  0.00     0.012 A 
ENDBRANCH   2  24
BRANCH   1  31
HETATM   31  C   UNL     1     -42.673  56.607 -51.212  1.00  0.00     0.293 C 
HETATM   32  O   UNL     1     -43.811  56.329 -50.874  1.00  0.00    -0.259 OA
BRANCH  31  33
HETATM   33  O   UNL     1     -41.532  56.221 -50.588  1.00  0.00    -0.318 OA
BRANCH  33  34
HETATM   34  C   UNL     1     -41.528  54.884 -50.063  1.00  0.00     0.174 C 
HETATM   35  C   UNL     1     -40.652  53.990 -50.919  1.00  0.00     0.034 C 
ENDBRANCH  33  34
ENDBRANCH  31  33
ENDBRANCH   1  31
TORSDOF 7
ENDMDL
MODEL 9
REMARK VINA RESULT:      -8.4      3.830      5.650
REMARK  7 active torsions:
REMARK  status: ('A' for Active; 'I' for Inactive)
REMARK    1  A    between atoms: C_2  and  O_3 
REMARK    2  A    between atoms: O_3  and  C_4 
REMARK    3  A    between atoms: C_4  and  C_5 
REMARK    4  A    between atoms: C_6  and  C_7 
REMARK    5  A    between atoms: C_18  and  S_19 
REMARK    6  A    between atoms: S_19  and  C_20 
REMARK    7  A    between atoms: C_20  and  C_21 
ROOT
HETATM    1  C   UNL     1     -43.921  60.346 -53.567  1.00  0.00     0.070 C 
HETATM    2  C   UNL     1     -43.402  58.993 -53.099  1.00  0.00     0.203 C 
HETATM    3  N   UNL     1     -43.258  58.064 -54.223  1.00  0.00    -0.082 N 
HETATM    4  C   UNL     1     -43.388  58.419 -55.537  1.00  0.00     0.726 A 
HETATM    5  N   UNL     1     -43.702  59.692 -55.844  1.00  0.00    -0.192 N 
HETATM    6  N   UNL     1     -43.080  56.736 -54.087  1.00  0.00    -0.128 NA
HETATM    7  C   UNL     1     -43.026  56.360 -55.370  1.00  0.00     0.226 A 
HETATM    8  N   UNL     1     -43.204  57.365 -56.291  1.00  0.00    -0.035 NA
HETATM    9  C   UNL     1     -44.038  60.646 -54.885  1.00  0.00     0.037 C 
HETATM   10  C   UNL     1     -44.552  61.960 -55.418  1.00  0.00     0.070 C 
HETATM   11  H   UNL     1     -43.863  59.933 -56.819  1.00  0.00     0.184 HD
ENDROOT
BRANCH   7  12
HETATM   12  S   UNL     1     -42.802  54.690 -55.795  1.00  0.00    -0.083 SA
BRANCH  12  13
HETATM   13  C   UNL     1     -41.018  54.532 -55.524  1.00  0.00     0.121 C 
BRANCH  13  14
HETATM   14  C   UNL     1     -40.725  53.662 -54.326  1.00  0.00    -0.048 A 
HETATM   15  C   UNL     1     -40.421  52.300 -54.492  1.00  0.00     0.020 A 
HETATM   16  C   UNL     1     -40.103  51.485 -53.393  1.00  0.00    -0.025 A 
HETATM   17  C   UNL     1     -40.094  52.043 -52.096  1.00  0.00    -0.026 A 
HETATM   18  C   UNL     1     -39.785  50.126 -53.557  1.00  0.00     0.012 A 
HETATM   19  C   UNL     1     -40.402  53.402 -51.934  1.00  0.00     0.013 A 
HETATM   20  C   UNL     1     -39.769  51.229 -51.000  1.00  0.00     0.012 A 
HETATM   21  C   UNL     1     -40.710  54.205 -53.036  1.00  0.00     0.009 A 
HETATM   22  C   UNL     1     -39.454  49.881 -51.179  1.00  0.00     0.001 A 
HETATM   23  C   UNL     1     -39.462  49.330 -52.457  1.00  0.00     0.001 A 
ENDBRANCH  13  14
ENDBRANCH  12  13
ENDBRANCH   7  12
BRANCH   2  24
HETATM   24  C   UNL     1     -42.074  59.101 -52.350  1.00  0.00    -0.028 A 
HETATM   25  C   UNL     1     -42.070  59.267 -50.953  1.00  0.00     0.012 A 
HETATM   26  C   UNL     1     -40.867  59.367 -50.253  1.00  0.00     0.043 A 
HETATM   27  C   UNL     1     -39.663  59.300 -50.943  1.00  0.00     0.116 A 
HETATM   28  F   UNL     1     -38.510  59.395 -50.269  1.00  0.00    -0.206 F 
HETATM   29  C   UNL     1     -39.639  59.131 -52.321  1.00  0.00     0.043 A 
HETATM   30  C   UNL     1     -40.839  59.029 -53.025  1.00  0.00     0.012 A 
ENDBRANCH   2  24
BRANCH   1  31
HETATM   31  C   UNL     1     -44.244  61.322 -52.504  1.00  0.00     0.293 C 
HETATM   32  O   UNL     1     -45.290  61.340 -51.876  1.00  0.00    -0.259 OA
BRANCH  31  33
HETATM   33  O   UNL     1     -43.202  62.177 -52.353  1.00  0.00    -0.318 OA
BRANCH  33  34
HETATM   34  C   UNL     1     -43.547  63.549 -52.107  1.00  0.00     0.174 C 
HETATM   35  C   UNL     1     -42.884  64.446 -53.135  1.00  0.00     0.034 C 
ENDBRANCH  33  34
ENDBRANCH  31  33
ENDBRANCH   1  31
TORSDOF 7
ENDMDL
MODEL 10
REMARK VINA RESULT:      -8.0      3.706      9.667
REMARK  7 active torsions:
REMARK  status: ('A' for Active; 'I' for Inactive)
REMARK    1  A    between atoms: C_2  and  O_3 
REMARK    2  A    between atoms: O_3  and  C_4 
REMARK    3  A    between atoms: C_4  and  C_5 
REMARK    4  A    between atoms: C_6  and  C_7 
REMARK    5  A    between atoms: C_18  and  S_19 
REMARK    6  A    between atoms: S_19  and  C_20 
REMARK    7  A    between atoms: C_20  and  C_21 
ROOT
HETATM    1  C   UNL     1     -42.697  57.452 -54.154  1.00  0.00     0.070 C 
HETATM    2  C   UNL     1     -42.993  56.266 -55.061  1.00  0.00     0.203 C 
HETATM    3  N   UNL     1     -42.928  56.651 -56.474  1.00  0.00    -0.082 N 
HETATM    4  C   UNL     1     -42.477  57.860 -56.922  1.00  0.00     0.726 A 
HETATM    5  N   UNL     1     -42.092  58.790 -56.026  1.00  0.00    -0.192 N 
HETATM    6  N   UNL     1     -43.399  55.896 -57.484  1.00  0.00    -0.128 NA
HETATM    7  C   UNL     1     -43.120  56.681 -58.532  1.00  0.00     0.226 A 
HETATM    8  N   UNL     1     -42.548  57.893 -58.228  1.00  0.00    -0.035 NA
HETATM    9  C   UNL     1     -42.256  58.635 -54.651  1.00  0.00     0.037 C 
HETATM   10  C   UNL     1     -41.952  59.852 -53.813  1.00  0.00     0.070 C 
HETATM   11  H   UNL     1     -41.820  59.710 -56.364  1.00  0.00     0.184 HD
ENDROOT
BRANCH   7  12
HETATM   12  S   UNL     1     -43.529  56.182 -60.146  1.00  0.00    -0.083 SA
BRANCH  12  13
HETATM   13  C   UNL     1     -45.263  55.718 -59.902  1.00  0.00     0.121 C 
BRANCH  13  14
HETATM   14  C   UNL     1     -46.189  56.816 -60.368  1.00  0.00    -0.048 A 
HETATM   15  C   UNL     1     -47.243  56.531 -61.253  1.00  0.00     0.020 A 
HETATM   16  C   UNL     1     -48.141  57.530 -61.662  1.00  0.00    -0.025 A 
HETATM   17  C   UNL     1     -47.979  58.847 -61.179  1.00  0.00    -0.026 A 
HETATM   18  C   UNL     1     -49.204  57.246 -62.536  1.00  0.00     0.012 A 
HETATM   19  C   UNL     1     -46.924  59.129 -60.299  1.00  0.00     0.013 A 
HETATM   20  C   UNL     1     -48.882  59.844 -61.584  1.00  0.00     0.012 A 
HETATM   21  C   UNL     1     -46.041  58.124 -59.893  1.00  0.00     0.009 A 
HETATM   22  C   UNL     1     -49.933  59.545 -62.451  1.00  0.00     0.001 A 
HETATM   23  C   UNL     1     -50.094  58.247 -62.927  1.00  0.00     0.001 A 
ENDBRANCH  13  14
ENDBRANCH  12  13
ENDBRANCH   7  12
BRANCH   2  24
HETATM   24  C   UNL     1     -42.055  55.085 -54.809  1.00  0.00    -0.028 A 
HETATM   25  C   UNL     1     -40.676  55.224 -55.049  1.00  0.00     0.012 A 
HETATM   26  C   UNL     1     -39.805  54.156 -54.824  1.00  0.00     0.043 A 
HETATM   27  C   UNL     1     -40.307  52.948 -54.356  1.00  0.00     0.116 A 
HETATM   28  F   UNL     1     -39.469  51.926 -54.140  1.00  0.00    -0.206 F 
HETATM   29  C   UNL     1     -41.663  52.786 -54.107  1.00  0.00     0.043 A 
HETATM   30  C   UNL     1     -42.538  53.851 -54.329  1.00  0.00     0.012 A 
ENDBRANCH   2  24
BRANCH   1  31
HETATM   31  C   UNL     1     -42.872  57.223 -52.703  1.00  0.00     0.293 C 
HETATM   32  O   UNL     1     -43.950  57.205 -52.132  1.00  0.00    -0.259 OA
BRANCH  31  33
HETATM   33  O   UNL     1     -41.656  57.041 -52.131  1.00  0.00    -0.318 OA
BRANCH  33  34
HETATM   34  C   UNL     1     -41.651  56.327 -50.885  1.00  0.00     0.174 C 
HETATM   35  C   UNL     1     -41.089  54.932 -51.086  1.00  0.00     0.034 C 
ENDBRANCH  33  34
ENDBRANCH  31  33
ENDBRANCH   1  31
TORSDOF 7
ENDMDL
