MODEL 1
REMARK VINA RESULT:      -8.3      0.000      0.000
REMARK  10 active torsions:
REMARK  status: ('A' for Active; 'I' for Inactive)
REMARK    1  A    between atoms: C_6  and  C_7 
REMARK    2  A    between atoms: C_9  and  C_10 
REMARK    3  A    between atoms: C_10  and  C_11 
REMARK       I    between atoms: C_11  and  N_12 
REMARK    4  A    between atoms: N_12  and  C_13 
REMARK    5  A    between atoms: C_13  and  C_14 
REMARK    6  A    between atoms: C_14  and  N_15 
REMARK    7  A    between atoms: C_26  and  C_27 
REMARK    8  A    between atoms: C_27  and  O_28 
REMARK    9  A    between atoms: O_28  and  C_29 
REMARK   10  A    between atoms: C_29  and  C_30 
ROOT
HETATM    1  C   UNL     1     -42.025  57.380 -54.830  1.00  0.00     0.166 C 
HETATM    2  N   UNL     1     -42.265  57.800 -56.229  1.00  0.00    -0.318 N 
HETATM    3  C   UNL     1     -42.604  57.329 -57.382  1.00  0.00     0.011 C 
HETATM    4  C   UNL     1     -42.094  59.349 -56.306  1.00  0.00     0.170 C 
HETATM    5  S   UNL     1     -41.722  59.854 -57.911  1.00  0.00    -0.086 SA
HETATM    6  C   UNL     1     -42.419  58.293 -58.548  1.00  0.00     0.135 C 
HETATM    7  N   UNL     1     -42.333  60.137 -55.312  1.00  0.00    -0.229 NA
HETATM    8  C   UNL     1     -42.957  59.565 -54.207  1.00  0.00     0.048 C 
HETATM    9  C   UNL     1     -43.773  60.529 -53.379  1.00  0.00     0.071 C 
HETATM   10  C   UNL     1     -42.921  58.228 -53.978  1.00  0.00     0.069 C 
ENDROOT
BRANCH   3  11
HETATM   11  C   UNL     1     -43.226  55.973 -57.572  1.00  0.00     0.156 C 
BRANCH  11  12
HETATM   12  C   UNL     1     -43.755  55.830 -58.990  1.00  0.00     0.223 C 
HETATM   13  N   UNL     1     -45.095  56.069 -59.178  1.00  0.00    -0.359 N 
HETATM   14  H   UNL     1     -45.683  56.164 -58.353  1.00  0.00     0.162 HD
HETATM   15  O   UNL     1     -43.008  55.525 -59.916  1.00  0.00    -0.273 OA
BRANCH  13  16
HETATM   16  C   UNL     1     -45.761  55.677 -60.422  1.00  0.00     0.150 C 
BRANCH  16  17
HETATM   17  C   UNL     1     -47.227  56.155 -60.580  1.00  0.00     0.253 C 
BRANCH  17  18
HETATM   18  N   UNL     1     -47.362  57.278 -61.601  1.00  0.00    -0.077 N 
HETATM   19  H   UNL     1     -46.557  57.240 -62.241  1.00  0.00     0.279 HD
HETATM   20  C   UNL     1     -48.612  57.173 -62.437  1.00  0.00     0.269 C 
HETATM   21  C   UNL     1     -47.289  58.635 -60.938  1.00  0.00     0.269 C 
ENDBRANCH  17  18
ENDBRANCH  16  17
ENDBRANCH  13  16
ENDBRANCH  11  12
ENDBRANCH   3  11
BRANCH   1  22
HETATM   22  C   UNL     1     -41.634  55.918 -54.602  1.00  0.00    -0.024 A 
HETATM   23  C   UNL     1     -42.619  54.882 -54.610  1.00  0.00    -0.053 A 
HETATM   24  C   UNL     1     -42.230  53.526 -54.509  1.00  0.00     0.014 A 
HETATM   25  C   UNL     1     -44.105  55.119 -54.751  1.00  0.00     0.049 C 
HETATM   26  C   UNL     1     -40.890  53.153 -54.442  1.00  0.00    -0.061 A 
HETATM   27  C   UNL     1     -40.483  51.708 -54.477  1.00  0.00     0.048 C 
HETATM   28  C   UNL     1     -39.926  54.151 -54.458  1.00  0.00     0.007 A 
HETATM   29  C   UNL     1     -40.293  55.500 -54.532  1.00  0.00     0.011 A 
ENDBRANCH   1  22
BRANCH  10  30
HETATM   30  C   UNL     1     -43.930  57.664 -53.080  1.00  0.00     0.294 C 
HETATM   31  O   UNL     1     -45.099  57.500 -53.362  1.00  0.00    -0.259 OA
BRANCH  30  32
HETATM   32  O   UNL     1     -43.303  57.411 -51.906  1.00  0.00    -0.313 OA
BRANCH  32  33
HETATM   33  C   UNL     1     -43.726  56.232 -51.192  1.00  0.00     0.217 C 
BRANCH  33  34
HETATM   34  C   UNL     1     -42.491  55.412 -50.905  1.00  0.00    -0.034 A 
HETATM   35  C   UNL     1     -41.296  56.030 -50.513  1.00  0.00     0.009 A 
HETATM   36  C   UNL     1     -40.142  55.272 -50.308  1.00  0.00     0.001 A 
HETATM   37  C   UNL     1     -40.167  53.891 -50.492  1.00  0.00     0.000 A 
HETATM   38  C   UNL     1     -41.352  53.262 -50.868  1.00  0.00     0.001 A 
HETATM   39  C   UNL     1     -42.510  54.019 -51.063  1.00  0.00     0.009 A 
ENDBRANCH  33  34
ENDBRANCH  32  33
ENDBRANCH  30  32
ENDBRANCH  10  30
TORSDOF 10
ENDMDL
MODEL 2
REMARK VINA RESULT:      -8.2      2.528      4.710
REMARK  10 active torsions:
REMARK  status: ('A' for Active; 'I' for Inactive)
REMARK    1  A    between atoms: C_6  and  C_7 
REMARK    2  A    between atoms: C_9  and  C_10 
REMARK    3  A    between atoms: C_10  and  C_11 
REMARK       I    between atoms: C_11  and  N_12 
REMARK    4  A    between atoms: N_12  and  C_13 
REMARK    5  A    between atoms: C_13  and  C_14 
REMARK    6  A    between atoms: C_14  and  N_15 
REMARK    7  A    between atoms: C_26  and  C_27 
REMARK    8  A    between atoms: C_27  and  O_28 
REMARK    9  A    between atoms: O_28  and  C_29 
REMARK   10  A    between atoms: C_29  and  C_30 
ROOT
HETATM    1  C   UNL     1     -42.096  57.218 -53.326  1.00  0.00     0.166 C 
HETATM    2  N   UNL     1     -42.979  58.180 -52.628  1.00  0.00    -0.318 N 
HETATM    3  C   UNL     1     -44.179  58.656 -52.657  1.00  0.00     0.011 C 
HETATM    4  C   UNL     1     -42.191  58.773 -51.420  1.00  0.00     0.170 C 
HETATM    5  S   UNL     1     -42.837  60.299 -50.945  1.00  0.00    -0.086 SA
HETATM    6  C   UNL     1     -44.407  59.875 -51.771  1.00  0.00     0.135 C 
HETATM    7  N   UNL     1     -41.266  58.127 -50.793  1.00  0.00    -0.229 NA
HETATM    8  C   UNL     1     -41.132  56.778 -51.111  1.00  0.00     0.048 C 
HETATM    9  C   UNL     1     -40.552  55.928 -50.005  1.00  0.00     0.071 C 
HETATM   10  C   UNL     1     -41.601  56.268 -52.278  1.00  0.00     0.069 C 
ENDROOT
BRANCH   3  11
HETATM   11  C   UNL     1     -45.305  58.018 -53.424  1.00  0.00     0.156 C 
BRANCH  11  12
HETATM   12  C   UNL     1     -45.473  58.695 -54.774  1.00  0.00     0.223 C 
HETATM   13  N   UNL     1     -45.967  57.923 -55.797  1.00  0.00    -0.359 N 
HETATM   14  H   UNL     1     -46.036  56.918 -55.647  1.00  0.00     0.162 HD
HETATM   15  O   UNL     1     -45.186  59.880 -54.927  1.00  0.00    -0.273 OA
BRANCH  13  16
HETATM   16  C   UNL     1     -45.890  58.378 -57.187  1.00  0.00     0.150 C 
BRANCH  16  17
HETATM   17  C   UNL     1     -47.092  57.995 -58.089  1.00  0.00     0.253 C 
BRANCH  17  18
HETATM   18  N   UNL     1     -46.702  57.891 -59.558  1.00  0.00    -0.077 N 
HETATM   19  H   UNL     1     -47.405  58.388 -60.122  1.00  0.00     0.279 HD
HETATM   20  C   UNL     1     -45.359  58.505 -59.860  1.00  0.00     0.269 C 
HETATM   21  C   UNL     1     -46.739  56.456 -60.035  1.00  0.00     0.269 C 
ENDBRANCH  17  18
ENDBRANCH  16  17
ENDBRANCH  13  16
ENDBRANCH  11  12
ENDBRANCH   3  11
BRANCH   1  22
HETATM   22  C   UNL     1     -42.431  56.903 -54.786  1.00  0.00    -0.024 A 
HETATM   23  C   UNL     1     -42.254  57.885 -55.810  1.00  0.00    -0.053 A 
HETATM   24  C   UNL     1     -42.461  57.545 -57.167  1.00  0.00     0.014 A 
HETATM   25  C   UNL     1     -41.818  59.310 -55.560  1.00  0.00     0.049 C 
HETATM   26  C   UNL     1     -42.798  56.251 -57.554  1.00  0.00    -0.061 A 
HETATM   27  C   UNL     1     -42.877  55.868 -59.004  1.00  0.00     0.048 C 
HETATM   28  C   UNL     1     -42.949  55.286 -56.568  1.00  0.00     0.007 A 
HETATM   29  C   UNL     1     -42.772  55.609 -55.217  1.00  0.00     0.011 A 
ENDBRANCH   1  22
BRANCH  10  30
HETATM   30  C   UNL     1     -41.816  54.823 -52.351  1.00  0.00     0.294 C 
HETATM   31  O   UNL     1     -42.887  54.270 -52.207  1.00  0.00    -0.259 OA
BRANCH  30  32
HETATM   32  O   UNL     1     -40.603  54.262 -52.570  1.00  0.00    -0.313 OA
BRANCH  32  33
HETATM   33  C   UNL     1     -40.449  53.516 -53.793  1.00  0.00     0.217 C 
BRANCH  33  34
HETATM   34  C   UNL     1     -40.100  52.096 -53.414  1.00  0.00    -0.034 A 
HETATM   35  C   UNL     1     -40.182  51.063 -54.356  1.00  0.00     0.009 A 
HETATM   36  C   UNL     1     -39.917  49.744 -53.985  1.00  0.00     0.001 A 
HETATM   37  C   UNL     1     -39.568  49.442 -52.669  1.00  0.00     0.000 A 
HETATM   38  C   UNL     1     -39.470  50.462 -51.725  1.00  0.00     0.001 A 
HETATM   39  C   UNL     1     -39.725  51.783 -52.100  1.00  0.00     0.009 A 
ENDBRANCH  33  34
ENDBRANCH  32  33
ENDBRANCH  30  32
ENDBRANCH  10  30
TORSDOF 10
ENDMDL
MODEL 3
REMARK VINA RESULT:      -8.2      2.268      4.226
REMARK  10 active torsions:
REMARK  status: ('A' for Active; 'I' for Inactive)
REMARK    1  A    between atoms: C_6  and  C_7 
REMARK    2  A    between atoms: C_9  and  C_10 
REMARK    3  A    between atoms: C_10  and  C_11 
REMARK       I    between atoms: C_11  and  N_12 
REMARK    4  A    between atoms: N_12  and  C_13 
REMARK    5  A    between atoms: C_13  and  C_14 
REMARK    6  A    between atoms: C_14  and  N_15 
REMARK    7  A    between atoms: C_26  and  C_27 
REMARK    8  A    between atoms: C_27  and  O_28 
REMARK    9  A    between atoms: O_28  and  C_29 
REMARK   10  A    between atoms: C_29  and  C_30 
ROOT
HETATM    1  C   UNL     1     -42.250  58.605 -54.634  1.00  0.00     0.166 C 
HETATM    2  N   UNL     1     -43.458  59.119 -53.952  1.00  0.00    -0.318 N 
HETATM    3  C   UNL     1     -44.747  59.046 -53.985  1.00  0.00     0.011 C 
HETATM    4  C   UNL     1     -42.998  60.010 -52.757  1.00  0.00     0.170 C 
HETATM    5  S   UNL     1     -44.227  61.132 -52.308  1.00  0.00    -0.086 SA
HETATM    6  C   UNL     1     -45.470  60.072 -53.120  1.00  0.00     0.135 C 
HETATM    7  N   UNL     1     -41.889  59.824 -52.122  1.00  0.00    -0.229 NA
HETATM    8  C   UNL     1     -41.200  58.651 -52.416  1.00  0.00     0.048 C 
HETATM    9  C   UNL     1     -40.322  58.143 -51.296  1.00  0.00     0.071 C 
HETATM   10  C   UNL     1     -41.406  57.970 -53.571  1.00  0.00     0.069 C 
ENDROOT
BRANCH   3  11
HETATM   11  C   UNL     1     -45.497  57.981 -54.735  1.00  0.00     0.156 C 
BRANCH  11  12
HETATM   12  C   UNL     1     -45.945  58.506 -56.090  1.00  0.00     0.223 C 
HETATM   13  N   UNL     1     -46.794  57.705 -56.815  1.00  0.00    -0.359 N 
HETATM   14  H   UNL     1     -46.943  56.751 -56.492  1.00  0.00     0.162 HD
HETATM   15  O   UNL     1     -45.566  59.600 -56.500  1.00  0.00    -0.273 OA
BRANCH  13  16
HETATM   16  C   UNL     1     -47.045  57.967 -58.234  1.00  0.00     0.150 C 
BRANCH  16  17
HETATM   17  C   UNL     1     -46.058  57.301 -59.227  1.00  0.00     0.253 C 
BRANCH  17  18
HETATM   18  N   UNL     1     -46.647  56.057 -59.880  1.00  0.00    -0.077 N 
HETATM   19  H   UNL     1     -47.240  55.573 -59.193  1.00  0.00     0.279 HD
HETATM   20  C   UNL     1     -47.504  56.367 -61.081  1.00  0.00     0.269 C 
HETATM   21  C   UNL     1     -45.566  55.068 -60.252  1.00  0.00     0.269 C 
ENDBRANCH  17  18
ENDBRANCH  16  17
ENDBRANCH  13  16
ENDBRANCH  11  12
ENDBRANCH   3  11
BRANCH   1  22
HETATM   22  C   UNL     1     -42.415  58.151 -56.088  1.00  0.00    -0.024 A 
HETATM   23  C   UNL     1     -42.150  59.045 -57.172  1.00  0.00    -0.053 A 
HETATM   24  C   UNL     1     -42.198  58.580 -58.506  1.00  0.00     0.014 A 
HETATM   25  C   UNL     1     -41.777  60.500 -57.007  1.00  0.00     0.049 C 
HETATM   26  C   UNL     1     -42.461  57.246 -58.808  1.00  0.00    -0.061 A 
HETATM   27  C   UNL     1     -42.372  56.736 -60.217  1.00  0.00     0.048 C 
HETATM   28  C   UNL     1     -42.697  56.368 -57.760  1.00  0.00     0.007 A 
HETATM   29  C   UNL     1     -42.677  56.814 -56.433  1.00  0.00     0.011 A 
ENDBRANCH   1  22
BRANCH  10  30
HETATM   30  C   UNL     1     -40.994  56.566 -53.617  1.00  0.00     0.294 C 
HETATM   31  O   UNL     1     -40.108  56.124 -54.318  1.00  0.00    -0.259 OA
BRANCH  30  32
HETATM   32  O   UNL     1     -41.807  55.897 -52.766  1.00  0.00    -0.313 OA
BRANCH  32  33
HETATM   33  C   UNL     1     -42.469  54.730 -53.293  1.00  0.00     0.217 C 
BRANCH  33  34
HETATM   34  C   UNL     1     -41.507  53.572 -53.172  1.00  0.00    -0.034 A 
HETATM   35  C   UNL     1     -40.844  53.315 -51.965  1.00  0.00     0.009 A 
HETATM   36  C   UNL     1     -39.911  52.281 -51.877  1.00  0.00     0.001 A 
HETATM   37  C   UNL     1     -39.628  51.494 -52.992  1.00  0.00     0.000 A 
HETATM   38  C   UNL     1     -40.291  51.730 -54.195  1.00  0.00     0.001 A 
HETATM   39  C   UNL     1     -41.232  52.758 -54.280  1.00  0.00     0.009 A 
ENDBRANCH  33  34
ENDBRANCH  32  33
ENDBRANCH  30  32
ENDBRANCH  10  30
TORSDOF 10
ENDMDL
MODEL 4
REMARK VINA RESULT:      -8.2      1.986      3.124
REMARK  10 active torsions:
REMARK  status: ('A' for Active; 'I' for Inactive)
REMARK    1  A    between atoms: C_6  and  C_7 
REMARK    2  A    between atoms: C_9  and  C_10 
REMARK    3  A    between atoms: C_10  and  C_11 
REMARK       I    between atoms: C_11  and  N_12 
REMARK    4  A    between atoms: N_12  and  C_13 
REMARK    5  A    between atoms: C_13  and  C_14 
REMARK    6  A    between atoms: C_14  and  N_15 
REMARK    7  A    between atoms: C_26  and  C_27 
REMARK    8  A    between atoms: C_27  and  O_28 
REMARK    9  A    between atoms: O_28  and  C_29 
REMARK   10  A    between atoms: C_29  and  C_30 
ROOT
HETATM    1  C   UNL     1     -43.397  58.791 -53.090  1.00  0.00     0.166 C 
HETATM    2  N   UNL     1     -44.063  59.702 -54.047  1.00  0.00    -0.318 N 
HETATM    3  C   UNL     1     -44.650  59.708 -55.197  1.00  0.00     0.011 C 
HETATM    4  C   UNL     1     -44.105  61.126 -53.412  1.00  0.00     0.170 C 
HETATM    5  S   UNL     1     -44.255  62.344 -54.623  1.00  0.00    -0.086 SA
HETATM    6  C   UNL     1     -44.911  61.093 -55.778  1.00  0.00     0.135 C 
HETATM    7  N   UNL     1     -44.151  61.331 -52.138  1.00  0.00    -0.229 NA
HETATM    8  C   UNL     1     -44.372  60.211 -51.341  1.00  0.00     0.048 C 
HETATM    9  C   UNL     1     -45.035  60.506 -50.016  1.00  0.00     0.071 C 
HETATM   10  C   UNL     1     -44.116  58.955 -51.785  1.00  0.00     0.069 C 
ENDROOT
BRANCH   3  11
HETATM   11  C   UNL     1     -45.134  58.461 -55.886  1.00  0.00     0.156 C 
BRANCH  11  12
HETATM   12  C   UNL     1     -44.225  58.118 -57.055  1.00  0.00     0.223 C 
HETATM   13  N   UNL     1     -44.598  57.052 -57.837  1.00  0.00    -0.359 N 
HETATM   14  H   UNL     1     -45.355  56.457 -57.505  1.00  0.00     0.162 HD
HETATM   15  O   UNL     1     -43.214  58.776 -57.283  1.00  0.00    -0.273 OA
BRANCH  13  16
HETATM   16  C   UNL     1     -43.660  56.455 -58.790  1.00  0.00     0.150 C 
BRANCH  16  17
HETATM   17  C   UNL     1     -44.027  56.619 -60.288  1.00  0.00     0.253 C 
BRANCH  17  18
HETATM   18  N   UNL     1     -44.991  55.542 -60.768  1.00  0.00    -0.077 N 
HETATM   19  H   UNL     1     -44.773  55.317 -61.748  1.00  0.00     0.279 HD
HETATM   20  C   UNL     1     -44.894  54.263 -59.976  1.00  0.00     0.269 C 
HETATM   21  C   UNL     1     -46.417  56.045 -60.775  1.00  0.00     0.269 C 
ENDBRANCH  17  18
ENDBRANCH  16  17
ENDBRANCH  13  16
ENDBRANCH  11  12
ENDBRANCH   3  11
BRANCH   1  22
HETATM   22  C   UNL     1     -42.786  57.509 -53.663  1.00  0.00    -0.024 A 
HETATM   23  C   UNL     1     -41.372  57.297 -53.651  1.00  0.00    -0.053 A 
HETATM   24  C   UNL     1     -40.833  56.063 -54.081  1.00  0.00     0.014 A 
HETATM   25  C   UNL     1     -40.362  58.313 -53.170  1.00  0.00     0.049 C 
HETATM   26  C   UNL     1     -41.648  55.009 -54.487  1.00  0.00    -0.061 A 
HETATM   27  C   UNL     1     -41.073  53.660 -54.807  1.00  0.00     0.048 C 
HETATM   28  C   UNL     1     -43.022  55.199 -54.479  1.00  0.00     0.007 A 
HETATM   29  C   UNL     1     -43.575  56.422 -54.080  1.00  0.00     0.011 A 
ENDBRANCH   1  22
BRANCH  10  30
HETATM   30  C   UNL     1     -44.761  57.842 -51.089  1.00  0.00     0.294 C 
HETATM   31  O   UNL     1     -45.960  57.680 -50.996  1.00  0.00    -0.259 OA
BRANCH  30  32
HETATM   32  O   UNL     1     -43.767  57.086 -50.564  1.00  0.00    -0.313 OA
BRANCH  32  33
HETATM   33  C   UNL     1     -43.927  55.657 -50.659  1.00  0.00     0.217 C 
BRANCH  33  34
HETATM   34  C   UNL     1     -42.545  55.049 -50.672  1.00  0.00    -0.034 A 
HETATM   35  C   UNL     1     -42.332  53.764 -51.187  1.00  0.00     0.009 A 
HETATM   36  C   UNL     1     -41.064  53.184 -51.140  1.00  0.00     0.001 A 
HETATM   37  C   UNL     1     -39.994  53.879 -50.578  1.00  0.00     0.000 A 
HETATM   38  C   UNL     1     -40.189  55.163 -50.074  1.00  0.00     0.001 A 
HETATM   39  C   UNL     1     -41.456  55.748 -50.130  1.00  0.00     0.009 A 
ENDBRANCH  33  34
ENDBRANCH  32  33
ENDBRANCH  30  32
ENDBRANCH  10  30
TORSDOF 10
ENDMDL
MODEL 5
REMARK VINA RESULT:      -7.7      2.890      5.685
REMARK  10 active torsions:
REMARK  status: ('A' for Active; 'I' for Inactive)
REMARK    1  A    between atoms: C_6  and  C_7 
REMARK    2  A    between atoms: C_9  and  C_10 
REMARK    3  A    between atoms: C_10  and  C_11 
REMARK       I    between atoms: C_11  and  N_12 
REMARK    4  A    between atoms: N_12  and  C_13 
REMARK    5  A    between atoms: C_13  and  C_14 
REMARK    6  A    between atoms: C_14  and  N_15 
REMARK    7  A    between atoms: C_26  and  C_27 
REMARK    8  A    between atoms: C_27  and  O_28 
REMARK    9  A    between atoms: O_28  and  C_29 
REMARK   10  A    between atoms: C_29  and  C_30 
ROOT
HETATM    1  C   UNL     1     -42.663  60.597 -53.314  1.00  0.00     0.166 C 
HETATM    2  N   UNL     1     -43.988  60.307 -52.722  1.00  0.00    -0.318 N 
HETATM    3  C   UNL     1     -45.157  59.854 -53.032  1.00  0.00     0.011 C 
HETATM    4  C   UNL     1     -43.914  60.612 -51.194  1.00  0.00     0.170 C 
HETATM    5  S   UNL     1     -45.480  60.924 -50.545  1.00  0.00    -0.086 SA
HETATM    6  C   UNL     1     -46.225  60.050 -51.962  1.00  0.00     0.135 C 
HETATM    7  N   UNL     1     -42.827  60.508 -50.504  1.00  0.00    -0.229 NA
HETATM    8  C   UNL     1     -41.746  59.907 -51.143  1.00  0.00     0.048 C 
HETATM    9  C   UNL     1     -40.763  59.236 -50.213  1.00  0.00     0.071 C 
HETATM   10  C   UNL     1     -41.663  59.837 -52.496  1.00  0.00     0.069 C 
ENDROOT
BRANCH   3  11
HETATM   11  C   UNL     1     -45.443  59.102 -54.302  1.00  0.00     0.156 C 
BRANCH  11  12
HETATM   12  C   UNL     1     -44.731  57.759 -54.292  1.00  0.00     0.223 C 
HETATM   13  N   UNL     1     -44.056  57.407 -55.436  1.00  0.00    -0.359 N 
HETATM   14  H   UNL     1     -44.202  57.972 -56.270  1.00  0.00     0.162 HD
HETATM   15  O   UNL     1     -44.757  57.037 -53.298  1.00  0.00    -0.273 OA
BRANCH  13  16
HETATM   16  C   UNL     1     -43.595  56.033 -55.643  1.00  0.00     0.150 C 
BRANCH  16  17
HETATM   17  C   UNL     1     -42.969  55.735 -57.030  1.00  0.00     0.253 C 
BRANCH  17  18
HETATM   18  N   UNL     1     -43.878  56.157 -58.177  1.00  0.00    -0.077 N 
HETATM   19  H   UNL     1     -44.827  56.305 -57.808  1.00  0.00     0.279 HD
HETATM   20  C   UNL     1     -43.442  57.440 -58.838  1.00  0.00     0.269 C 
HETATM   21  C   UNL     1     -44.011  55.057 -59.207  1.00  0.00     0.269 C 
ENDBRANCH  17  18
ENDBRANCH  16  17
ENDBRANCH  13  16
ENDBRANCH  11  12
ENDBRANCH   3  11
BRANCH   1  22
HETATM   22  C   UNL     1     -42.620  60.869 -54.820  1.00  0.00    -0.024 A 
HETATM   23  C   UNL     1     -43.111  62.098 -55.360  1.00  0.00    -0.053 A 
HETATM   24  C   UNL     1     -42.963  62.380 -56.738  1.00  0.00     0.014 A 
HETATM   25  C   UNL     1     -43.777  63.183 -54.546  1.00  0.00     0.049 C 
HETATM   26  C   UNL     1     -42.308  61.504 -57.599  1.00  0.00    -0.061 A 
HETATM   27  C   UNL     1     -42.034  61.876 -59.028  1.00  0.00     0.048 C 
HETATM   28  C   UNL     1     -41.809  60.319 -57.077  1.00  0.00     0.007 A 
HETATM   29  C   UNL     1     -41.966  60.010 -55.721  1.00  0.00     0.011 A 
ENDBRANCH   1  22
BRANCH  10  30
HETATM   30  C   UNL     1     -40.758  58.841 -53.071  1.00  0.00     0.294 C 
HETATM   31  O   UNL     1     -39.570  59.005 -53.256  1.00  0.00    -0.259 OA
BRANCH  30  32
HETATM   32  O   UNL     1     -41.515  57.759 -53.370  1.00  0.00    -0.313 OA
BRANCH  32  33
HETATM   33  C   UNL     1     -41.512  56.686 -52.408  1.00  0.00     0.217 C 
BRANCH  33  34
HETATM   34  C   UNL     1     -41.034  55.443 -53.120  1.00  0.00    -0.034 A 
HETATM   35  C   UNL     1     -40.458  55.524 -54.394  1.00  0.00     0.009 A 
HETATM   36  C   UNL     1     -40.074  54.366 -55.072  1.00  0.00     0.001 A 
HETATM   37  C   UNL     1     -40.261  53.115 -54.487  1.00  0.00     0.000 A 
HETATM   38  C   UNL     1     -40.821  53.021 -53.215  1.00  0.00     0.001 A 
HETATM   39  C   UNL     1     -41.196  54.180 -52.532  1.00  0.00     0.009 A 
ENDBRANCH  33  34
ENDBRANCH  32  33
ENDBRANCH  30  32
ENDBRANCH  10  30
TORSDOF 10
ENDMDL
MODEL 6
REMARK VINA RESULT:      -7.6     16.618     20.882
REMARK  10 active torsions:
REMARK  status: ('A' for Active; 'I' for Inactive)
REMARK    1  A    between atoms: C_6  and  C_7 
REMARK    2  A    between atoms: C_9  and  C_10 
REMARK    3  A    between atoms: C_10  and  C_11 
REMARK       I    between atoms: C_11  and  N_12 
REMARK    4  A    between atoms: N_12  and  C_13 
REMARK    5  A    between atoms: C_13  and  C_14 
REMARK    6  A    between atoms: C_14  and  N_15 
REMARK    7  A    between atoms: C_26  and  C_27 
REMARK    8  A    between atoms: C_27  and  O_28 
REMARK    9  A    between atoms: O_28  and  C_29 
REMARK   10  A    between atoms: C_29  and  C_30 
ROOT
HETATM    1  C   UNL     1     -35.266  39.384 -52.713  1.00  0.00     0.166 C 
HETATM    2  N   UNL     1     -35.278  39.229 -51.241  1.00  0.00    -0.318 N 
HETATM    3  C   UNL     1     -34.514  39.342 -50.206  1.00  0.00     0.011 C 
HETATM    4  C   UNL     1     -36.725  38.846 -50.805  1.00  0.00     0.170 C 
HETATM    5  S   UNL     1     -36.724  38.041 -49.281  1.00  0.00    -0.086 SA
HETATM    6  C   UNL     1     -35.088  38.763 -48.918  1.00  0.00     0.135 C 
HETATM    7  N   UNL     1     -37.780  39.211 -51.455  1.00  0.00    -0.229 NA
HETATM    8  C   UNL     1     -37.586  40.148 -52.467  1.00  0.00     0.048 C 
HETATM    9  C   UNL     1     -38.794  41.007 -52.764  1.00  0.00     0.071 C 
HETATM   10  C   UNL     1     -36.373  40.340 -53.042  1.00  0.00     0.069 C 
ENDROOT
BRANCH   3  11
HETATM   11  C   UNL     1     -33.198  40.070 -50.224  1.00  0.00     0.156 C 
BRANCH  11  12
HETATM   12  C   UNL     1     -32.182  39.342 -49.358  1.00  0.00     0.223 C 
HETATM   13  N   UNL     1     -31.688  40.027 -48.274  1.00  0.00    -0.359 N 
HETATM   14  H   UNL     1     -31.896  41.021 -48.202  1.00  0.00     0.162 HD
HETATM   15  O   UNL     1     -31.834  38.194 -49.621  1.00  0.00    -0.273 OA
BRANCH  13  16
HETATM   16  C   UNL     1     -30.505  39.547 -47.557  1.00  0.00     0.150 C 
BRANCH  16  17
HETATM   17  C   UNL     1     -30.396  39.979 -46.072  1.00  0.00     0.253 C 
BRANCH  17  18
HETATM   18  N   UNL     1     -28.951  40.160 -45.627  1.00  0.00    -0.077 N 
HETATM   19  H   UNL     1     -28.725  41.164 -45.641  1.00  0.00     0.279 HD
HETATM   20  C   UNL     1     -28.693  39.655 -44.230  1.00  0.00     0.269 C 
HETATM   21  C   UNL     1     -27.991  39.514 -46.601  1.00  0.00     0.269 C 
ENDBRANCH  17  18
ENDBRANCH  16  17
ENDBRANCH  13  16
ENDBRANCH  11  12
ENDBRANCH   3  11
BRANCH   1  22
HETATM   22  C   UNL     1     -33.912  39.250 -53.414  1.00  0.00    -0.024 A 
HETATM   23  C   UNL     1     -33.435  37.977 -53.857  1.00  0.00    -0.053 A 
HETATM   24  C   UNL     1     -32.236  37.884 -54.601  1.00  0.00     0.014 A 
HETATM   25  C   UNL     1     -34.149  36.667 -53.615  1.00  0.00     0.049 C 
HETATM   26  C   UNL     1     -31.507  39.016 -54.960  1.00  0.00    -0.061 A 
HETATM   27  C   UNL     1     -30.315  38.917 -55.866  1.00  0.00     0.048 C 
HETATM   28  C   UNL     1     -31.976  40.257 -54.552  1.00  0.00     0.007 A 
HETATM   29  C   UNL     1     -33.148  40.367 -53.795  1.00  0.00     0.011 A 
ENDBRANCH   1  22
BRANCH  10  30
HETATM   30  C   UNL     1     -36.150  41.597 -53.757  1.00  0.00     0.294 C 
HETATM   31  O   UNL     1     -35.941  42.671 -53.231  1.00  0.00    -0.259 OA
BRANCH  30  32
HETATM   32  O   UNL     1     -36.260  41.315 -55.077  1.00  0.00    -0.313 OA
BRANCH  32  33
HETATM   33  C   UNL     1     -36.978  42.271 -55.882  1.00  0.00     0.217 C 
BRANCH  33  34
HETATM   34  C   UNL     1     -37.327  41.591 -57.185  1.00  0.00    -0.034 A 
HETATM   35  C   UNL     1     -37.962  40.343 -57.193  1.00  0.00     0.009 A 
HETATM   36  C   UNL     1     -38.228  39.692 -58.399  1.00  0.00     0.001 A 
HETATM   37  C   UNL     1     -37.862  40.279 -59.609  1.00  0.00     0.000 A 
HETATM   38  C   UNL     1     -37.242  41.527 -59.615  1.00  0.00     0.001 A 
HETATM   39  C   UNL     1     -36.986  42.183 -58.409  1.00  0.00     0.009 A 
ENDBRANCH  33  34
ENDBRANCH  32  33
ENDBRANCH  30  32
ENDBRANCH  10  30
TORSDOF 10
ENDMDL
MODEL 7
REMARK VINA RESULT:      -7.4      3.330      5.930
REMARK  10 active torsions:
REMARK  status: ('A' for Active; 'I' for Inactive)
REMARK    1  A    between atoms: C_6  and  C_7 
REMARK    2  A    between atoms: C_9  and  C_10 
REMARK    3  A    between atoms: C_10  and  C_11 
REMARK       I    between atoms: C_11  and  N_12 
REMARK    4  A    between atoms: N_12  and  C_13 
REMARK    5  A    between atoms: C_13  and  C_14 
REMARK    6  A    between atoms: C_14  and  N_15 
REMARK    7  A    between atoms: C_26  and  C_27 
REMARK    8  A    between atoms: C_27  and  O_28 
REMARK    9  A    between atoms: O_28  and  C_29 
REMARK   10  A    between atoms: C_29  and  C_30 
ROOT
HETATM    1  C   UNL     1     -41.960  57.454 -52.962  1.00  0.00     0.166 C 
HETATM    2  N   UNL     1     -42.687  58.483 -52.185  1.00  0.00    -0.318 N 
HETATM    3  C   UNL     1     -43.811  59.118 -52.151  1.00  0.00     0.011 C 
HETATM    4  C   UNL     1     -41.798  58.892 -50.970  1.00  0.00     0.170 C 
HETATM    5  S   UNL     1     -42.218  60.460 -50.391  1.00  0.00    -0.086 SA
HETATM    6  C   UNL     1     -43.850  60.302 -51.191  1.00  0.00     0.135 C 
HETATM    7  N   UNL     1     -40.956  58.090 -50.409  1.00  0.00    -0.229 NA
HETATM    8  C   UNL     1     -41.015  56.757 -50.805  1.00  0.00     0.048 C 
HETATM    9  C   UNL     1     -40.532  55.772 -49.766  1.00  0.00     0.071 C 
HETATM   10  C   UNL     1     -41.576  56.385 -51.984  1.00  0.00     0.069 C 
ENDROOT
BRANCH   3  11
HETATM   11  C   UNL     1     -45.030  58.685 -52.917  1.00  0.00     0.156 C 
BRANCH  11  12
HETATM   12  C   UNL     1     -45.638  59.868 -53.653  1.00  0.00     0.223 C 
HETATM   13  N   UNL     1     -45.459  59.909 -55.015  1.00  0.00    -0.359 N 
HETATM   14  H   UNL     1     -44.803  59.250 -55.430  1.00  0.00     0.162 HD
HETATM   15  O   UNL     1     -46.264  60.735 -53.049  1.00  0.00    -0.273 OA
BRANCH  13  16
HETATM   16  C   UNL     1     -45.735  61.131 -55.773  1.00  0.00     0.150 C 
BRANCH  16  17
HETATM   17  C   UNL     1     -44.619  62.207 -55.745  1.00  0.00     0.253 C 
BRANCH  17  18
HETATM   18  N   UNL     1     -44.587  62.973 -54.429  1.00  0.00    -0.077 N 
HETATM   19  H   UNL     1     -45.222  62.511 -53.763  1.00  0.00     0.279 HD
HETATM   20  C   UNL     1     -43.218  63.011 -53.798  1.00  0.00     0.269 C 
HETATM   21  C   UNL     1     -45.124  64.376 -54.596  1.00  0.00     0.269 C 
ENDBRANCH  17  18
ENDBRANCH  16  17
ENDBRANCH  13  16
ENDBRANCH  11  12
ENDBRANCH   3  11
BRANCH   1  22
HETATM   22  C   UNL     1     -42.367  57.274 -54.427  1.00  0.00    -0.024 A 
HETATM   23  C   UNL     1     -42.233  58.345 -55.365  1.00  0.00    -0.053 A 
HETATM   24  C   UNL     1     -42.508  58.130 -56.735  1.00  0.00     0.014 A 
HETATM   25  C   UNL     1     -41.774  59.740 -55.008  1.00  0.00     0.049 C 
HETATM   26  C   UNL     1     -42.874  56.878 -57.221  1.00  0.00    -0.061 A 
HETATM   27  C   UNL     1     -43.027  56.629 -58.694  1.00  0.00     0.048 C 
HETATM   28  C   UNL     1     -42.984  55.828 -56.320  1.00  0.00     0.007 A 
HETATM   29  C   UNL     1     -42.739  56.026 -54.956  1.00  0.00     0.011 A 
ENDBRANCH   1  22
BRANCH  10  30
HETATM   30  C   UNL     1     -41.988  54.989 -52.131  1.00  0.00     0.294 C 
HETATM   31  O   UNL     1     -43.135  54.595 -52.096  1.00  0.00    -0.259 OA
BRANCH  30  32
HETATM   32  O   UNL     1     -40.853  54.264 -52.272  1.00  0.00    -0.313 OA
BRANCH  32  33
HETATM   33  C   UNL     1     -40.622  53.676 -53.568  1.00  0.00     0.217 C 
BRANCH  33  34
HETATM   34  C   UNL     1     -40.289  52.220 -53.349  1.00  0.00    -0.034 A 
HETATM   35  C   UNL     1     -39.821  51.770 -52.108  1.00  0.00     0.009 A 
HETATM   36  C   UNL     1     -39.457  50.434 -51.930  1.00  0.00     0.001 A 
HETATM   37  C   UNL     1     -39.556  49.533 -52.989  1.00  0.00     0.000 A 
HETATM   38  C   UNL     1     -40.032  49.964 -54.225  1.00  0.00     0.001 A 
HETATM   39  C   UNL     1     -40.406  51.298 -54.400  1.00  0.00     0.009 A 
ENDBRANCH  33  34
ENDBRANCH  32  33
ENDBRANCH  30  32
ENDBRANCH  10  30
TORSDOF 10
ENDMDL
MODEL 8
REMARK VINA RESULT:      -7.4      2.311      4.170
REMARK  10 active torsions:
REMARK  status: ('A' for Active; 'I' for Inactive)
REMARK    1  A    between atoms: C_6  and  C_7 
REMARK    2  A    between atoms: C_9  and  C_10 
REMARK    3  A    between atoms: C_10  and  C_11 
REMARK       I    between atoms: C_11  and  N_12 
REMARK    4  A    between atoms: N_12  and  C_13 
REMARK    5  A    between atoms: C_13  and  C_14 
REMARK    6  A    between atoms: C_14  and  N_15 
REMARK    7  A    between atoms: C_26  and  C_27 
REMARK    8  A    between atoms: C_27  and  O_28 
REMARK    9  A    between atoms: O_28  and  C_29 
REMARK   10  A    between atoms: C_29  and  C_30 
ROOT
HETATM    1  C   UNL     1     -42.295  58.820 -54.680  1.00  0.00     0.166 C 
HETATM    2  N   UNL     1     -43.516  59.417 -54.093  1.00  0.00    -0.318 N 
HETATM    3  C   UNL     1     -44.793  59.484 -54.269  1.00  0.00     0.011 C 
HETATM    4  C   UNL     1     -43.108  60.177 -52.794  1.00  0.00     0.170 C 
HETATM    5  S   UNL     1     -44.262  61.392 -52.395  1.00  0.00    -0.086 SA
HETATM    6  C   UNL     1     -45.504  60.525 -53.411  1.00  0.00     0.135 C 
HETATM    7  N   UNL     1     -42.102  59.833 -52.060  1.00  0.00    -0.229 NA
HETATM    8  C   UNL     1     -41.504  58.614 -52.365  1.00  0.00     0.048 C 
HETATM    9  C   UNL     1     -40.813  57.946 -51.199  1.00  0.00     0.071 C 
HETATM   10  C   UNL     1     -41.644  58.033 -53.583  1.00  0.00     0.069 C 
ENDROOT
BRANCH   3  11
HETATM   11  C   UNL     1     -45.555  58.554 -55.172  1.00  0.00     0.156 C 
BRANCH  11  12
HETATM   12  C   UNL     1     -45.806  59.215 -56.518  1.00  0.00     0.223 C 
HETATM   13  N   UNL     1     -45.792  58.397 -57.621  1.00  0.00    -0.359 N 
HETATM   14  H   UNL     1     -45.457  57.442 -57.504  1.00  0.00     0.162 HD
HETATM   15  O   UNL     1     -46.019  60.422 -56.600  1.00  0.00    -0.273 OA
BRANCH  13  16
HETATM   16  C   UNL     1     -45.723  58.958 -58.972  1.00  0.00     0.150 C 
BRANCH  16  17
HETATM   17  C   UNL     1     -45.487  57.937 -60.115  1.00  0.00     0.253 C 
BRANCH  17  18
HETATM   18  N   UNL     1     -46.142  56.591 -59.831  1.00  0.00    -0.077 N 
HETATM   19  H   UNL     1     -46.386  56.547 -58.832  1.00  0.00     0.279 HD
HETATM   20  C   UNL     1     -47.407  56.369 -60.619  1.00  0.00     0.269 C 
HETATM   21  C   UNL     1     -45.175  55.451 -60.062  1.00  0.00     0.269 C 
ENDBRANCH  17  18
ENDBRANCH  16  17
ENDBRANCH  13  16
ENDBRANCH  11  12
ENDBRANCH   3  11
BRANCH   1  22
HETATM   22  C   UNL     1     -42.338  58.480 -56.173  1.00  0.00    -0.024 A 
HETATM   23  C   UNL     1     -42.098  59.483 -57.163  1.00  0.00    -0.053 A 
HETATM   24  C   UNL     1     -42.030  59.131 -58.531  1.00  0.00     0.014 A 
HETATM   25  C   UNL     1     -41.870  60.945 -56.859  1.00  0.00     0.049 C 
HETATM   26  C   UNL     1     -42.152  57.810 -58.955  1.00  0.00    -0.061 A 
HETATM   27  C   UNL     1     -41.940  57.431 -60.392  1.00  0.00     0.048 C 
HETATM   28  C   UNL     1     -42.363  56.828 -57.996  1.00  0.00     0.007 A 
HETATM   29  C   UNL     1     -42.456  57.159 -56.639  1.00  0.00     0.011 A 
ENDBRANCH   1  22
BRANCH  10  30
HETATM   30  C   UNL     1     -41.370  56.600 -53.690  1.00  0.00     0.294 C 
HETATM   31  O   UNL     1     -40.363  56.116 -54.164  1.00  0.00    -0.259 OA
BRANCH  30  32
HETATM   32  O   UNL     1     -42.457  55.961 -53.195  1.00  0.00    -0.313 OA
BRANCH  32  33
HETATM   33  C   UNL     1     -42.337  54.537 -53.007  1.00  0.00     0.217 C 
BRANCH  33  34
HETATM   34  C   UNL     1     -41.636  54.314 -51.688  1.00  0.00    -0.034 A 
HETATM   35  C   UNL     1     -42.197  54.778 -50.491  1.00  0.00     0.009 A 
HETATM   36  C   UNL     1     -41.516  54.623 -49.283  1.00  0.00     0.001 A 
HETATM   37  C   UNL     1     -40.267  54.004 -49.256  1.00  0.00     0.000 A 
HETATM   38  C   UNL     1     -39.703  53.527 -50.437  1.00  0.00     0.001 A 
HETATM   39  C   UNL     1     -40.390  53.672 -51.645  1.00  0.00     0.009 A 
ENDBRANCH  33  34
ENDBRANCH  32  33
ENDBRANCH  30  32
ENDBRANCH  10  30
TORSDOF 10
ENDMDL
MODEL 9
REMARK VINA RESULT:      -7.3      2.678      4.357
REMARK  10 active torsions:
REMARK  status: ('A' for Active; 'I' for Inactive)
REMARK    1  A    between atoms: C_6  and  C_7 
REMARK    2  A    between atoms: C_9  and  C_10 
REMARK    3  A    between atoms: C_10  and  C_11 
REMARK       I    between atoms: C_11  and  N_12 
REMARK    4  A    between atoms: N_12  and  C_13 
REMARK    5  A    between atoms: C_13  and  C_14 
REMARK    6  A    between atoms: C_14  and  N_15 
REMARK    7  A    between atoms: C_26  and  C_27 
REMARK    8  A    between atoms: C_27  and  O_28 
REMARK    9  A    between atoms: O_28  and  C_29 
REMARK   10  A    between atoms: C_29  and  C_30 
ROOT
HETATM    1  C   UNL     1     -42.082  58.717 -54.977  1.00  0.00     0.166 C 
HETATM    2  N   UNL     1     -43.110  59.584 -54.359  1.00  0.00    -0.318 N 
HETATM    3  C   UNL     1     -44.379  59.820 -54.379  1.00  0.00     0.011 C 
HETATM    4  C   UNL     1     -42.411  60.474 -53.285  1.00  0.00     0.170 C 
HETATM    5  S   UNL     1     -43.322  61.903 -52.973  1.00  0.00    -0.086 SA
HETATM    6  C   UNL     1     -44.808  61.086 -53.644  1.00  0.00     0.135 C 
HETATM    7  N   UNL     1     -41.359  60.103 -52.635  1.00  0.00    -0.229 NA
HETATM    8  C   UNL     1     -40.979  58.772 -52.784  1.00  0.00     0.048 C 
HETATM    9  C   UNL     1     -40.211  58.205 -51.613  1.00  0.00     0.071 C 
HETATM   10  C   UNL     1     -41.379  58.028 -53.846  1.00  0.00     0.069 C 
ENDROOT
BRANCH   3  11
HETATM   11  C   UNL     1     -45.386  58.885 -54.990  1.00  0.00     0.156 C 
BRANCH  11  12
HETATM   12  C   UNL     1     -45.826  59.401 -56.351  1.00  0.00     0.223 C 
HETATM   13  N   UNL     1     -46.936  58.812 -56.907  1.00  0.00    -0.359 N 
HETATM   14  H   UNL     1     -47.299  57.968 -56.468  1.00  0.00     0.162 HD
HETATM   15  O   UNL     1     -45.216  60.308 -56.910  1.00  0.00    -0.273 OA
BRANCH  13  16
HETATM   16  C   UNL     1     -47.267  59.017 -58.319  1.00  0.00     0.150 C 
BRANCH  16  17
HETATM   17  C   UNL     1     -48.356  60.083 -58.607  1.00  0.00     0.253 C 
BRANCH  17  18
HETATM   18  N   UNL     1     -48.987  60.624 -57.331  1.00  0.00    -0.077 N 
HETATM   19  H   UNL     1     -48.698  60.030 -56.542  1.00  0.00     0.279 HD
HETATM   20  C   UNL     1     -48.565  62.036 -57.014  1.00  0.00     0.269 C 
HETATM   21  C   UNL     1     -50.495  60.529 -57.380  1.00  0.00     0.269 C 
ENDBRANCH  17  18
ENDBRANCH  16  17
ENDBRANCH  13  16
ENDBRANCH  11  12
ENDBRANCH   3  11
BRANCH   1  22
HETATM   22  C   UNL     1     -42.397  58.148 -56.363  1.00  0.00    -0.024 A 
HETATM   23  C   UNL     1     -42.128  58.902 -57.547  1.00  0.00    -0.053 A 
HETATM   24  C   UNL     1     -42.320  58.320 -58.822  1.00  0.00     0.014 A 
HETATM   25  C   UNL     1     -41.605  60.320 -57.555  1.00  0.00     0.049 C 
HETATM   26  C   UNL     1     -42.733  56.999 -58.969  1.00  0.00    -0.061 A 
HETATM   27  C   UNL     1     -42.798  56.350 -60.321  1.00  0.00     0.048 C 
HETATM   28  C   UNL     1     -42.974  56.253 -57.823  1.00  0.00     0.007 A 
HETATM   29  C   UNL     1     -42.812  56.818 -56.553  1.00  0.00     0.011 A 
ENDBRANCH   1  22
BRANCH  10  30
HETATM   30  C   UNL     1     -41.315  56.572 -53.720  1.00  0.00     0.294 C 
HETATM   31  O   UNL     1     -40.449  55.869 -54.199  1.00  0.00    -0.259 OA
BRANCH  30  32
HETATM   32  O   UNL     1     -42.407  56.197 -53.012  1.00  0.00    -0.313 OA
BRANCH  32  33
HETATM   33  C   UNL     1     -42.503  54.800 -52.669  1.00  0.00     0.217 C 
BRANCH  33  34
HETATM   34  C   UNL     1     -41.686  54.586 -51.417  1.00  0.00    -0.034 A 
HETATM   35  C   UNL     1     -42.016  55.244 -50.226  1.00  0.00     0.009 A 
HETATM   36  C   UNL     1     -41.221  55.089 -49.089  1.00  0.00     0.001 A 
HETATM   37  C   UNL     1     -40.089  54.277 -49.129  1.00  0.00     0.000 A 
HETATM   38  C   UNL     1     -39.758  53.606 -50.304  1.00  0.00     0.001 A 
HETATM   39  C   UNL     1     -40.558  53.753 -51.439  1.00  0.00     0.009 A 
ENDBRANCH  33  34
ENDBRANCH  32  33
ENDBRANCH  30  32
ENDBRANCH  10  30
TORSDOF 10
ENDMDL
MODEL 10
REMARK VINA RESULT:      -7.1      4.948      6.881
REMARK  10 active torsions:
REMARK  status: ('A' for Active; 'I' for Inactive)
REMARK    1  A    between atoms: C_6  and  C_7 
REMARK    2  A    between atoms: C_9  and  C_10 
REMARK    3  A    between atoms: C_10  and  C_11 
REMARK       I    between atoms: C_11  and  N_12 
REMARK    4  A    between atoms: N_12  and  C_13 
REMARK    5  A    between atoms: C_13  and  C_14 
REMARK    6  A    between atoms: C_14  and  N_15 
REMARK    7  A    between atoms: C_26  and  C_27 
REMARK    8  A    between atoms: C_27  and  O_28 
REMARK    9  A    between atoms: O_28  and  C_29 
REMARK   10  A    between atoms: C_29  and  C_30 
ROOT
HETATM    1  C   UNL     1     -43.658  61.182 -50.982  1.00  0.00     0.166 C 
HETATM    2  N   UNL     1     -43.933  61.971 -52.203  1.00  0.00    -0.318 N 
HETATM    3  C   UNL     1     -44.527  61.892 -53.347  1.00  0.00     0.011 C 
HETATM    4  C   UNL     1     -43.336  63.399 -52.002  1.00  0.00     0.170 C 
HETATM    5  S   UNL     1     -43.029  64.164 -53.516  1.00  0.00    -0.086 SA
HETATM    6  C   UNL     1     -44.214  63.029 -54.313  1.00  0.00     0.135 C 
HETATM    7  N   UNL     1     -43.220  63.960 -50.845  1.00  0.00    -0.229 NA
HETATM    8  C   UNL     1     -43.846  63.315 -49.782  1.00  0.00     0.048 C 
HETATM    9  C   UNL     1     -44.248  64.226 -48.646  1.00  0.00     0.071 C 
HETATM   10  C   UNL     1     -44.167  61.998 -49.832  1.00  0.00     0.069 C 
ENDROOT
BRANCH   3  11
HETATM   11  C   UNL     1     -45.529  60.823 -53.687  1.00  0.00     0.156 C 
BRANCH  11  12
HETATM   12  C   UNL     1     -44.902  59.789 -54.609  1.00  0.00     0.223 C 
HETATM   13  N   UNL     1     -45.746  59.149 -55.485  1.00  0.00    -0.359 N 
HETATM   14  H   UNL     1     -46.748  59.274 -55.361  1.00  0.00     0.162 HD
HETATM   15  O   UNL     1     -43.698  59.554 -54.570  1.00  0.00    -0.273 OA
BRANCH  13  16
HETATM   16  C   UNL     1     -45.315  57.944 -56.197  1.00  0.00     0.150 C 
BRANCH  16  17
HETATM   17  C   UNL     1     -44.873  58.154 -57.669  1.00  0.00     0.253 C 
BRANCH  17  18
HETATM   18  N   UNL     1     -44.705  56.836 -58.415  1.00  0.00    -0.077 N 
HETATM   19  H   UNL     1     -45.415  56.172 -58.076  1.00  0.00     0.279 HD
HETATM   20  C   UNL     1     -44.886  56.972 -59.906  1.00  0.00     0.269 C 
HETATM   21  C   UNL     1     -43.370  56.197 -58.107  1.00  0.00     0.269 C 
ENDBRANCH  17  18
ENDBRANCH  16  17
ENDBRANCH  13  16
ENDBRANCH  11  12
ENDBRANCH   3  11
BRANCH   1  22
HETATM   22  C   UNL     1     -43.677  59.657 -51.123  1.00  0.00    -0.024 A 
HETATM   23  C   UNL     1     -42.461  58.913 -51.231  1.00  0.00    -0.053 A 
HETATM   24  C   UNL     1     -42.490  57.499 -51.248  1.00  0.00     0.014 A 
HETATM   25  C   UNL     1     -41.085  59.533 -51.301  1.00  0.00     0.049 C 
HETATM   26  C   UNL     1     -43.682  56.789 -51.121  1.00  0.00    -0.061 A 
HETATM   27  C   UNL     1     -43.686  55.293 -51.000  1.00  0.00     0.048 C 
HETATM   28  C   UNL     1     -44.864  57.505 -50.994  1.00  0.00     0.007 A 
HETATM   29  C   UNL     1     -44.858  58.905 -50.998  1.00  0.00     0.011 A 
ENDBRANCH   1  22
BRANCH  10  30
HETATM   30  C   UNL     1     -45.180  61.508 -48.897  1.00  0.00     0.294 C 
HETATM   31  O   UNL     1     -46.374  61.482 -49.115  1.00  0.00    -0.259 OA
BRANCH  30  32
HETATM   32  O   UNL     1     -44.522  61.138 -47.773  1.00  0.00    -0.313 OA
BRANCH  32  33
HETATM   33  C   UNL     1     -45.335  60.770 -46.642  1.00  0.00     0.217 C 
BRANCH  33  34
HETATM   34  C   UNL     1     -44.990  61.710 -45.512  1.00  0.00    -0.034 A 
HETATM   35  C   UNL     1     -45.456  63.030 -45.512  1.00  0.00     0.009 A 
HETATM   36  C   UNL     1     -45.083  63.912 -44.496  1.00  0.00     0.001 A 
HETATM   37  C   UNL     1     -44.240  63.485 -43.470  1.00  0.00     0.000 A 
HETATM   38  C   UNL     1     -43.780  62.171 -43.452  1.00  0.00     0.001 A 
HETATM   39  C   UNL     1     -44.162  61.286 -44.462  1.00  0.00     0.009 A 
ENDBRANCH  33  34
ENDBRANCH  32  33
ENDBRANCH  30  32
ENDBRANCH  10  30
TORSDOF 10
ENDMDL
