MODEL 1
REMARK VINA RESULT:      -7.8      0.000      0.000
REMARK  8 active torsions:
REMARK  status: ('A' for Active; 'I' for Inactive)
REMARK    1  A    between atoms: O_2  and  C_3 
REMARK    2  A    between atoms: C_6  and  C_7 
REMARK    3  A    between atoms: C_11  and  S_12 
REMARK    4  A    between atoms: S_12  and  C_13 
REMARK    5  A    between atoms: C_13  and  C_14 
REMARK       I    between atoms: C_14  and  N_15 
REMARK    6  A    between atoms: N_15  and  C_16 
REMARK    7  A    between atoms: C_16  and  C_17 
REMARK       I    between atoms: C_17  and  N_18 
REMARK    8  A    between atoms: N_18  and  C_19 
ROOT
HETATM    1  C   UNL     1     -42.029  59.002 -56.832  1.00  0.00     0.185 C 
ENDROOT
BRANCH   1   2
HETATM    2  S   UNL     1     -42.578  60.059 -55.454  1.00  0.00    -0.081 SA
BRANCH   2   3
HETATM    3  C   UNL     1     -43.000  58.855 -54.301  1.00  0.00     0.185 A 
HETATM    4  N   UNL     1     -44.279  58.431 -54.151  1.00  0.00    -0.253 N 
HETATM    5  N   UNL     1     -44.373  57.519 -53.170  1.00  0.00    -0.152 NA
HETATM    6  H   UNL     1     -45.108  58.716 -54.658  1.00  0.00     0.191 HD
HETATM    7  C   UNL     1     -43.096  57.424 -52.756  1.00  0.00     0.182 A 
HETATM    8  N   UNL     1     -42.223  58.241 -53.451  1.00  0.00    -0.201 NA
BRANCH   7   9
HETATM    9  C   UNL     1     -42.649  56.558 -51.669  1.00  0.00     0.014 A 
HETATM   10  C   UNL     1     -43.401  55.444 -51.276  1.00  0.00     0.018 A 
HETATM   11  C   UNL     1     -42.962  54.624 -50.232  1.00  0.00     0.037 A 
HETATM   12  C   UNL     1     -41.764  54.894 -49.567  1.00  0.00     0.068 A 
HETATM   13  C   UNL     1     -41.012  56.006 -49.947  1.00  0.00     0.037 A 
HETATM   14  C   UNL     1     -41.452  56.830 -50.991  1.00  0.00     0.018 A 
BRANCH  12  15
HETATM   15  O   UNL     1     -41.449  54.012 -48.572  1.00  0.00    -0.356 OA
HETATM   16  C   UNL     1     -40.104  54.023 -48.108  1.00  0.00     0.210 C 
ENDBRANCH  12  15
ENDBRANCH   7   9
ENDBRANCH   2   3
ENDBRANCH   1   2
BRANCH   1  17
HETATM   17  C   UNL     1     -42.808  57.698 -56.944  1.00  0.00     0.227 C 
HETATM   18  N   UNL     1     -42.138  56.529 -56.689  1.00  0.00    -0.352 N 
HETATM   19  H   UNL     1     -41.155  56.578 -56.444  1.00  0.00     0.162 HD
HETATM   20  O   UNL     1     -43.985  57.681 -57.310  1.00  0.00    -0.273 OA
BRANCH  18  21
HETATM   21  C   UNL     1     -42.800  55.236 -56.635  1.00  0.00     0.225 C 
BRANCH  21  22
HETATM   22  C   UNL     1     -42.558  54.484 -55.321  1.00  0.00     0.239 C 
HETATM   23  N   UNL     1     -41.268  53.993 -55.214  1.00  0.00    -0.326 N 
HETATM   24  H   UNL     1     -40.642  54.233 -55.986  1.00  0.00     0.169 HD
HETATM   25  O   UNL     1     -43.473  54.324 -54.516  1.00  0.00    -0.271 OA
BRANCH  23  26
HETATM   26  C   UNL     1     -40.719  53.215 -54.179  1.00  0.00     0.035 A 
HETATM   27  C   UNL     1     -40.550  53.667 -52.867  1.00  0.00     0.032 A 
HETATM   28  C   UNL     1     -40.003  52.823 -51.894  1.00  0.00     0.044 A 
HETATM   29  C   UNL     1     -39.627  51.531 -52.236  1.00  0.00     0.116 A 
HETATM   30  F   UNL     1     -39.106  50.724 -51.302  1.00  0.00    -0.206 F 
HETATM   31  C   UNL     1     -39.787  51.063 -53.533  1.00  0.00     0.044 A 
HETATM   32  C   UNL     1     -40.333  51.906 -54.505  1.00  0.00     0.032 A 
ENDBRANCH  23  26
ENDBRANCH  21  22
ENDBRANCH  18  21
ENDBRANCH   1  17
TORSDOF 8
ENDMDL
MODEL 2
REMARK VINA RESULT:      -7.8      2.453      6.052
REMARK  8 active torsions:
REMARK  status: ('A' for Active; 'I' for Inactive)
REMARK    1  A    between atoms: O_2  and  C_3 
REMARK    2  A    between atoms: C_6  and  C_7 
REMARK    3  A    between atoms: C_11  and  S_12 
REMARK    4  A    between atoms: S_12  and  C_13 
REMARK    5  A    between atoms: C_13  and  C_14 
REMARK       I    between atoms: C_14  and  N_15 
REMARK    6  A    between atoms: N_15  and  C_16 
REMARK    7  A    between atoms: C_16  and  C_17 
REMARK       I    between atoms: C_17  and  N_18 
REMARK    8  A    between atoms: N_18  and  C_19 
ROOT
HETATM    1  C   UNL     1     -43.120  58.582 -51.251  1.00  0.00     0.185 C 
ENDROOT
BRANCH   1   2
HETATM    2  S   UNL     1     -44.662  57.743 -51.737  1.00  0.00    -0.081 SA
BRANCH   2   3
HETATM    3  C   UNL     1     -44.158  57.021 -53.215  1.00  0.00     0.185 A 
HETATM    4  N   UNL     1     -43.915  55.691 -53.311  1.00  0.00    -0.253 N 
HETATM    5  N   UNL     1     -43.499  55.365 -54.545  1.00  0.00    -0.152 NA
HETATM    6  H   UNL     1     -44.000  54.975 -52.599  1.00  0.00     0.191 HD
HETATM    7  C   UNL     1     -43.513  56.558 -55.168  1.00  0.00     0.182 A 
HETATM    8  N   UNL     1     -43.928  57.602 -54.362  1.00  0.00    -0.201 NA
BRANCH   7   9
HETATM    9  C   UNL     1     -43.121  56.761 -56.559  1.00  0.00     0.014 A 
HETATM   10  C   UNL     1     -42.571  57.977 -56.986  1.00  0.00     0.018 A 
HETATM   11  C   UNL     1     -42.201  58.158 -58.323  1.00  0.00     0.037 A 
HETATM   12  C   UNL     1     -42.366  57.132 -59.254  1.00  0.00     0.068 A 
HETATM   13  C   UNL     1     -42.919  55.920 -58.840  1.00  0.00     0.037 A 
HETATM   14  C   UNL     1     -43.293  55.737 -57.501  1.00  0.00     0.018 A 
BRANCH  12  15
HETATM   15  O   UNL     1     -41.959  57.438 -60.523  1.00  0.00    -0.356 OA
HETATM   16  C   UNL     1     -41.911  58.817 -60.865  1.00  0.00     0.210 C 
ENDBRANCH  12  15
ENDBRANCH   7   9
ENDBRANCH   2   3
ENDBRANCH   1   2
BRANCH   1  17
HETATM   17  C   UNL     1     -41.947  57.630 -51.056  1.00  0.00     0.227 C 
HETATM   18  N   UNL     1     -42.111  56.583 -50.186  1.00  0.00    -0.352 N 
HETATM   19  H   UNL     1     -42.999  56.489 -49.705  1.00  0.00     0.162 HD
HETATM   20  O   UNL     1     -40.863  57.823 -51.611  1.00  0.00    -0.273 OA
BRANCH  18  21
HETATM   21  C   UNL     1     -41.117  55.537 -50.014  1.00  0.00     0.225 C 
BRANCH  21  22
HETATM   22  C   UNL     1     -41.382  54.298 -50.877  1.00  0.00     0.239 C 
HETATM   23  N   UNL     1     -40.218  53.713 -51.346  1.00  0.00    -0.326 N 
HETATM   24  H   UNL     1     -39.349  54.144 -51.023  1.00  0.00     0.169 HD
HETATM   25  O   UNL     1     -42.532  53.948 -51.130  1.00  0.00    -0.271 OA
BRANCH  23  26
HETATM   26  C   UNL     1     -40.088  52.605 -52.203  1.00  0.00     0.035 A 
HETATM   27  C   UNL     1     -39.653  51.343 -51.787  1.00  0.00     0.032 A 
HETATM   28  C   UNL     1     -39.560  50.291 -52.704  1.00  0.00     0.044 A 
HETATM   29  C   UNL     1     -39.904  50.503 -54.033  1.00  0.00     0.116 A 
HETATM   30  F   UNL     1     -39.816  49.493 -54.909  1.00  0.00    -0.206 F 
HETATM   31  C   UNL     1     -40.337  51.749 -54.465  1.00  0.00     0.044 A 
HETATM   32  C   UNL     1     -40.429  52.800 -53.549  1.00  0.00     0.032 A 
ENDBRANCH  23  26
ENDBRANCH  21  22
ENDBRANCH  18  21
ENDBRANCH   1  17
TORSDOF 8
ENDMDL
MODEL 3
REMARK VINA RESULT:      -7.5      2.162      3.407
REMARK  8 active torsions:
REMARK  status: ('A' for Active; 'I' for Inactive)
REMARK    1  A    between atoms: O_2  and  C_3 
REMARK    2  A    between atoms: C_6  and  C_7 
REMARK    3  A    between atoms: C_11  and  S_12 
REMARK    4  A    between atoms: S_12  and  C_13 
REMARK    5  A    between atoms: C_13  and  C_14 
REMARK       I    between atoms: C_14  and  N_15 
REMARK    6  A    between atoms: N_15  and  C_16 
REMARK    7  A    between atoms: C_16  and  C_17 
REMARK       I    between atoms: C_17  and  N_18 
REMARK    8  A    between atoms: N_18  and  C_19 
ROOT
HETATM    1  C   UNL     1     -42.868  60.880 -52.932  1.00  0.00     0.185 C 
ENDROOT
BRANCH   1   2
HETATM    2  S   UNL     1     -43.972  59.832 -51.930  1.00  0.00    -0.081 SA
BRANCH   2   3
HETATM    3  C   UNL     1     -42.833  58.700 -51.314  1.00  0.00     0.185 A 
HETATM    4  N   UNL     1     -41.716  59.099 -50.658  1.00  0.00    -0.253 N 
HETATM    5  N   UNL     1     -40.962  58.045 -50.306  1.00  0.00    -0.152 NA
HETATM    6  H   UNL     1     -41.412  60.037 -50.431  1.00  0.00     0.191 HD
HETATM    7  C   UNL     1     -41.686  57.014 -50.779  1.00  0.00     0.182 A 
HETATM    8  N   UNL     1     -42.859  57.397 -51.404  1.00  0.00    -0.201 NA
BRANCH   7   9
HETATM    9  C   UNL     1     -41.288  55.613 -50.669  1.00  0.00     0.014 A 
HETATM   10  C   UNL     1     -42.009  54.603 -51.317  1.00  0.00     0.018 A 
HETATM   11  C   UNL     1     -41.618  53.265 -51.201  1.00  0.00     0.037 A 
HETATM   12  C   UNL     1     -40.499  52.912 -50.444  1.00  0.00     0.068 A 
HETATM   13  C   UNL     1     -39.779  53.911 -49.788  1.00  0.00     0.037 A 
HETATM   14  C   UNL     1     -40.172  55.252 -49.902  1.00  0.00     0.018 A 
BRANCH  12  15
HETATM   15  O   UNL     1     -40.223  51.574 -50.418  1.00  0.00    -0.356 OA
HETATM   16  C   UNL     1     -39.549  51.037 -51.549  1.00  0.00     0.210 C 
ENDBRANCH  12  15
ENDBRANCH   7   9
ENDBRANCH   2   3
ENDBRANCH   1   2
BRANCH   1  17
HETATM   17  C   UNL     1     -42.138  60.116 -54.029  1.00  0.00     0.227 C 
HETATM   18  N   UNL     1     -42.847  59.774 -55.151  1.00  0.00    -0.352 N 
HETATM   19  H   UNL     1     -43.826  60.035 -55.203  1.00  0.00     0.162 HD
HETATM   20  O   UNL     1     -40.964  59.761 -53.894  1.00  0.00    -0.273 OA
BRANCH  18  21
HETATM   21  C   UNL     1     -42.232  59.162 -56.317  1.00  0.00     0.225 C 
BRANCH  21  22
HETATM   22  C   UNL     1     -42.373  57.636 -56.348  1.00  0.00     0.239 C 
HETATM   23  N   UNL     1     -41.669  57.012 -55.331  1.00  0.00    -0.326 N 
HETATM   24  H   UNL     1     -41.197  57.639 -54.675  1.00  0.00     0.169 HD
HETATM   25  O   UNL     1     -43.013  57.086 -57.240  1.00  0.00    -0.271 OA
BRANCH  23  26
HETATM   26  C   UNL     1     -41.530  55.634 -55.092  1.00  0.00     0.035 A 
HETATM   27  C   UNL     1     -40.305  55.001 -54.859  1.00  0.00     0.032 A 
HETATM   28  C   UNL     1     -40.255  53.623 -54.620  1.00  0.00     0.044 A 
HETATM   29  C   UNL     1     -41.430  52.883 -54.613  1.00  0.00     0.116 A 
HETATM   30  F   UNL     1     -41.381  51.565 -54.382  1.00  0.00    -0.206 F 
HETATM   31  C   UNL     1     -42.656  53.493 -54.843  1.00  0.00     0.044 A 
HETATM   32  C   UNL     1     -42.705  54.869 -55.082  1.00  0.00     0.032 A 
ENDBRANCH  23  26
ENDBRANCH  21  22
ENDBRANCH  18  21
ENDBRANCH   1  17
TORSDOF 8
ENDMDL
MODEL 4
REMARK VINA RESULT:      -7.4      2.139      4.549
REMARK  8 active torsions:
REMARK  status: ('A' for Active; 'I' for Inactive)
REMARK    1  A    between atoms: O_2  and  C_3 
REMARK    2  A    between atoms: C_6  and  C_7 
REMARK    3  A    between atoms: C_11  and  S_12 
REMARK    4  A    between atoms: S_12  and  C_13 
REMARK    5  A    between atoms: C_13  and  C_14 
REMARK       I    between atoms: C_14  and  N_15 
REMARK    6  A    between atoms: N_15  and  C_16 
REMARK    7  A    between atoms: C_16  and  C_17 
REMARK       I    between atoms: C_17  and  N_18 
REMARK    8  A    between atoms: N_18  and  C_19 
ROOT
HETATM    1  C   UNL     1     -44.160  58.068 -56.462  1.00  0.00     0.185 C 
ENDROOT
BRANCH   1   2
HETATM    2  S   UNL     1     -42.477  57.550 -56.931  1.00  0.00    -0.081 SA
BRANCH   2   3
HETATM    3  C   UNL     1     -42.404  56.021 -56.147  1.00  0.00     0.185 A 
HETATM    4  N   UNL     1     -43.434  55.141 -56.205  1.00  0.00    -0.253 N 
HETATM    5  N   UNL     1     -43.165  54.038 -55.489  1.00  0.00    -0.152 NA
HETATM    6  H   UNL     1     -44.319  55.229 -56.688  1.00  0.00     0.191 HD
HETATM    7  C   UNL     1     -41.935  54.306 -55.015  1.00  0.00     0.182 A 
HETATM    8  N   UNL     1     -41.437  55.532 -55.417  1.00  0.00    -0.201 NA
BRANCH   7   9
HETATM    9  C   UNL     1     -41.178  53.411 -54.144  1.00  0.00     0.014 A 
HETATM   10  C   UNL     1     -40.771  52.145 -54.587  1.00  0.00     0.018 A 
HETATM   11  C   UNL     1     -40.048  51.298 -53.741  1.00  0.00     0.037 A 
HETATM   12  C   UNL     1     -39.714  51.696 -52.446  1.00  0.00     0.068 A 
HETATM   13  C   UNL     1     -40.121  52.952 -51.994  1.00  0.00     0.037 A 
HETATM   14  C   UNL     1     -40.848  53.802 -52.840  1.00  0.00     0.018 A 
BRANCH  12  15
HETATM   15  O   UNL     1     -39.002  50.776 -51.728  1.00  0.00    -0.356 OA
HETATM   16  C   UNL     1     -39.723  50.014 -50.768  1.00  0.00     0.210 C 
ENDBRANCH  12  15
ENDBRANCH   7   9
ENDBRANCH   2   3
ENDBRANCH   1   2
BRANCH   1  17
HETATM   17  C   UNL     1     -44.207  58.891 -55.182  1.00  0.00     0.227 C 
HETATM   18  N   UNL     1     -45.095  58.510 -54.209  1.00  0.00    -0.352 N 
HETATM   19  H   UNL     1     -45.687  57.705 -54.383  1.00  0.00     0.162 HD
HETATM   20  O   UNL     1     -43.516  59.903 -55.042  1.00  0.00    -0.273 OA
BRANCH  18  21
HETATM   21  C   UNL     1     -45.143  59.133 -52.897  1.00  0.00     0.225 C 
BRANCH  21  22
HETATM   22  C   UNL     1     -44.764  58.180 -51.757  1.00  0.00     0.239 C 
HETATM   23  N   UNL     1     -43.501  57.636 -51.912  1.00  0.00    -0.326 N 
HETATM   24  H   UNL     1     -42.975  57.971 -52.722  1.00  0.00     0.169 HD
HETATM   25  O   UNL     1     -45.566  57.928 -50.862  1.00  0.00    -0.271 OA
BRANCH  23  26
HETATM   26  C   UNL     1     -42.858  56.690 -51.094  1.00  0.00     0.035 A 
HETATM   27  C   UNL     1     -41.595  56.879 -50.524  1.00  0.00     0.032 A 
HETATM   28  C   UNL     1     -41.030  55.888 -49.714  1.00  0.00     0.044 A 
HETATM   29  C   UNL     1     -41.728  54.713 -49.475  1.00  0.00     0.116 A 
HETATM   30  F   UNL     1     -41.186  53.767 -48.697  1.00  0.00    -0.206 F 
HETATM   31  C   UNL     1     -42.983  54.505 -50.032  1.00  0.00     0.044 A 
HETATM   32  C   UNL     1     -43.547  55.495 -50.842  1.00  0.00     0.032 A 
ENDBRANCH  23  26
ENDBRANCH  21  22
ENDBRANCH  18  21
ENDBRANCH   1  17
TORSDOF 8
ENDMDL
MODEL 5
REMARK VINA RESULT:      -7.3      2.426      6.026
REMARK  8 active torsions:
REMARK  status: ('A' for Active; 'I' for Inactive)
REMARK    1  A    between atoms: O_2  and  C_3 
REMARK    2  A    between atoms: C_6  and  C_7 
REMARK    3  A    between atoms: C_11  and  S_12 
REMARK    4  A    between atoms: S_12  and  C_13 
REMARK    5  A    between atoms: C_13  and  C_14 
REMARK       I    between atoms: C_14  and  N_15 
REMARK    6  A    between atoms: N_15  and  C_16 
REMARK    7  A    between atoms: C_16  and  C_17 
REMARK       I    between atoms: C_17  and  N_18 
REMARK    8  A    between atoms: N_18  and  C_19 
ROOT
HETATM    1  C   UNL     1     -44.502  58.812 -52.374  1.00  0.00     0.185 C 
ENDROOT
BRANCH   1   2
HETATM    2  S   UNL     1     -43.051  59.887 -52.610  1.00  0.00    -0.081 SA
BRANCH   2   3
HETATM    3  C   UNL     1     -42.686  59.542 -54.255  1.00  0.00     0.185 A 
HETATM    4  N   UNL     1     -41.833  60.314 -54.972  1.00  0.00    -0.253 N 
HETATM    5  N   UNL     1     -41.734  59.875 -56.237  1.00  0.00    -0.152 NA
HETATM    6  H   UNL     1     -41.310  61.129 -54.676  1.00  0.00     0.191 HD
HETATM    7  C   UNL     1     -42.561  58.814 -56.230  1.00  0.00     0.182 A 
HETATM    8  N   UNL     1     -43.159  58.582 -55.004  1.00  0.00    -0.201 NA
BRANCH   7   9
HETATM    9  C   UNL     1     -42.829  57.975 -57.394  1.00  0.00     0.014 A 
HETATM   10  C   UNL     1     -43.014  56.592 -57.263  1.00  0.00     0.018 A 
HETATM   11  C   UNL     1     -43.269  55.801 -58.387  1.00  0.00     0.037 A 
HETATM   12  C   UNL     1     -43.350  56.372 -59.658  1.00  0.00     0.068 A 
HETATM   13  C   UNL     1     -43.160  57.746 -59.800  1.00  0.00     0.037 A 
HETATM   14  C   UNL     1     -42.902  58.541 -58.674  1.00  0.00     0.018 A 
BRANCH  12  15
HETATM   15  O   UNL     1     -43.609  55.488 -60.668  1.00  0.00    -0.356 OA
HETATM   16  C   UNL     1     -44.972  55.142 -60.883  1.00  0.00     0.210 C 
ENDBRANCH  12  15
ENDBRANCH   7   9
ENDBRANCH   2   3
ENDBRANCH   1   2
BRANCH   1  17
HETATM   17  C   UNL     1     -44.252  57.657 -51.413  1.00  0.00     0.227 C 
HETATM   18  N   UNL     1     -43.071  56.970 -51.533  1.00  0.00    -0.352 N 
HETATM   19  H   UNL     1     -42.419  57.252 -52.257  1.00  0.00     0.162 HD
HETATM   20  O   UNL     1     -45.102  57.306 -50.591  1.00  0.00    -0.273 OA
BRANCH  18  21
HETATM   21  C   UNL     1     -42.659  55.938 -50.597  1.00  0.00     0.225 C 
BRANCH  21  22
HETATM   22  C   UNL     1     -42.462  54.566 -51.252  1.00  0.00     0.239 C 
HETATM   23  N   UNL     1     -41.138  54.303 -51.558  1.00  0.00    -0.326 N 
HETATM   24  H   UNL     1     -40.470  55.022 -51.269  1.00  0.00     0.169 HD
HETATM   25  O   UNL     1     -43.428  53.848 -51.500  1.00  0.00    -0.271 OA
BRANCH  23  26
HETATM   26  C   UNL     1     -40.605  53.177 -52.210  1.00  0.00     0.035 A 
HETATM   27  C   UNL     1     -39.972  52.119 -51.550  1.00  0.00     0.032 A 
HETATM   28  C   UNL     1     -39.477  51.030 -52.274  1.00  0.00     0.044 A 
HETATM   29  C   UNL     1     -39.615  51.001 -53.655  1.00  0.00     0.116 A 
HETATM   30  F   UNL     1     -39.142  49.956 -54.346  1.00  0.00    -0.206 F 
HETATM   31  C   UNL     1     -40.239  52.042 -54.329  1.00  0.00     0.044 A 
HETATM   32  C   UNL     1     -40.734  53.130 -53.605  1.00  0.00     0.032 A 
ENDBRANCH  23  26
ENDBRANCH  21  22
ENDBRANCH  18  21
ENDBRANCH   1  17
TORSDOF 8
ENDMDL
MODEL 6
REMARK VINA RESULT:      -7.2      5.284      7.822
REMARK  8 active torsions:
REMARK  status: ('A' for Active; 'I' for Inactive)
REMARK    1  A    between atoms: O_2  and  C_3 
REMARK    2  A    between atoms: C_6  and  C_7 
REMARK    3  A    between atoms: C_11  and  S_12 
REMARK    4  A    between atoms: S_12  and  C_13 
REMARK    5  A    between atoms: C_13  and  C_14 
REMARK       I    between atoms: C_14  and  N_15 
REMARK    6  A    between atoms: N_15  and  C_16 
REMARK    7  A    between atoms: C_16  and  C_17 
REMARK       I    between atoms: C_17  and  N_18 
REMARK    8  A    between atoms: N_18  and  C_19 
ROOT
HETATM    1  C   UNL     1     -42.320  57.511 -58.100  1.00  0.00     0.185 C 
ENDROOT
BRANCH   1   2
HETATM    2  S   UNL     1     -43.426  57.639 -56.658  1.00  0.00    -0.081 SA
BRANCH   2   3
HETATM    3  C   UNL     1     -42.458  56.863 -55.467  1.00  0.00     0.185 A 
HETATM    4  N   UNL     1     -41.740  57.572 -54.561  1.00  0.00    -0.253 N 
HETATM    5  N   UNL     1     -41.035  56.756 -53.761  1.00  0.00    -0.152 NA
HETATM    6  H   UNL     1     -41.678  58.575 -54.443  1.00  0.00     0.191 HD
HETATM    7  C   UNL     1     -41.374  55.542 -54.232  1.00  0.00     0.182 A 
HETATM    8  N   UNL     1     -42.265  55.584 -55.289  1.00  0.00    -0.201 NA
BRANCH   7   9
HETATM    9  C   UNL     1     -40.856  54.283 -53.704  1.00  0.00     0.014 A 
HETATM   10  C   UNL     1     -40.719  54.079 -52.325  1.00  0.00     0.018 A 
HETATM   11  C   UNL     1     -40.220  52.869 -51.833  1.00  0.00     0.037 A 
HETATM   12  C   UNL     1     -39.855  51.841 -52.704  1.00  0.00     0.068 A 
HETATM   13  C   UNL     1     -39.981  52.037 -54.079  1.00  0.00     0.037 A 
HETATM   14  C   UNL     1     -40.479  53.251 -54.574  1.00  0.00     0.018 A 
BRANCH  12  15
HETATM   15  O   UNL     1     -39.388  50.710 -52.093  1.00  0.00    -0.356 OA
HETATM   16  C   UNL     1     -39.601  49.480 -52.774  1.00  0.00     0.210 C 
ENDBRANCH  12  15
ENDBRANCH   7   9
ENDBRANCH   2   3
ENDBRANCH   1   2
BRANCH   1  17
HETATM   17  C   UNL     1     -42.748  56.444 -59.100  1.00  0.00     0.227 C 
HETATM   18  N   UNL     1     -43.788  55.622 -58.751  1.00  0.00    -0.352 N 
HETATM   19  H   UNL     1     -44.224  55.751 -57.845  1.00  0.00     0.162 HD
HETATM   20  O   UNL     1     -42.146  56.280 -60.163  1.00  0.00    -0.273 OA
BRANCH  18  21
HETATM   21  C   UNL     1     -44.372  54.656 -59.667  1.00  0.00     0.225 C 
BRANCH  21  22
HETATM   22  C   UNL     1     -45.240  55.298 -60.756  1.00  0.00     0.239 C 
HETATM   23  N   UNL     1     -46.120  56.241 -60.253  1.00  0.00    -0.326 N 
HETATM   24  H   UNL     1     -46.045  56.420 -59.248  1.00  0.00     0.169 HD
HETATM   25  O   UNL     1     -45.150  54.930 -61.924  1.00  0.00    -0.271 OA
BRANCH  23  26
HETATM   26  C   UNL     1     -47.093  56.979 -60.950  1.00  0.00     0.035 A 
HETATM   27  C   UNL     1     -48.040  56.409 -61.807  1.00  0.00     0.032 A 
HETATM   28  C   UNL     1     -48.980  57.216 -62.457  1.00  0.00     0.044 A 
HETATM   29  C   UNL     1     -48.972  58.588 -62.248  1.00  0.00     0.116 A 
HETATM   30  F   UNL     1     -49.875  59.358 -62.869  1.00  0.00    -0.206 F 
HETATM   31  C   UNL     1     -48.040  59.173 -61.401  1.00  0.00     0.044 A 
HETATM   32  C   UNL     1     -47.100  58.367 -60.753  1.00  0.00     0.032 A 
ENDBRANCH  23  26
ENDBRANCH  21  22
ENDBRANCH  18  21
ENDBRANCH   1  17
TORSDOF 8
ENDMDL
MODEL 7
REMARK VINA RESULT:      -7.0      5.366      6.061
REMARK  8 active torsions:
REMARK  status: ('A' for Active; 'I' for Inactive)
REMARK    1  A    between atoms: O_2  and  C_3 
REMARK    2  A    between atoms: C_6  and  C_7 
REMARK    3  A    between atoms: C_11  and  S_12 
REMARK    4  A    between atoms: S_12  and  C_13 
REMARK    5  A    between atoms: C_13  and  C_14 
REMARK       I    between atoms: C_14  and  N_15 
REMARK    6  A    between atoms: N_15  and  C_16 
REMARK    7  A    between atoms: C_16  and  C_17 
REMARK       I    between atoms: C_17  and  N_18 
REMARK    8  A    between atoms: N_18  and  C_19 
ROOT
HETATM    1  C   UNL     1     -43.674  58.469 -52.344  1.00  0.00     0.185 C 
ENDROOT
BRANCH   1   2
HETATM    2  S   UNL     1     -43.269  60.228 -52.094  1.00  0.00    -0.081 SA
BRANCH   2   3
HETATM    3  C   UNL     1     -44.165  60.542 -50.660  1.00  0.00     0.185 A 
HETATM    4  N   UNL     1     -45.467  60.181 -50.541  1.00  0.00    -0.253 N 
HETATM    5  N   UNL     1     -45.965  60.562 -49.354  1.00  0.00    -0.152 NA
HETATM    6  H   UNL     1     -46.058  59.699 -51.208  1.00  0.00     0.191 HD
HETATM    7  C   UNL     1     -44.901  61.156 -48.783  1.00  0.00     0.182 A 
HETATM    8  N   UNL     1     -43.768  61.149 -49.574  1.00  0.00    -0.201 NA
BRANCH   7   9
HETATM    9  C   UNL     1     -44.918  61.770 -47.458  1.00  0.00     0.014 A 
HETATM   10  C   UNL     1     -44.743  60.999 -46.301  1.00  0.00     0.018 A 
HETATM   11  C   UNL     1     -44.763  61.600 -45.039  1.00  0.00     0.037 A 
HETATM   12  C   UNL     1     -44.951  62.977 -44.906  1.00  0.00     0.068 A 
HETATM   13  C   UNL     1     -45.133  63.752 -46.052  1.00  0.00     0.037 A 
HETATM   14  C   UNL     1     -45.116  63.150 -47.318  1.00  0.00     0.018 A 
BRANCH  12  15
HETATM   15  O   UNL     1     -44.943  63.435 -43.619  1.00  0.00    -0.356 OA
HETATM   16  C   UNL     1     -43.944  62.905 -42.756  1.00  0.00     0.210 C 
ENDBRANCH  12  15
ENDBRANCH   7   9
ENDBRANCH   2   3
ENDBRANCH   1   2
BRANCH   1  17
HETATM   17  C   UNL     1     -42.588  57.521 -51.854  1.00  0.00     0.227 C 
HETATM   18  N   UNL     1     -42.760  56.931 -50.628  1.00  0.00    -0.352 N 
HETATM   19  H   UNL     1     -43.595  57.153 -50.097  1.00  0.00     0.162 HD
HETATM   20  O   UNL     1     -41.557  57.332 -52.504  1.00  0.00    -0.273 OA
BRANCH  18  21
HETATM   21  C   UNL     1     -41.863  55.912 -50.110  1.00  0.00     0.225 C 
BRANCH  21  22
HETATM   22  C   UNL     1     -41.933  54.590 -50.882  1.00  0.00     0.239 C 
HETATM   23  N   UNL     1     -40.755  54.295 -51.548  1.00  0.00    -0.326 N 
HETATM   24  H   UNL     1     -39.990  54.957 -51.401  1.00  0.00     0.169 HD
HETATM   25  O   UNL     1     -42.974  53.938 -50.909  1.00  0.00    -0.271 OA
BRANCH  23  26
HETATM   26  C   UNL     1     -40.486  53.201 -52.390  1.00  0.00     0.035 A 
HETATM   27  C   UNL     1     -40.851  53.144 -53.738  1.00  0.00     0.032 A 
HETATM   28  C   UNL     1     -40.536  52.020 -54.509  1.00  0.00     0.044 A 
HETATM   29  C   UNL     1     -39.856  50.957 -53.930  1.00  0.00     0.116 A 
HETATM   30  F   UNL     1     -39.553  49.883 -54.671  1.00  0.00    -0.206 F 
HETATM   31  C   UNL     1     -39.486  50.994 -52.593  1.00  0.00     0.044 A 
HETATM   32  C   UNL     1     -39.801  52.117 -51.823  1.00  0.00     0.032 A 
ENDBRANCH  23  26
ENDBRANCH  21  22
ENDBRANCH  18  21
ENDBRANCH   1  17
TORSDOF 8
ENDMDL
MODEL 8
REMARK VINA RESULT:      -7.0      2.237      3.399
REMARK  8 active torsions:
REMARK  status: ('A' for Active; 'I' for Inactive)
REMARK    1  A    between atoms: O_2  and  C_3 
REMARK    2  A    between atoms: C_6  and  C_7 
REMARK    3  A    between atoms: C_11  and  S_12 
REMARK    4  A    between atoms: S_12  and  C_13 
REMARK    5  A    between atoms: C_13  and  C_14 
REMARK       I    between atoms: C_14  and  N_15 
REMARK    6  A    between atoms: N_15  and  C_16 
REMARK    7  A    between atoms: C_16  and  C_17 
REMARK       I    between atoms: C_17  and  N_18 
REMARK    8  A    between atoms: N_18  and  C_19 
ROOT
HETATM    1  C   UNL     1     -45.103  61.177 -53.791  1.00  0.00     0.185 C 
ENDROOT
BRANCH   1   2
HETATM    2  S   UNL     1     -45.883  60.268 -52.418  1.00  0.00    -0.081 SA
BRANCH   2   3
HETATM    3  C   UNL     1     -44.554  59.309 -51.898  1.00  0.00     0.185 A 
HETATM    4  N   UNL     1     -43.393  59.869 -51.477  1.00  0.00    -0.253 N 
HETATM    5  N   UNL     1     -42.491  58.927 -51.159  1.00  0.00    -0.152 NA
HETATM    6  H   UNL     1     -43.153  60.849 -51.393  1.00  0.00     0.191 HD
HETATM    7  C   UNL     1     -43.173  57.793 -51.407  1.00  0.00     0.182 A 
HETATM    8  N   UNL     1     -44.462  58.006 -51.860  1.00  0.00    -0.201 NA
BRANCH   7   9
HETATM    9  C   UNL     1     -42.624  56.452 -51.234  1.00  0.00     0.014 A 
HETATM   10  C   UNL     1     -41.314  56.260 -50.776  1.00  0.00     0.018 A 
HETATM   11  C   UNL     1     -40.801  54.969 -50.616  1.00  0.00     0.037 A 
HETATM   12  C   UNL     1     -41.583  53.849 -50.903  1.00  0.00     0.068 A 
HETATM   13  C   UNL     1     -42.886  54.030 -51.367  1.00  0.00     0.037 A 
HETATM   14  C   UNL     1     -43.401  55.324 -51.530  1.00  0.00     0.018 A 
BRANCH  12  15
HETATM   15  O   UNL     1     -40.962  52.648 -50.699  1.00  0.00    -0.356 OA
HETATM   16  C   UNL     1     -39.727  52.442 -51.374  1.00  0.00     0.210 C 
ENDBRANCH  12  15
ENDBRANCH   7   9
ENDBRANCH   2   3
ENDBRANCH   1   2
BRANCH   1  17
HETATM   17  C   UNL     1     -44.997  60.363 -55.074  1.00  0.00     0.227 C 
HETATM   18  N   UNL     1     -45.488  59.083 -55.061  1.00  0.00    -0.352 N 
HETATM   19  H   UNL     1     -45.892  58.728 -54.201  1.00  0.00     0.162 HD
HETATM   20  O   UNL     1     -44.437  60.812 -56.077  1.00  0.00    -0.273 OA
BRANCH  18  21
HETATM   21  C   UNL     1     -45.564  58.255 -56.253  1.00  0.00     0.225 C 
BRANCH  21  22
HETATM   22  C   UNL     1     -44.348  57.338 -56.435  1.00  0.00     0.239 C 
HETATM   23  N   UNL     1     -43.966  56.715 -55.260  1.00  0.00    -0.326 N 
HETATM   24  H   UNL     1     -44.561  56.903 -54.450  1.00  0.00     0.169 HD
HETATM   25  O   UNL     1     -43.787  57.255 -57.525  1.00  0.00    -0.271 OA
BRANCH  23  26
HETATM   26  C   UNL     1     -42.871  55.859 -55.048  1.00  0.00     0.035 A 
HETATM   27  C   UNL     1     -41.581  56.301 -54.739  1.00  0.00     0.032 A 
HETATM   28  C   UNL     1     -40.548  55.381 -54.535  1.00  0.00     0.044 A 
HETATM   29  C   UNL     1     -40.807  54.021 -54.640  1.00  0.00     0.116 A 
HETATM   30  F   UNL     1     -39.817  53.141 -54.442  1.00  0.00    -0.206 F 
HETATM   31  C   UNL     1     -42.080  53.561 -54.947  1.00  0.00     0.044 A 
HETATM   32  C   UNL     1     -43.112  54.481 -55.151  1.00  0.00     0.032 A 
ENDBRANCH  23  26
ENDBRANCH  21  22
ENDBRANCH  18  21
ENDBRANCH   1  17
TORSDOF 8
ENDMDL
MODEL 9
REMARK VINA RESULT:      -7.0      2.437      4.562
REMARK  8 active torsions:
REMARK  status: ('A' for Active; 'I' for Inactive)
REMARK    1  A    between atoms: O_2  and  C_3 
REMARK    2  A    between atoms: C_6  and  C_7 
REMARK    3  A    between atoms: C_11  and  S_12 
REMARK    4  A    between atoms: S_12  and  C_13 
REMARK    5  A    between atoms: C_13  and  C_14 
REMARK       I    between atoms: C_14  and  N_15 
REMARK    6  A    between atoms: N_15  and  C_16 
REMARK    7  A    between atoms: C_16  and  C_17 
REMARK       I    between atoms: C_17  and  N_18 
REMARK    8  A    between atoms: N_18  and  C_19 
ROOT
HETATM    1  C   UNL     1     -44.747  61.265 -54.659  1.00  0.00     0.185 C 
ENDROOT
BRANCH   1   2
HETATM    2  S   UNL     1     -44.405  60.360 -56.203  1.00  0.00    -0.081 SA
BRANCH   2   3
HETATM    3  C   UNL     1     -44.184  58.773 -55.578  1.00  0.00     0.185 A 
HETATM    4  N   UNL     1     -45.160  58.140 -54.881  1.00  0.00    -0.253 N 
HETATM    5  N   UNL     1     -44.747  56.933 -54.463  1.00  0.00    -0.152 NA
HETATM    6  H   UNL     1     -46.092  58.464 -54.654  1.00  0.00     0.191 HD
HETATM    7  C   UNL     1     -43.492  56.884 -54.948  1.00  0.00     0.182 A 
HETATM    8  N   UNL     1     -43.123  58.014 -55.653  1.00  0.00    -0.201 NA
BRANCH   7   9
HETATM    9  C   UNL     1     -42.582  55.759 -54.753  1.00  0.00     0.014 A 
HETATM   10  C   UNL     1     -41.222  55.967 -54.489  1.00  0.00     0.018 A 
HETATM   11  C   UNL     1     -40.360  54.881 -54.306  1.00  0.00     0.037 A 
HETATM   12  C   UNL     1     -40.839  53.571 -54.376  1.00  0.00     0.068 A 
HETATM   13  C   UNL     1     -42.190  53.354 -54.645  1.00  0.00     0.037 A 
HETATM   14  C   UNL     1     -43.054  54.442 -54.831  1.00  0.00     0.018 A 
BRANCH  12  15
HETATM   15  O   UNL     1     -39.894  52.604 -54.172  1.00  0.00    -0.356 OA
HETATM   16  C   UNL     1     -40.326  51.254 -54.283  1.00  0.00     0.210 C 
ENDBRANCH  12  15
ENDBRANCH   7   9
ENDBRANCH   2   3
ENDBRANCH   1   2
BRANCH   1  17
HETATM   17  C   UNL     1     -43.679  61.067 -53.591  1.00  0.00     0.227 C 
HETATM   18  N   UNL     1     -44.039  60.413 -52.441  1.00  0.00    -0.352 N 
HETATM   19  H   UNL     1     -44.997  60.095 -52.345  1.00  0.00     0.162 HD
HETATM   20  O   UNL     1     -42.544  61.530 -53.723  1.00  0.00    -0.273 OA
BRANCH  18  21
HETATM   21  C   UNL     1     -43.083  60.050 -51.408  1.00  0.00     0.225 C 
BRANCH  21  22
HETATM   22  C   UNL     1     -42.376  58.716 -51.676  1.00  0.00     0.239 C 
HETATM   23  N   UNL     1     -42.909  57.670 -50.942  1.00  0.00    -0.326 N 
HETATM   24  H   UNL     1     -43.719  57.907 -50.365  1.00  0.00     0.169 HD
HETATM   25  O   UNL     1     -41.411  58.663 -52.434  1.00  0.00    -0.271 OA
BRANCH  23  26
HETATM   26  C   UNL     1     -42.476  56.333 -50.896  1.00  0.00     0.035 A 
HETATM   27  C   UNL     1     -43.290  55.237 -51.196  1.00  0.00     0.032 A 
HETATM   28  C   UNL     1     -42.777  53.937 -51.135  1.00  0.00     0.044 A 
HETATM   29  C   UNL     1     -41.451  53.737 -50.775  1.00  0.00     0.116 A 
HETATM   30  F   UNL     1     -40.961  52.492 -50.719  1.00  0.00    -0.206 F 
HETATM   31  C   UNL     1     -40.626  54.812 -50.472  1.00  0.00     0.044 A 
HETATM   32  C   UNL     1     -41.139  56.111 -50.534  1.00  0.00     0.032 A 
ENDBRANCH  23  26
ENDBRANCH  21  22
ENDBRANCH  18  21
ENDBRANCH   1  17
TORSDOF 8
ENDMDL
MODEL 10
REMARK VINA RESULT:      -6.9      3.524      6.016
REMARK  8 active torsions:
REMARK  status: ('A' for Active; 'I' for Inactive)
REMARK    1  A    between atoms: O_2  and  C_3 
REMARK    2  A    between atoms: C_6  and  C_7 
REMARK    3  A    between atoms: C_11  and  S_12 
REMARK    4  A    between atoms: S_12  and  C_13 
REMARK    5  A    between atoms: C_13  and  C_14 
REMARK       I    between atoms: C_14  and  N_15 
REMARK    6  A    between atoms: N_15  and  C_16 
REMARK    7  A    between atoms: C_16  and  C_17 
REMARK       I    between atoms: C_17  and  N_18 
REMARK    8  A    between atoms: N_18  and  C_19 
ROOT
HETATM    1  C   UNL     1     -43.642  59.269 -51.680  1.00  0.00     0.185 C 
ENDROOT
BRANCH   1   2
HETATM    2  S   UNL     1     -44.594  57.757 -51.324  1.00  0.00    -0.081 SA
BRANCH   2   3
HETATM    3  C   UNL     1     -43.319  56.604 -51.270  1.00  0.00     0.185 A 
HETATM    4  N   UNL     1     -42.378  56.630 -50.293  1.00  0.00    -0.253 N 
HETATM    5  N   UNL     1     -41.466  55.662 -50.479  1.00  0.00    -0.152 NA
HETATM    6  H   UNL     1     -42.295  57.260 -49.506  1.00  0.00     0.191 HD
HETATM    7  C   UNL     1     -41.914  55.067 -51.600  1.00  0.00     0.182 A 
HETATM    8  N   UNL     1     -43.071  55.632 -52.106  1.00  0.00    -0.201 NA
BRANCH   7   9
HETATM    9  C   UNL     1     -41.255  53.938 -52.249  1.00  0.00     0.014 A 
HETATM   10  C   UNL     1     -40.433  53.066 -51.523  1.00  0.00     0.018 A 
HETATM   11  C   UNL     1     -39.806  51.989 -52.158  1.00  0.00     0.037 A 
HETATM   12  C   UNL     1     -39.991  51.759 -53.523  1.00  0.00     0.068 A 
HETATM   13  C   UNL     1     -40.802  52.626 -54.255  1.00  0.00     0.037 A 
HETATM   14  C   UNL     1     -41.429  53.707 -53.620  1.00  0.00     0.018 A 
BRANCH  12  15
HETATM   15  O   UNL     1     -39.327  50.670 -54.016  1.00  0.00    -0.356 OA
HETATM   16  C   UNL     1     -39.442  49.460 -53.277  1.00  0.00     0.210 C 
ENDBRANCH  12  15
ENDBRANCH   7   9
ENDBRANCH   2   3
ENDBRANCH   1   2
BRANCH   1  17
HETATM   17  C   UNL     1     -43.320  59.449 -53.158  1.00  0.00     0.227 C 
HETATM   18  N   UNL     1     -42.445  58.563 -53.733  1.00  0.00    -0.352 N 
HETATM   19  H   UNL     1     -42.046  57.833 -53.155  1.00  0.00     0.162 HD
HETATM   20  O   UNL     1     -43.778  60.393 -53.806  1.00  0.00    -0.273 OA
BRANCH  18  21
HETATM   21  C   UNL     1     -42.159  58.550 -55.158  1.00  0.00     0.225 C 
BRANCH  21  22
HETATM   22  C   UNL     1     -43.025  57.558 -55.943  1.00  0.00     0.239 C 
HETATM   23  N   UNL     1     -42.987  57.778 -57.310  1.00  0.00    -0.326 N 
HETATM   24  H   UNL     1     -42.361  58.526 -57.617  1.00  0.00     0.169 HD
HETATM   25  O   UNL     1     -43.699  56.716 -55.355  1.00  0.00    -0.271 OA
BRANCH  23  26
HETATM   26  C   UNL     1     -43.696  57.100 -58.317  1.00  0.00     0.035 A 
HETATM   27  C   UNL     1     -44.882  57.570 -58.890  1.00  0.00     0.032 A 
HETATM   28  C   UNL     1     -45.520  56.837 -59.896  1.00  0.00     0.044 A 
HETATM   29  C   UNL     1     -44.971  55.636 -60.327  1.00  0.00     0.116 A 
HETATM   30  F   UNL     1     -45.583  54.937 -61.291  1.00  0.00    -0.206 F 
HETATM   31  C   UNL     1     -43.795  55.152 -59.770  1.00  0.00     0.044 A 
HETATM   32  C   UNL     1     -43.158  55.885 -58.765  1.00  0.00     0.032 A 
ENDBRANCH  23  26
ENDBRANCH  21  22
ENDBRANCH  18  21
ENDBRANCH   1  17
TORSDOF 8
ENDMDL
