MODEL 1
REMARK VINA RESULT:      -7.7      0.000      0.000
REMARK  6 active torsions:
REMARK  status: ('A' for Active; 'I' for Inactive)
REMARK    1  A    between atoms: C_2  and  N_3 
REMARK       I    between atoms: N_3  and  C_4 
REMARK    2  A    between atoms: C_4  and  C_5 
REMARK    3  A    between atoms: C_6  and  N_7 
REMARK       I    between atoms: N_7  and  C_8 
REMARK    4  A    between atoms: C_8  and  C_9 
REMARK    5  A    between atoms: C_11  and  O_12 
REMARK    6  A    between atoms: O_12  and  C_13 
ROOT
HETATM    1  N   UNL     1     -41.526  53.444 -54.082  1.00  0.00    -0.322 N 
HETATM    2  C   UNL     1     -41.063  54.543 -54.785  1.00  0.00     0.256 C 
HETATM    3  O   UNL     1     -39.886  54.816 -54.996  1.00  0.00    -0.267 OA
HETATM    4  H   UNL     1     -42.510  53.421 -53.837  1.00  0.00     0.169 HD
ENDROOT
BRANCH   1   5
HETATM    5  C   UNL     1     -40.765  52.335 -53.621  1.00  0.00     0.050 A 
HETATM    6  C   UNL     1     -40.366  52.272 -52.268  1.00  0.00     0.058 A 
HETATM    7  C   UNL     1     -39.697  51.145 -51.766  1.00  0.00     0.019 A 
HETATM    8  C   UNL     1     -39.386  50.081 -52.608  1.00  0.00     0.001 A 
HETATM    9  C   UNL     1     -39.752  50.139 -53.948  1.00  0.00     0.002 A 
HETATM   10  C   UNL     1     -40.439  51.253 -54.448  1.00  0.00     0.030 A 
BRANCH   6  11
HETATM   11  C   UNL     1     -40.615  53.371 -51.300  1.00  0.00     0.253 C 
HETATM   12  N   UNL     1     -39.600  53.602 -50.389  1.00  0.00    -0.357 N 
HETATM   13  H   UNL     1     -38.907  52.868 -50.279  1.00  0.00     0.162 HD
HETATM   14  O   UNL     1     -41.675  53.982 -51.314  1.00  0.00    -0.268 OA
BRANCH  12  15
HETATM   15  C   UNL     1     -39.804  54.497 -49.266  1.00  0.00     0.118 C 
HETATM   16  C   UNL     1     -40.388  53.784 -48.059  1.00  0.00     0.026 C 
ENDBRANCH  12  15
ENDBRANCH   6  11
ENDBRANCH   1   5
BRANCH   2  17
HETATM   17  C   UNL     1     -42.098  55.491 -55.293  1.00  0.00     0.037 A 
HETATM   18  C   UNL     1     -42.186  55.679 -56.674  1.00  0.00     0.075 A 
HETATM   19  C   UNL     1     -43.171  56.516 -57.159  1.00  0.00     0.165 A 
HETATM   20  N   UNL     1     -44.049  57.175 -56.377  1.00  0.00    -0.237 NA
HETATM   21  C   UNL     1     -43.953  56.968 -55.046  1.00  0.00     0.120 A 
HETATM   22  C   UNL     1     -43.010  56.141 -54.458  1.00  0.00     0.036 A 
BRANCH  19  23
HETATM   23  O   UNL     1     -43.244  56.653 -58.531  1.00  0.00    -0.329 OA
BRANCH  23  24
HETATM   24  C   UNL     1     -44.398  56.072 -59.174  1.00  0.00     0.130 C 
HETATM   25  C   UNL     1     -44.569  56.348 -60.691  1.00  0.00     0.032 C 
HETATM   26  C   UNL     1     -45.023  54.886 -60.845  1.00  0.00     0.005 C 
HETATM   27  C   UNL     1     -44.236  54.577 -59.559  1.00  0.00     0.032 C 
ENDBRANCH  23  24
ENDBRANCH  19  23
ENDBRANCH   2  17
TORSDOF 6
ENDMDL
MODEL 2
REMARK VINA RESULT:      -7.7      2.064      7.390
REMARK  6 active torsions:
REMARK  status: ('A' for Active; 'I' for Inactive)
REMARK    1  A    between atoms: C_2  and  N_3 
REMARK       I    between atoms: N_3  and  C_4 
REMARK    2  A    between atoms: C_4  and  C_5 
REMARK    3  A    between atoms: C_6  and  N_7 
REMARK       I    between atoms: N_7  and  C_8 
REMARK    4  A    between atoms: C_8  and  C_9 
REMARK    5  A    between atoms: C_11  and  O_12 
REMARK    6  A    between atoms: O_12  and  C_13 
ROOT
HETATM    1  N   UNL     1     -42.060  54.043 -54.847  1.00  0.00    -0.322 N 
HETATM    2  C   UNL     1     -40.709  53.746 -54.776  1.00  0.00     0.256 C 
HETATM    3  O   UNL     1     -39.823  54.280 -55.434  1.00  0.00    -0.267 OA
HETATM    4  H   UNL     1     -42.706  53.419 -54.375  1.00  0.00     0.169 HD
ENDROOT
BRANCH   1   5
HETATM    5  C   UNL     1     -42.669  55.122 -55.547  1.00  0.00     0.050 A 
HETATM    6  C   UNL     1     -43.098  56.264 -54.837  1.00  0.00     0.058 A 
HETATM    7  C   UNL     1     -43.615  57.380 -55.513  1.00  0.00     0.019 A 
HETATM    8  C   UNL     1     -43.744  57.362 -56.899  1.00  0.00     0.001 A 
HETATM    9  C   UNL     1     -43.348  56.234 -57.609  1.00  0.00     0.002 A 
HETATM   10  C   UNL     1     -42.811  55.127 -56.940  1.00  0.00     0.030 A 
BRANCH   6  11
HETATM   11  C   UNL     1     -43.040  56.365 -53.356  1.00  0.00     0.253 C 
HETATM   12  N   UNL     1     -44.259  56.511 -52.721  1.00  0.00    -0.357 N 
HETATM   13  H   UNL     1     -45.046  56.793 -53.299  1.00  0.00     0.162 HD
HETATM   14  O   UNL     1     -41.962  56.356 -52.775  1.00  0.00    -0.268 OA
BRANCH  12  15
HETATM   15  C   UNL     1     -44.324  56.831 -51.308  1.00  0.00     0.118 C 
HETATM   16  C   UNL     1     -44.932  58.199 -51.054  1.00  0.00     0.026 C 
ENDBRANCH  12  15
ENDBRANCH   6  11
ENDBRANCH   1   5
BRANCH   2  17
HETATM   17  C   UNL     1     -40.319  52.651 -53.840  1.00  0.00     0.037 A 
HETATM   18  C   UNL     1     -40.346  52.926 -52.471  1.00  0.00     0.075 A 
HETATM   19  C   UNL     1     -40.033  51.908 -51.593  1.00  0.00     0.165 A 
HETATM   20  N   UNL     1     -39.690  50.662 -51.979  1.00  0.00    -0.237 NA
HETATM   21  C   UNL     1     -39.682  50.417 -53.306  1.00  0.00     0.120 A 
HETATM   22  C   UNL     1     -39.991  51.363 -54.269  1.00  0.00     0.036 A 
BRANCH  19  23
HETATM   23  O   UNL     1     -40.100  52.211 -50.247  1.00  0.00    -0.329 OA
BRANCH  23  24
HETATM   24  C   UNL     1     -40.148  53.612 -49.905  1.00  0.00     0.130 C 
HETATM   25  C   UNL     1     -41.548  54.280 -49.877  1.00  0.00     0.032 C 
HETATM   26  C   UNL     1     -41.095  55.038 -48.618  1.00  0.00     0.005 C 
HETATM   27  C   UNL     1     -40.080  53.906 -48.383  1.00  0.00     0.032 C 
ENDBRANCH  23  24
ENDBRANCH  19  23
ENDBRANCH   2  17
TORSDOF 6
ENDMDL
MODEL 3
REMARK VINA RESULT:      -7.7      2.646      4.845
REMARK  6 active torsions:
REMARK  status: ('A' for Active; 'I' for Inactive)
REMARK    1  A    between atoms: C_2  and  N_3 
REMARK       I    between atoms: N_3  and  C_4 
REMARK    2  A    between atoms: C_4  and  C_5 
REMARK    3  A    between atoms: C_6  and  N_7 
REMARK       I    between atoms: N_7  and  C_8 
REMARK    4  A    between atoms: C_8  and  C_9 
REMARK    5  A    between atoms: C_11  and  O_12 
REMARK    6  A    between atoms: O_12  and  C_13 
ROOT
HETATM    1  N   UNL     1     -40.442  53.801 -53.887  1.00  0.00    -0.322 N 
HETATM    2  C   UNL     1     -41.636  54.224 -54.447  1.00  0.00     0.256 C 
HETATM    3  O   UNL     1     -42.553  53.498 -54.815  1.00  0.00    -0.267 OA
HETATM    4  H   UNL     1     -39.702  54.486 -53.779  1.00  0.00     0.169 HD
ENDROOT
BRANCH   1   5
HETATM    5  C   UNL     1     -40.108  52.483 -53.468  1.00  0.00     0.050 A 
HETATM    6  C   UNL     1     -40.047  52.181 -52.090  1.00  0.00     0.058 A 
HETATM    7  C   UNL     1     -39.812  50.868 -51.651  1.00  0.00     0.019 A 
HETATM    8  C   UNL     1     -39.600  49.847 -52.573  1.00  0.00     0.001 A 
HETATM    9  C   UNL     1     -39.633  50.136 -53.933  1.00  0.00     0.002 A 
HETATM   10  C   UNL     1     -39.889  51.440 -54.376  1.00  0.00     0.030 A 
BRANCH   6  11
HETATM   11  C   UNL     1     -40.219  53.205 -51.029  1.00  0.00     0.253 C 
HETATM   12  N   UNL     1     -41.528  53.509 -50.703  1.00  0.00    -0.357 N 
HETATM   13  H   UNL     1     -42.244  53.223 -51.365  1.00  0.00     0.162 HD
HETATM   14  O   UNL     1     -39.244  53.750 -50.527  1.00  0.00    -0.268 OA
BRANCH  12  15
HETATM   15  C   UNL     1     -41.833  54.635 -49.841  1.00  0.00     0.118 C 
HETATM   16  C   UNL     1     -42.645  55.703 -50.552  1.00  0.00     0.026 C 
ENDBRANCH  12  15
ENDBRANCH   6  11
ENDBRANCH   1   5
BRANCH   2  17
HETATM   17  C   UNL     1     -41.790  55.695 -54.648  1.00  0.00     0.037 A 
HETATM   18  C   UNL     1     -41.058  56.545 -53.816  1.00  0.00     0.075 A 
HETATM   19  C   UNL     1     -41.155  57.906 -54.023  1.00  0.00     0.165 A 
HETATM   20  N   UNL     1     -41.924  58.469 -54.977  1.00  0.00    -0.237 NA
HETATM   21  C   UNL     1     -42.612  57.627 -55.777  1.00  0.00     0.120 A 
HETATM   22  C   UNL     1     -42.576  56.247 -55.661  1.00  0.00     0.036 A 
BRANCH  19  23
HETATM   23  O   UNL     1     -40.393  58.712 -53.199  1.00  0.00    -0.329 OA
BRANCH  23  24
HETATM   24  C   UNL     1     -40.550  58.510 -51.779  1.00  0.00     0.130 C 
HETATM   25  C   UNL     1     -39.589  59.294 -50.848  1.00  0.00     0.032 C 
HETATM   26  C   UNL     1     -40.786  59.530 -49.910  1.00  0.00     0.005 C 
HETATM   27  C   UNL     1     -41.697  59.333 -51.134  1.00  0.00     0.032 C 
ENDBRANCH  23  24
ENDBRANCH  19  23
ENDBRANCH   2  17
TORSDOF 6
ENDMDL
MODEL 4
REMARK VINA RESULT:      -7.4      1.489      3.430
REMARK  6 active torsions:
REMARK  status: ('A' for Active; 'I' for Inactive)
REMARK    1  A    between atoms: C_2  and  N_3 
REMARK       I    between atoms: N_3  and  C_4 
REMARK    2  A    between atoms: C_4  and  C_5 
REMARK    3  A    between atoms: C_6  and  N_7 
REMARK       I    between atoms: N_7  and  C_8 
REMARK    4  A    between atoms: C_8  and  C_9 
REMARK    5  A    between atoms: C_11  and  O_12 
REMARK    6  A    between atoms: O_12  and  C_13 
ROOT
HETATM    1  N   UNL     1     -42.299  55.702 -52.616  1.00  0.00    -0.322 N 
HETATM    2  C   UNL     1     -42.027  56.901 -53.252  1.00  0.00     0.256 C 
HETATM    3  O   UNL     1     -41.197  57.730 -52.895  1.00  0.00    -0.267 OA
HETATM    4  H   UNL     1     -43.120  55.185 -52.914  1.00  0.00     0.169 HD
ENDROOT
BRANCH   1   5
HETATM    5  C   UNL     1     -41.571  55.109 -51.547  1.00  0.00     0.050 A 
HETATM    6  C   UNL     1     -40.671  54.055 -51.813  1.00  0.00     0.058 A 
HETATM    7  C   UNL     1     -39.871  53.516 -50.793  1.00  0.00     0.019 A 
HETATM    8  C   UNL     1     -39.980  53.995 -49.490  1.00  0.00     0.001 A 
HETATM    9  C   UNL     1     -40.880  55.017 -49.209  1.00  0.00     0.002 A 
HETATM   10  C   UNL     1     -41.664  55.572 -50.229  1.00  0.00     0.030 A 
BRANCH   6  11
HETATM   11  C   UNL     1     -40.510  53.448 -53.159  1.00  0.00     0.253 C 
HETATM   12  N   UNL     1     -40.631  52.072 -53.210  1.00  0.00    -0.357 N 
HETATM   13  H   UNL     1     -40.558  51.573 -52.328  1.00  0.00     0.162 HD
HETATM   14  O   UNL     1     -40.249  54.149 -54.129  1.00  0.00    -0.268 OA
BRANCH  12  15
HETATM   15  C   UNL     1     -40.288  51.343 -54.416  1.00  0.00     0.118 C 
HETATM   16  C   UNL     1     -39.558  50.045 -54.119  1.00  0.00     0.026 C 
ENDBRANCH  12  15
ENDBRANCH   6  11
ENDBRANCH   1   5
BRANCH   2  17
HETATM   17  C   UNL     1     -42.853  57.218 -54.454  1.00  0.00     0.037 A 
HETATM   18  C   UNL     1     -42.575  56.525 -55.634  1.00  0.00     0.075 A 
HETATM   19  C   UNL     1     -43.362  56.774 -56.740  1.00  0.00     0.165 A 
HETATM   20  N   UNL     1     -44.381  57.656 -56.754  1.00  0.00    -0.237 NA
HETATM   21  C   UNL     1     -44.639  58.305 -55.599  1.00  0.00     0.120 A 
HETATM   22  C   UNL     1     -43.918  58.121 -54.430  1.00  0.00     0.036 A 
BRANCH  19  23
HETATM   23  O   UNL     1     -43.074  56.047 -57.879  1.00  0.00    -0.329 OA
BRANCH  23  24
HETATM   24  C   UNL     1     -44.118  55.967 -58.871  1.00  0.00     0.130 C 
HETATM   25  C   UNL     1     -43.749  56.403 -60.314  1.00  0.00     0.032 C 
HETATM   26  C   UNL     1     -44.585  55.214 -60.822  1.00  0.00     0.005 C 
HETATM   27  C   UNL     1     -44.342  54.547 -59.457  1.00  0.00     0.032 C 
ENDBRANCH  23  24
ENDBRANCH  19  23
ENDBRANCH   2  17
TORSDOF 6
ENDMDL
MODEL 5
REMARK VINA RESULT:      -7.3      1.943      2.250
REMARK  6 active torsions:
REMARK  status: ('A' for Active; 'I' for Inactive)
REMARK    1  A    between atoms: C_2  and  N_3 
REMARK       I    between atoms: N_3  and  C_4 
REMARK    2  A    between atoms: C_4  and  C_5 
REMARK    3  A    between atoms: C_6  and  N_7 
REMARK       I    between atoms: N_7  and  C_8 
REMARK    4  A    between atoms: C_8  and  C_9 
REMARK    5  A    between atoms: C_11  and  O_12 
REMARK    6  A    between atoms: O_12  and  C_13 
ROOT
HETATM    1  N   UNL     1     -41.063  54.700 -54.924  1.00  0.00    -0.322 N 
HETATM    2  C   UNL     1     -42.290  54.728 -55.565  1.00  0.00     0.256 C 
HETATM    3  O   UNL     1     -43.134  53.839 -55.535  1.00  0.00    -0.267 OA
HETATM    4  H   UNL     1     -40.390  55.421 -55.161  1.00  0.00     0.169 HD
ENDROOT
BRANCH   1   5
HETATM    5  C   UNL     1     -40.608  53.742 -53.976  1.00  0.00     0.050 A 
HETATM    6  C   UNL     1     -40.807  53.972 -52.597  1.00  0.00     0.058 A 
HETATM    7  C   UNL     1     -40.454  53.001 -51.647  1.00  0.00     0.019 A 
HETATM    8  C   UNL     1     -39.867  51.805 -52.051  1.00  0.00     0.001 A 
HETATM    9  C   UNL     1     -39.643  51.576 -53.404  1.00  0.00     0.002 A 
HETATM   10  C   UNL     1     -40.015  52.533 -54.357  1.00  0.00     0.030 A 
BRANCH   6  11
HETATM   11  C   UNL     1     -41.388  55.230 -52.062  1.00  0.00     0.253 C 
HETATM   12  N   UNL     1     -40.683  55.818 -51.028  1.00  0.00    -0.357 N 
HETATM   13  H   UNL     1     -40.000  55.237 -50.551  1.00  0.00     0.162 HD
HETATM   14  O   UNL     1     -42.443  55.665 -52.506  1.00  0.00    -0.268 OA
BRANCH  12  15
HETATM   15  C   UNL     1     -41.251  56.924 -50.281  1.00  0.00     0.118 C 
HETATM   16  C   UNL     1     -40.663  58.261 -50.695  1.00  0.00     0.026 C 
ENDBRANCH  12  15
ENDBRANCH   6  11
ENDBRANCH   1   5
BRANCH   2  17
HETATM   17  C   UNL     1     -42.579  55.935 -56.394  1.00  0.00     0.037 A 
HETATM   18  C   UNL     1     -43.122  55.736 -57.665  1.00  0.00     0.075 A 
HETATM   19  C   UNL     1     -43.437  56.846 -58.422  1.00  0.00     0.165 A 
HETATM   20  N   UNL     1     -43.243  58.116 -58.012  1.00  0.00    -0.237 NA
HETATM   21  C   UNL     1     -42.729  58.283 -56.776  1.00  0.00     0.120 A 
HETATM   22  C   UNL     1     -42.388  57.239 -55.932  1.00  0.00     0.036 A 
BRANCH  19  23
HETATM   23  O   UNL     1     -44.000  56.608 -59.661  1.00  0.00    -0.329 OA
BRANCH  23  24
HETATM   24  C   UNL     1     -45.369  56.155 -59.670  1.00  0.00     0.130 C 
HETATM   25  C   UNL     1     -46.469  57.247 -59.734  1.00  0.00     0.032 C 
HETATM   26  C   UNL     1     -47.235  56.333 -60.706  1.00  0.00     0.005 C 
HETATM   27  C   UNL     1     -45.884  55.685 -61.057  1.00  0.00     0.032 C 
ENDBRANCH  23  24
ENDBRANCH  19  23
ENDBRANCH   2  17
TORSDOF 6
ENDMDL
MODEL 6
REMARK VINA RESULT:      -7.2      2.221      7.784
REMARK  6 active torsions:
REMARK  status: ('A' for Active; 'I' for Inactive)
REMARK    1  A    between atoms: C_2  and  N_3 
REMARK       I    between atoms: N_3  and  C_4 
REMARK    2  A    between atoms: C_4  and  C_5 
REMARK    3  A    between atoms: C_6  and  N_7 
REMARK       I    between atoms: N_7  and  C_8 
REMARK    4  A    between atoms: C_8  and  C_9 
REMARK    5  A    between atoms: C_11  and  O_12 
REMARK    6  A    between atoms: O_12  and  C_13 
ROOT
HETATM    1  N   UNL     1     -42.969  56.445 -52.025  1.00  0.00    -0.322 N 
HETATM    2  C   UNL     1     -41.761  56.503 -51.350  1.00  0.00     0.256 C 
HETATM    3  O   UNL     1     -41.056  57.498 -51.226  1.00  0.00    -0.267 OA
HETATM    4  H   UNL     1     -43.370  55.529 -52.196  1.00  0.00     0.169 HD
ENDROOT
BRANCH   1   5
HETATM    5  C   UNL     1     -43.715  57.536 -52.549  1.00  0.00     0.050 A 
HETATM    6  C   UNL     1     -43.737  57.765 -53.942  1.00  0.00     0.058 A 
HETATM    7  C   UNL     1     -44.540  58.776 -54.493  1.00  0.00     0.019 A 
HETATM    8  C   UNL     1     -45.304  59.594 -53.666  1.00  0.00     0.001 A 
HETATM    9  C   UNL     1     -45.273  59.396 -52.290  1.00  0.00     0.002 A 
HETATM   10  C   UNL     1     -44.490  58.374 -51.738  1.00  0.00     0.030 A 
BRANCH   6  11
HETATM   11  C   UNL     1     -42.928  56.975 -54.904  1.00  0.00     0.253 C 
HETATM   12  N   UNL     1     -43.649  56.284 -55.861  1.00  0.00    -0.357 N 
HETATM   13  H   UNL     1     -44.641  56.157 -55.683  1.00  0.00     0.162 HD
HETATM   14  O   UNL     1     -41.709  56.930 -54.802  1.00  0.00    -0.268 OA
BRANCH  12  15
HETATM   15  C   UNL     1     -42.998  55.313 -56.720  1.00  0.00     0.118 C 
HETATM   16  C   UNL     1     -43.071  55.700 -58.187  1.00  0.00     0.026 C 
ENDBRANCH  12  15
ENDBRANCH   6  11
ENDBRANCH   1   5
BRANCH   2  17
HETATM   17  C   UNL     1     -41.268  55.223 -50.760  1.00  0.00     0.037 A 
HETATM   18  C   UNL     1     -40.600  54.333 -51.604  1.00  0.00     0.075 A 
HETATM   19  C   UNL     1     -40.098  53.168 -51.060  1.00  0.00     0.165 A 
HETATM   20  N   UNL     1     -40.223  52.830 -49.760  1.00  0.00    -0.237 NA
HETATM   21  C   UNL     1     -40.862  53.712 -48.962  1.00  0.00     0.120 A 
HETATM   22  C   UNL     1     -41.393  54.912 -49.404  1.00  0.00     0.036 A 
BRANCH  19  23
HETATM   23  O   UNL     1     -39.419  52.328 -51.920  1.00  0.00    -0.329 OA
BRANCH  23  24
HETATM   24  C   UNL     1     -40.226  51.474 -52.756  1.00  0.00     0.130 C 
HETATM   25  C   UNL     1     -40.112  51.682 -54.289  1.00  0.00     0.032 C 
HETATM   26  C   UNL     1     -40.159  50.152 -54.441  1.00  0.00     0.005 C 
HETATM   27  C   UNL     1     -39.631  50.061 -52.998  1.00  0.00     0.032 C 
ENDBRANCH  23  24
ENDBRANCH  19  23
ENDBRANCH   2  17
TORSDOF 6
ENDMDL
MODEL 7
REMARK VINA RESULT:      -7.1      2.489      4.338
REMARK  6 active torsions:
REMARK  status: ('A' for Active; 'I' for Inactive)
REMARK    1  A    between atoms: C_2  and  N_3 
REMARK       I    between atoms: N_3  and  C_4 
REMARK    2  A    between atoms: C_4  and  C_5 
REMARK    3  A    between atoms: C_6  and  N_7 
REMARK       I    between atoms: N_7  and  C_8 
REMARK    4  A    between atoms: C_8  and  C_9 
REMARK    5  A    between atoms: C_11  and  O_12 
REMARK    6  A    between atoms: O_12  and  C_13 
ROOT
HETATM    1  N   UNL     1     -41.264  54.888 -55.372  1.00  0.00    -0.322 N 
HETATM    2  C   UNL     1     -42.508  54.866 -55.979  1.00  0.00     0.256 C 
HETATM    3  O   UNL     1     -43.370  54.009 -55.817  1.00  0.00    -0.267 OA
HETATM    4  H   UNL     1     -40.584  55.558 -55.715  1.00  0.00     0.169 HD
ENDROOT
BRANCH   1   5
HETATM    5  C   UNL     1     -40.801  54.043 -54.326  1.00  0.00     0.050 A 
HETATM    6  C   UNL     1     -41.013  54.412 -52.980  1.00  0.00     0.058 A 
HETATM    7  C   UNL     1     -40.651  53.552 -51.931  1.00  0.00     0.019 A 
HETATM    8  C   UNL     1     -40.042  52.331 -52.205  1.00  0.00     0.001 A 
HETATM    9  C   UNL     1     -39.805  51.964 -53.525  1.00  0.00     0.002 A 
HETATM   10  C   UNL     1     -40.185  52.810 -54.575  1.00  0.00     0.030 A 
BRANCH   6  11
HETATM   11  C   UNL     1     -41.618  55.709 -52.584  1.00  0.00     0.253 C 
HETATM   12  N   UNL     1     -42.920  55.642 -52.123  1.00  0.00    -0.357 N 
HETATM   13  H   UNL     1     -43.436  54.792 -52.330  1.00  0.00     0.162 HD
HETATM   14  O   UNL     1     -40.988  56.752 -52.708  1.00  0.00    -0.268 OA
BRANCH  12  15
HETATM   15  C   UNL     1     -43.691  56.852 -51.906  1.00  0.00     0.118 C 
HETATM   16  C   UNL     1     -44.377  57.333 -53.172  1.00  0.00     0.026 C 
ENDBRANCH  12  15
ENDBRANCH   6  11
ENDBRANCH   1   5
BRANCH   2  17
HETATM   17  C   UNL     1     -42.797  55.970 -56.941  1.00  0.00     0.037 A 
HETATM   18  C   UNL     1     -42.579  57.280 -56.512  1.00  0.00     0.075 A 
HETATM   19  C   UNL     1     -42.797  58.307 -57.408  1.00  0.00     0.165 A 
HETATM   20  N   UNL     1     -43.220  58.122 -58.675  1.00  0.00    -0.237 NA
HETATM   21  C   UNL     1     -43.412  56.846 -59.071  1.00  0.00     0.120 A 
HETATM   22  C   UNL     1     -43.212  55.744 -58.255  1.00  0.00     0.036 A 
BRANCH  19  23
HETATM   23  O   UNL     1     -42.541  59.587 -56.955  1.00  0.00    -0.329 OA
BRANCH  23  24
HETATM   24  C   UNL     1     -43.070  59.926 -55.656  1.00  0.00     0.130 C 
HETATM   25  C   UNL     1     -42.047  60.082 -54.500  1.00  0.00     0.032 C 
HETATM   26  C   UNL     1     -42.867  61.291 -54.017  1.00  0.00     0.005 C 
HETATM   27  C   UNL     1     -43.379  61.435 -55.461  1.00  0.00     0.032 C 
ENDBRANCH  23  24
ENDBRANCH  19  23
ENDBRANCH   2  17
TORSDOF 6
ENDMDL
MODEL 8
REMARK VINA RESULT:      -7.0      1.882      3.762
REMARK  6 active torsions:
REMARK  status: ('A' for Active; 'I' for Inactive)
REMARK    1  A    between atoms: C_2  and  N_3 
REMARK       I    between atoms: N_3  and  C_4 
REMARK    2  A    between atoms: C_4  and  C_5 
REMARK    3  A    between atoms: C_6  and  N_7 
REMARK       I    between atoms: N_7  and  C_8 
REMARK    4  A    between atoms: C_8  and  C_9 
REMARK    5  A    between atoms: C_11  and  O_12 
REMARK    6  A    between atoms: O_12  and  C_13 
ROOT
HETATM    1  N   UNL     1     -41.552  53.539 -54.011  1.00  0.00    -0.322 N 
HETATM    2  C   UNL     1     -41.136  54.635 -54.747  1.00  0.00     0.256 C 
HETATM    3  O   UNL     1     -39.974  54.915 -55.021  1.00  0.00    -0.267 OA
HETATM    4  H   UNL     1     -42.522  53.509 -53.715  1.00  0.00     0.169 HD
ENDROOT
BRANCH   1   5
HETATM    5  C   UNL     1     -40.758  52.440 -53.578  1.00  0.00     0.050 A 
HETATM    6  C   UNL     1     -40.385  52.336 -52.221  1.00  0.00     0.058 A 
HETATM    7  C   UNL     1     -39.683  51.215 -51.750  1.00  0.00     0.019 A 
HETATM    8  C   UNL     1     -39.314  50.200 -52.628  1.00  0.00     0.001 A 
HETATM    9  C   UNL     1     -39.653  50.301 -53.973  1.00  0.00     0.002 A 
HETATM   10  C   UNL     1     -40.373  51.408 -54.442  1.00  0.00     0.030 A 
BRANCH   6  11
HETATM   11  C   UNL     1     -40.697  53.383 -51.214  1.00  0.00     0.253 C 
HETATM   12  N   UNL     1     -39.665  53.706 -50.353  1.00  0.00    -0.357 N 
HETATM   13  H   UNL     1     -38.891  53.049 -50.297  1.00  0.00     0.162 HD
HETATM   14  O   UNL     1     -41.817  53.875 -51.156  1.00  0.00    -0.268 OA
BRANCH  12  15
HETATM   15  C   UNL     1     -39.902  54.551 -49.198  1.00  0.00     0.118 C 
HETATM   16  C   UNL     1     -40.386  53.762 -47.995  1.00  0.00     0.026 C 
ENDBRANCH  12  15
ENDBRANCH   6  11
ENDBRANCH   1   5
BRANCH   2  17
HETATM   17  C   UNL     1     -42.205  55.568 -55.210  1.00  0.00     0.037 A 
HETATM   18  C   UNL     1     -43.110  56.042 -54.258  1.00  0.00     0.075 A 
HETATM   19  C   UNL     1     -44.074  56.943 -54.664  1.00  0.00     0.165 A 
HETATM   20  N   UNL     1     -44.202  57.387 -55.931  1.00  0.00    -0.237 NA
HETATM   21  C   UNL     1     -43.308  56.925 -56.830  1.00  0.00     0.120 A 
HETATM   22  C   UNL     1     -42.297  56.028 -56.525  1.00  0.00     0.036 A 
BRANCH  19  23
HETATM   23  O   UNL     1     -44.932  57.410 -53.688  1.00  0.00    -0.329 OA
BRANCH  23  24
HETATM   24  C   UNL     1     -44.697  58.753 -53.215  1.00  0.00     0.130 C 
HETATM   25  C   UNL     1     -44.802  58.986 -51.685  1.00  0.00     0.032 C 
HETATM   26  C   UNL     1     -43.576  59.909 -51.801  1.00  0.00     0.005 C 
HETATM   27  C   UNL     1     -43.198  59.133 -53.076  1.00  0.00     0.032 C 
ENDBRANCH  23  24
ENDBRANCH  19  23
ENDBRANCH   2  17
TORSDOF 6
ENDMDL
MODEL 9
REMARK VINA RESULT:      -7.0      2.315      3.115
REMARK  6 active torsions:
REMARK  status: ('A' for Active; 'I' for Inactive)
REMARK    1  A    between atoms: C_2  and  N_3 
REMARK       I    between atoms: N_3  and  C_4 
REMARK    2  A    between atoms: C_4  and  C_5 
REMARK    3  A    between atoms: C_6  and  N_7 
REMARK       I    between atoms: N_7  and  C_8 
REMARK    4  A    between atoms: C_8  and  C_9 
REMARK    5  A    between atoms: C_11  and  O_12 
REMARK    6  A    between atoms: O_12  and  C_13 
ROOT
HETATM    1  N   UNL     1     -41.238  55.253 -53.243  1.00  0.00    -0.322 N 
HETATM    2  C   UNL     1     -42.460  55.311 -53.890  1.00  0.00     0.256 C 
HETATM    3  O   UNL     1     -43.483  54.731 -53.543  1.00  0.00    -0.267 OA
HETATM    4  H   UNL     1     -40.432  55.643 -53.721  1.00  0.00     0.169 HD
ENDROOT
BRANCH   1   5
HETATM    5  C   UNL     1     -40.961  54.670 -51.975  1.00  0.00     0.050 A 
HETATM    6  C   UNL     1     -41.101  55.443 -50.802  1.00  0.00     0.058 A 
HETATM    7  C   UNL     1     -40.926  54.867 -49.534  1.00  0.00     0.019 A 
HETATM    8  C   UNL     1     -40.576  53.524 -49.417  1.00  0.00     0.001 A 
HETATM    9  C   UNL     1     -40.411  52.757 -50.565  1.00  0.00     0.002 A 
HETATM   10  C   UNL     1     -40.607  53.323 -51.831  1.00  0.00     0.030 A 
BRANCH   6  11
HETATM   11  C   UNL     1     -41.432  56.891 -50.823  1.00  0.00     0.253 C 
HETATM   12  N   UNL     1     -40.355  57.749 -50.698  1.00  0.00    -0.357 N 
HETATM   13  H   UNL     1     -39.489  57.350 -50.349  1.00  0.00     0.162 HD
HETATM   14  O   UNL     1     -42.596  57.260 -50.906  1.00  0.00    -0.268 OA
BRANCH  12  15
HETATM   15  C   UNL     1     -40.562  59.170 -50.491  1.00  0.00     0.118 C 
HETATM   16  C   UNL     1     -39.265  59.907 -50.210  1.00  0.00     0.026 C 
ENDBRANCH  12  15
ENDBRANCH   6  11
ENDBRANCH   1   5
BRANCH   2  17
HETATM   17  C   UNL     1     -42.512  56.124 -55.140  1.00  0.00     0.037 A 
HETATM   18  C   UNL     1     -42.696  55.448 -56.348  1.00  0.00     0.075 A 
HETATM   19  C   UNL     1     -42.793  56.193 -57.506  1.00  0.00     0.165 A 
HETATM   20  N   UNL     1     -42.710  57.538 -57.544  1.00  0.00    -0.237 NA
HETATM   21  C   UNL     1     -42.545  58.170 -56.363  1.00  0.00     0.120 A 
HETATM   22  C   UNL     1     -42.446  57.519 -55.144  1.00  0.00     0.036 A 
BRANCH  19  23
HETATM   23  O   UNL     1     -43.005  55.490 -58.676  1.00  0.00    -0.329 OA
BRANCH  23  24
HETATM   24  C   UNL     1     -44.308  55.624 -59.280  1.00  0.00     0.130 C 
HETATM   25  C   UNL     1     -44.384  56.401 -60.621  1.00  0.00     0.032 C 
HETATM   26  C   UNL     1     -45.397  55.349 -61.104  1.00  0.00     0.005 C 
HETATM   27  C   UNL     1     -44.778  54.380 -60.081  1.00  0.00     0.032 C 
ENDBRANCH  23  24
ENDBRANCH  19  23
ENDBRANCH   2  17
TORSDOF 6
ENDMDL
MODEL 10
REMARK VINA RESULT:      -6.9      2.058      2.488
REMARK  6 active torsions:
REMARK  status: ('A' for Active; 'I' for Inactive)
REMARK    1  A    between atoms: C_2  and  N_3 
REMARK       I    between atoms: N_3  and  C_4 
REMARK    2  A    between atoms: C_4  and  C_5 
REMARK    3  A    between atoms: C_6  and  N_7 
REMARK       I    between atoms: N_7  and  C_8 
REMARK    4  A    between atoms: C_8  and  C_9 
REMARK    5  A    between atoms: C_11  and  O_12 
REMARK    6  A    between atoms: O_12  and  C_13 
ROOT
HETATM    1  N   UNL     1     -41.099  53.986 -53.455  1.00  0.00    -0.322 N 
HETATM    2  C   UNL     1     -42.264  54.481 -52.894  1.00  0.00     0.256 C 
HETATM    3  O   UNL     1     -43.091  53.829 -52.267  1.00  0.00    -0.267 OA
HETATM    4  H   UNL     1     -40.586  54.591 -54.088  1.00  0.00     0.169 HD
ENDROOT
BRANCH   1   5
HETATM    5  C   UNL     1     -40.540  52.690 -53.276  1.00  0.00     0.050 A 
HETATM    6  C   UNL     1     -40.025  52.317 -52.016  1.00  0.00     0.058 A 
HETATM    7  C   UNL     1     -39.555  51.015 -51.787  1.00  0.00     0.019 A 
HETATM    8  C   UNL     1     -39.558  50.077 -52.816  1.00  0.00     0.001 A 
HETATM    9  C   UNL     1     -40.040  50.438 -54.069  1.00  0.00     0.002 A 
HETATM   10  C   UNL     1     -40.531  51.730 -54.295  1.00  0.00     0.030 A 
BRANCH   6  11
HETATM   11  C   UNL     1     -39.941  53.254 -50.867  1.00  0.00     0.253 C 
HETATM   12  N   UNL     1     -40.988  53.186 -49.966  1.00  0.00    -0.357 N 
HETATM   13  H   UNL     1     -41.831  52.713 -50.278  1.00  0.00     0.162 HD
HETATM   14  O   UNL     1     -39.013  54.047 -50.778  1.00  0.00    -0.268 OA
BRANCH  12  15
HETATM   15  C   UNL     1     -41.134  54.184 -48.924  1.00  0.00     0.118 C 
HETATM   16  C   UNL     1     -40.289  53.871 -47.702  1.00  0.00     0.026 C 
ENDBRANCH  12  15
ENDBRANCH   6  11
ENDBRANCH   1   5
BRANCH   2  17
HETATM   17  C   UNL     1     -42.543  55.931 -53.114  1.00  0.00     0.037 A 
HETATM   18  C   UNL     1     -42.129  56.496 -54.322  1.00  0.00     0.075 A 
HETATM   19  C   UNL     1     -42.423  57.824 -54.557  1.00  0.00     0.165 A 
HETATM   20  N   UNL     1     -43.078  58.615 -53.684  1.00  0.00    -0.237 NA
HETATM   21  C   UNL     1     -43.479  58.044 -52.529  1.00  0.00     0.120 A 
HETATM   22  C   UNL     1     -43.245  56.718 -52.200  1.00  0.00     0.036 A 
BRANCH  19  23
HETATM   23  O   UNL     1     -42.023  58.339 -55.775  1.00  0.00    -0.329 OA
BRANCH  23  24
HETATM   24  C   UNL     1     -42.507  57.657 -56.951  1.00  0.00     0.130 C 
HETATM   25  C   UNL     1     -44.017  57.804 -57.274  1.00  0.00     0.032 C 
HETATM   26  C   UNL     1     -43.627  57.925 -58.758  1.00  0.00     0.005 C 
HETATM   27  C   UNL     1     -42.244  58.407 -58.284  1.00  0.00     0.032 C 
ENDBRANCH  23  24
ENDBRANCH  19  23
ENDBRANCH   2  17
TORSDOF 6
ENDMDL
