MODEL 1
REMARK VINA RESULT:      -8.3      0.000      0.000
REMARK  2 active torsions:
REMARK  status: ('A' for Active; 'I' for Inactive)
REMARK    1  A    between atoms: C_10  and  C_11 
REMARK    2  A    between atoms: C_12  and  O_13 
ROOT
HETATM    1  C   UNL     1     -46.599  57.490 -60.338  1.00  0.00     0.076 C 
HETATM    2  C   UNL     1     -45.484  57.995 -59.512  1.00  0.00     0.050 A 
HETATM    3  O   UNL     1     -45.179  57.278 -58.395  1.00  0.00    -0.312 OA
HETATM    4  C   UNL     1     -44.141  57.916 -57.760  1.00  0.00     0.121 A 
HETATM    5  C   UNL     1     -43.582  57.447 -56.534  1.00  0.00     0.163 A 
HETATM    6  N   UNL     1     -42.665  58.050 -55.815  1.00  0.00    -0.221 NA
HETATM    7  C   UNL     1     -42.465  57.257 -54.689  1.00  0.00     0.149 A 
HETATM    8  C   UNL     1     -43.273  56.129 -54.765  1.00  0.00     0.046 A 
HETATM    9  C   UNL     1     -43.505  54.923 -53.923  1.00  0.00     0.070 C 
HETATM   10  C   UNL     1     -42.920  54.913 -52.504  1.00  0.00     0.045 C 
HETATM   11  C   UNL     1     -42.683  56.294 -51.871  1.00  0.00     0.132 C 
HETATM   12  N   UNL     1     -41.595  57.077 -52.410  1.00  0.00    -0.355 N 
HETATM   13  C   UNL     1     -41.506  57.648 -53.653  1.00  0.00     0.272 C 
HETATM   14  O   UNL     1     -40.609  58.469 -53.844  1.00  0.00    -0.266 OA
HETATM   15  N   UNL     1     -43.967  56.279 -55.946  1.00  0.00    -0.340 N 
HETATM   16  H   UNL     1     -44.656  55.648 -56.331  1.00  0.00     0.167 HD
HETATM   17  C   UNL     1     -43.789  59.033 -58.497  1.00  0.00     0.043 A 
HETATM   18  C   UNL     1     -44.647  59.082 -59.621  1.00  0.00     0.035 A 
HETATM   19  H   UNL     1     -40.919  57.465 -51.765  1.00  0.00     0.162 HD
ENDROOT
BRANCH  10  20
HETATM   20  C   UNL     1     -41.771  53.908 -52.362  1.00  0.00    -0.019 A 
HETATM   21  C   UNL     1     -41.251  53.578 -51.088  1.00  0.00     0.074 A 
HETATM   22  C   UNL     1     -40.192  52.670 -50.975  1.00  0.00     0.037 A 
HETATM   23  C   UNL     1     -39.659  52.058 -52.109  1.00  0.00     0.003 A 
HETATM   24  C   UNL     1     -40.189  52.339 -53.360  1.00  0.00     0.001 A 
HETATM   25  C   UNL     1     -41.241  53.248 -53.485  1.00  0.00     0.010 A 
BRANCH  21  26
HETATM   26  O   UNL     1     -41.841  54.195 -50.012  1.00  0.00    -0.355 OA
HETATM   27  C   UNL     1     -40.986  54.657 -48.974  1.00  0.00     0.210 C 
ENDBRANCH  21  26
ENDBRANCH  10  20
TORSDOF 2
ENDMDL
MODEL 2
REMARK VINA RESULT:      -8.1      3.768      7.558
REMARK  2 active torsions:
REMARK  status: ('A' for Active; 'I' for Inactive)
REMARK    1  A    between atoms: C_10  and  C_11 
REMARK    2  A    between atoms: C_12  and  O_13 
ROOT
HETATM    1  C   UNL     1     -39.542  49.667 -54.838  1.00  0.00     0.076 C 
HETATM    2  C   UNL     1     -39.715  50.322 -53.526  1.00  0.00     0.050 A 
HETATM    3  O   UNL     1     -40.124  51.621 -53.540  1.00  0.00    -0.312 OA
HETATM    4  C   UNL     1     -40.204  52.049 -52.237  1.00  0.00     0.121 A 
HETATM    5  C   UNL     1     -40.581  53.378 -51.884  1.00  0.00     0.163 A 
HETATM    6  N   UNL     1     -40.582  53.894 -50.677  1.00  0.00    -0.221 NA
HETATM    7  C   UNL     1     -40.972  55.222 -50.817  1.00  0.00     0.149 A 
HETATM    8  C   UNL     1     -41.241  55.489 -52.154  1.00  0.00     0.046 A 
HETATM    9  C   UNL     1     -41.706  56.669 -52.934  1.00  0.00     0.070 C 
HETATM   10  C   UNL     1     -41.730  58.033 -52.231  1.00  0.00     0.045 C 
HETATM   11  C   UNL     1     -40.757  58.191 -51.051  1.00  0.00     0.132 C 
HETATM   12  N   UNL     1     -41.077  57.464 -49.845  1.00  0.00    -0.355 N 
HETATM   13  C   UNL     1     -41.066  56.106 -49.653  1.00  0.00     0.272 C 
HETATM   14  O   UNL     1     -41.140  55.689 -48.498  1.00  0.00    -0.266 OA
HETATM   15  N   UNL     1     -40.985  54.300 -52.803  1.00  0.00    -0.340 N 
HETATM   16  H   UNL     1     -41.067  54.119 -53.793  1.00  0.00     0.167 HD
HETATM   17  C   UNL     1     -39.853  51.001 -51.404  1.00  0.00     0.043 A 
HETATM   18  C   UNL     1     -39.542  49.894 -52.229  1.00  0.00     0.035 A 
HETATM   19  H   UNL     1     -41.087  57.969 -48.969  1.00  0.00     0.162 HD
ENDROOT
BRANCH  10  20
HETATM   20  C   UNL     1     -43.159  58.531 -51.990  1.00  0.00    -0.019 A 
HETATM   21  C   UNL     1     -43.543  59.839 -52.370  1.00  0.00     0.074 A 
HETATM   22  C   UNL     1     -44.848  60.286 -52.130  1.00  0.00     0.037 A 
HETATM   23  C   UNL     1     -45.790  59.441 -51.544  1.00  0.00     0.003 A 
HETATM   24  C   UNL     1     -45.439  58.141 -51.208  1.00  0.00     0.001 A 
HETATM   25  C   UNL     1     -44.138  57.688 -51.437  1.00  0.00     0.010 A 
BRANCH  21  26
HETATM   26  O   UNL     1     -42.575  60.608 -52.968  1.00  0.00    -0.355 OA
HETATM   27  C   UNL     1     -42.744  60.919 -54.346  1.00  0.00     0.210 C 
ENDBRANCH  21  26
ENDBRANCH  10  20
TORSDOF 2
ENDMDL
MODEL 3
REMARK VINA RESULT:      -7.9      2.048      7.885
REMARK  2 active torsions:
REMARK  status: ('A' for Active; 'I' for Inactive)
REMARK    1  A    between atoms: C_10  and  C_11 
REMARK    2  A    between atoms: C_12  and  O_13 
ROOT
HETATM    1  C   UNL     1     -39.524  49.892 -53.908  1.00  0.00     0.076 C 
HETATM    2  C   UNL     1     -39.872  51.244 -53.428  1.00  0.00     0.050 A 
HETATM    3  O   UNL     1     -40.452  52.084 -54.330  1.00  0.00    -0.312 OA
HETATM    4  C   UNL     1     -40.675  53.284 -53.701  1.00  0.00     0.121 A 
HETATM    5  C   UNL     1     -41.251  54.407 -54.366  1.00  0.00     0.163 A 
HETATM    6  N   UNL     1     -41.404  55.613 -53.870  1.00  0.00    -0.221 NA
HETATM    7  C   UNL     1     -41.960  56.387 -54.884  1.00  0.00     0.149 A 
HETATM    8  C   UNL     1     -42.171  55.599 -56.008  1.00  0.00     0.046 A 
HETATM    9  C   UNL     1     -42.739  55.810 -57.368  1.00  0.00     0.070 C 
HETATM   10  C   UNL     1     -42.994  57.253 -57.826  1.00  0.00     0.045 C 
HETATM   11  C   UNL     1     -42.133  58.330 -57.145  1.00  0.00     0.132 C 
HETATM   12  N   UNL     1     -42.432  58.621 -55.762  1.00  0.00    -0.355 N 
HETATM   13  C   UNL     1     -42.249  57.807 -54.672  1.00  0.00     0.272 C 
HETATM   14  O   UNL     1     -42.344  58.314 -53.555  1.00  0.00    -0.266 OA
HETATM   15  N   UNL     1     -41.714  54.350 -55.646  1.00  0.00    -0.340 N 
HETATM   16  H   UNL     1     -41.704  53.517 -56.219  1.00  0.00     0.167 HD
HETATM   17  C   UNL     1     -40.242  53.186 -52.390  1.00  0.00     0.043 A 
HETATM   18  C   UNL     1     -39.730  51.879 -52.214  1.00  0.00     0.035 A 
HETATM   19  H   UNL     1     -42.569  59.586 -55.494  1.00  0.00     0.162 HD
ENDROOT
BRANCH  10  20
HETATM   20  C   UNL     1     -44.490  57.566 -57.936  1.00  0.00    -0.019 A 
HETATM   21  C   UNL     1     -45.193  57.324 -59.140  1.00  0.00     0.074 A 
HETATM   22  C   UNL     1     -46.557  57.629 -59.230  1.00  0.00     0.037 A 
HETATM   23  C   UNL     1     -47.243  58.143 -58.131  1.00  0.00     0.003 A 
HETATM   24  C   UNL     1     -46.575  58.343 -56.930  1.00  0.00     0.001 A 
HETATM   25  C   UNL     1     -45.214  58.048 -56.831  1.00  0.00     0.010 A 
BRANCH  21  26
HETATM   26  O   UNL     1     -44.464  56.791 -60.173  1.00  0.00    -0.355 OA
HETATM   27  C   UNL     1     -44.836  55.498 -60.638  1.00  0.00     0.210 C 
ENDBRANCH  21  26
ENDBRANCH  10  20
TORSDOF 2
ENDMDL
MODEL 4
REMARK VINA RESULT:      -7.9      3.158      7.320
REMARK  2 active torsions:
REMARK  status: ('A' for Active; 'I' for Inactive)
REMARK    1  A    between atoms: C_10  and  C_11 
REMARK    2  A    between atoms: C_12  and  O_13 
ROOT
HETATM    1  C   UNL     1     -39.478  49.803 -51.101  1.00  0.00     0.076 C 
HETATM    2  C   UNL     1     -39.656  50.831 -52.145  1.00  0.00     0.050 A 
HETATM    3  O   UNL     1     -40.401  51.921 -51.810  1.00  0.00    -0.312 OA
HETATM    4  C   UNL     1     -40.464  52.739 -52.912  1.00  0.00     0.121 A 
HETATM    5  C   UNL     1     -41.191  53.965 -52.920  1.00  0.00     0.163 A 
HETATM    6  N   UNL     1     -41.386  54.750 -53.954  1.00  0.00    -0.221 NA
HETATM    7  C   UNL     1     -42.186  55.797 -53.509  1.00  0.00     0.149 A 
HETATM    8  C   UNL     1     -42.446  55.639 -52.153  1.00  0.00     0.046 A 
HETATM    9  C   UNL     1     -43.191  56.401 -51.113  1.00  0.00     0.070 C 
HETATM   10  C   UNL     1     -44.106  57.543 -51.575  1.00  0.00     0.045 C 
HETATM   11  C   UNL     1     -44.635  57.432 -53.015  1.00  0.00     0.132 C 
HETATM   12  N   UNL     1     -43.679  57.650 -54.076  1.00  0.00    -0.355 N 
HETATM   13  C   UNL     1     -42.613  56.859 -54.422  1.00  0.00     0.272 C 
HETATM   14  O   UNL     1     -42.056  57.086 -55.495  1.00  0.00    -0.266 OA
HETATM   15  N   UNL     1     -41.800  54.471 -51.810  1.00  0.00    -0.340 N 
HETATM   16  H   UNL     1     -41.774  54.036 -50.899  1.00  0.00     0.167 HD
HETATM   17  C   UNL     1     -39.740  52.158 -53.938  1.00  0.00     0.043 A 
HETATM   18  C   UNL     1     -39.220  50.937 -53.447  1.00  0.00     0.035 A 
HETATM   19  H   UNL     1     -43.916  58.307 -54.807  1.00  0.00     0.162 HD
ENDROOT
BRANCH  10  20
HETATM   20  C   UNL     1     -43.563  58.917 -51.168  1.00  0.00    -0.019 A 
HETATM   21  C   UNL     1     -44.443  59.970 -50.821  1.00  0.00     0.074 A 
HETATM   22  C   UNL     1     -43.932  61.224 -50.466  1.00  0.00     0.037 A 
HETATM   23  C   UNL     1     -42.556  61.442 -50.419  1.00  0.00     0.003 A 
HETATM   24  C   UNL     1     -41.681  60.405 -50.714  1.00  0.00     0.001 A 
HETATM   25  C   UNL     1     -42.180  59.153 -51.076  1.00  0.00     0.010 A 
BRANCH  21  26
HETATM   26  O   UNL     1     -45.784  59.679 -50.859  1.00  0.00    -0.355 OA
HETATM   27  C   UNL     1     -46.581  60.392 -51.797  1.00  0.00     0.210 C 
ENDBRANCH  21  26
ENDBRANCH  10  20
TORSDOF 2
ENDMDL
MODEL 5
REMARK VINA RESULT:      -7.8      3.009      7.319
REMARK  2 active torsions:
REMARK  status: ('A' for Active; 'I' for Inactive)
REMARK    1  A    between atoms: C_10  and  C_11 
REMARK    2  A    between atoms: C_12  and  O_13 
ROOT
HETATM    1  C   UNL     1     -39.404  49.922 -51.065  1.00  0.00     0.076 C 
HETATM    2  C   UNL     1     -39.723  50.609 -52.333  1.00  0.00     0.050 A 
HETATM    3  O   UNL     1     -40.454  51.754 -52.240  1.00  0.00    -0.312 OA
HETATM    4  C   UNL     1     -40.661  52.222 -53.515  1.00  0.00     0.121 A 
HETATM    5  C   UNL     1     -41.416  53.401 -53.790  1.00  0.00     0.163 A 
HETATM    6  N   UNL     1     -41.745  53.857 -54.976  1.00  0.00    -0.221 NA
HETATM    7  C   UNL     1     -42.516  54.994 -54.759  1.00  0.00     0.149 A 
HETATM    8  C   UNL     1     -42.619  55.234 -53.395  1.00  0.00     0.046 A 
HETATM    9  C   UNL     1     -43.263  56.267 -52.538  1.00  0.00     0.070 C 
HETATM   10  C   UNL     1     -44.253  57.236 -53.199  1.00  0.00     0.045 C 
HETATM   11  C   UNL     1     -44.936  56.721 -54.477  1.00  0.00     0.132 C 
HETATM   12  N   UNL     1     -44.111  56.617 -55.657  1.00  0.00    -0.355 N 
HETATM   13  C   UNL     1     -43.070  55.753 -55.883  1.00  0.00     0.272 C 
HETATM   14  O   UNL     1     -42.642  55.658 -57.033  1.00  0.00    -0.266 OA
HETATM   15  N   UNL     1     -41.910  54.208 -52.809  1.00  0.00    -0.340 N 
HETATM   16  H   UNL     1     -41.770  54.052 -51.820  1.00  0.00     0.167 HD
HETATM   17  C   UNL     1     -40.041  51.366 -54.408  1.00  0.00     0.043 A 
HETATM   18  C   UNL     1     -39.439  50.334 -53.651  1.00  0.00     0.035 A 
HETATM   19  H   UNL     1     -44.444  57.040 -56.514  1.00  0.00     0.162 HD
ENDROOT
BRANCH  10  20
HETATM   20  C   UNL     1     -43.702  58.665 -53.267  1.00  0.00    -0.019 A 
HETATM   21  C   UNL     1     -44.496  59.765 -52.865  1.00  0.00     0.074 A 
HETATM   22  C   UNL     1     -43.986  61.066 -52.946  1.00  0.00     0.037 A 
HETATM   23  C   UNL     1     -42.683  61.291 -53.392  1.00  0.00     0.003 A 
HETATM   24  C   UNL     1     -41.879  60.216 -53.746  1.00  0.00     0.001 A 
HETATM   25  C   UNL     1     -42.381  58.915 -53.675  1.00  0.00     0.010 A 
BRANCH  21  26
HETATM   26  O   UNL     1     -45.757  59.472 -52.409  1.00  0.00    -0.355 OA
HETATM   27  C   UNL     1     -46.219  60.174 -51.261  1.00  0.00     0.210 C 
ENDBRANCH  21  26
ENDBRANCH  10  20
TORSDOF 2
ENDMDL
MODEL 6
REMARK VINA RESULT:      -7.7      2.151      8.098
REMARK  2 active torsions:
REMARK  status: ('A' for Active; 'I' for Inactive)
REMARK    1  A    between atoms: C_10  and  C_11 
REMARK    2  A    between atoms: C_12  and  O_13 
ROOT
HETATM    1  C   UNL     1     -39.907  50.469 -54.332  1.00  0.00     0.076 C 
HETATM    2  C   UNL     1     -40.244  51.825 -53.855  1.00  0.00     0.050 A 
HETATM    3  O   UNL     1     -40.770  52.683 -54.772  1.00  0.00    -0.312 OA
HETATM    4  C   UNL     1     -40.992  53.884 -54.143  1.00  0.00     0.121 A 
HETATM    5  C   UNL     1     -41.518  55.023 -54.820  1.00  0.00     0.163 A 
HETATM    6  N   UNL     1     -41.663  56.228 -54.322  1.00  0.00    -0.221 NA
HETATM    7  C   UNL     1     -42.164  57.022 -55.350  1.00  0.00     0.149 A 
HETATM    8  C   UNL     1     -42.349  56.245 -56.487  1.00  0.00     0.046 A 
HETATM    9  C   UNL     1     -42.860  56.478 -57.867  1.00  0.00     0.070 C 
HETATM   10  C   UNL     1     -43.067  57.929 -58.322  1.00  0.00     0.045 C 
HETATM   11  C   UNL     1     -42.210  58.982 -57.602  1.00  0.00     0.132 C 
HETATM   12  N   UNL     1     -42.554  59.271 -56.229  1.00  0.00    -0.355 N 
HETATM   13  C   UNL     1     -42.431  58.446 -55.139  1.00  0.00     0.272 C 
HETATM   14  O   UNL     1     -42.557  58.947 -54.023  1.00  0.00    -0.266 OA
HETATM   15  N   UNL     1     -41.933  54.985 -56.118  1.00  0.00    -0.340 N 
HETATM   16  H   UNL     1     -41.919  54.156 -56.696  1.00  0.00     0.167 HD
HETATM   17  C   UNL     1     -40.611  53.767 -52.817  1.00  0.00     0.043 A 
HETATM   18  C   UNL     1     -40.134  52.448 -52.632  1.00  0.00     0.035 A 
HETATM   19  H   UNL     1     -42.681  60.237 -55.959  1.00  0.00     0.162 HD
ENDROOT
BRANCH  10  20
HETATM   20  C   UNL     1     -44.551  58.275 -58.487  1.00  0.00    -0.019 A 
HETATM   21  C   UNL     1     -45.040  58.800 -59.706  1.00  0.00     0.074 A 
HETATM   22  C   UNL     1     -46.396  59.126 -59.837  1.00  0.00     0.037 A 
HETATM   23  C   UNL     1     -47.282  58.908 -58.782  1.00  0.00     0.003 A 
HETATM   24  C   UNL     1     -46.823  58.352 -57.596  1.00  0.00     0.001 A 
HETATM   25  C   UNL     1     -45.472  58.030 -57.453  1.00  0.00     0.010 A 
BRANCH  21  26
HETATM   26  O   UNL     1     -44.121  58.962 -60.712  1.00  0.00    -0.355 OA
HETATM   27  C   UNL     1     -43.929  60.278 -61.219  1.00  0.00     0.210 C 
ENDBRANCH  21  26
ENDBRANCH  10  20
TORSDOF 2
ENDMDL
MODEL 7
REMARK VINA RESULT:      -7.6      4.010      4.585
REMARK  2 active torsions:
REMARK  status: ('A' for Active; 'I' for Inactive)
REMARK    1  A    between atoms: C_10  and  C_11 
REMARK    2  A    between atoms: C_12  and  O_13 
ROOT
HETATM    1  C   UNL     1     -48.546  62.152 -52.821  1.00  0.00     0.076 C 
HETATM    2  C   UNL     1     -47.082  62.168 -52.627  1.00  0.00     0.050 A 
HETATM    3  O   UNL     1     -46.467  60.958 -52.515  1.00  0.00    -0.312 OA
HETATM    4  C   UNL     1     -45.126  61.188 -52.321  1.00  0.00     0.121 A 
HETATM    5  C   UNL     1     -44.183  60.134 -52.137  1.00  0.00     0.163 A 
HETATM    6  N   UNL     1     -42.911  60.268 -51.846  1.00  0.00    -0.221 NA
HETATM    7  C   UNL     1     -42.399  58.981 -51.716  1.00  0.00     0.149 A 
HETATM    8  C   UNL     1     -43.402  58.054 -51.970  1.00  0.00     0.046 A 
HETATM    9  C   UNL     1     -43.496  56.569 -52.017  1.00  0.00     0.070 C 
HETATM   10  C   UNL     1     -42.316  55.755 -51.466  1.00  0.00     0.045 C 
HETATM   11  C   UNL     1     -41.450  56.466 -50.414  1.00  0.00     0.132 C 
HETATM   12  N   UNL     1     -40.605  57.539 -50.886  1.00  0.00    -0.355 N 
HETATM   13  C   UNL     1     -40.992  58.762 -51.373  1.00  0.00     0.272 C 
HETATM   14  O   UNL     1     -40.126  59.626 -51.506  1.00  0.00    -0.266 OA
HETATM   15  N   UNL     1     -44.519  58.816 -52.236  1.00  0.00    -0.340 N 
HETATM   16  H   UNL     1     -45.445  58.480 -52.461  1.00  0.00     0.167 HD
HETATM   17  C   UNL     1     -44.904  62.554 -52.326  1.00  0.00     0.043 A 
HETATM   18  C   UNL     1     -46.157  63.182 -52.524  1.00  0.00     0.035 A 
HETATM   19  H   UNL     1     -39.626  57.525 -50.634  1.00  0.00     0.162 HD
ENDROOT
BRANCH  10  20
HETATM   20  C   UNL     1     -41.553  55.025 -52.576  1.00  0.00    -0.019 A 
HETATM   21  C   UNL     1     -41.116  53.691 -52.397  1.00  0.00     0.074 A 
HETATM   22  C   UNL     1     -40.406  53.041 -53.414  1.00  0.00     0.037 A 
HETATM   23  C   UNL     1     -40.149  53.687 -54.624  1.00  0.00     0.003 A 
HETATM   24  C   UNL     1     -40.611  54.980 -54.829  1.00  0.00     0.001 A 
HETATM   25  C   UNL     1     -41.314  55.639 -53.819  1.00  0.00     0.010 A 
BRANCH  21  26
HETATM   26  O   UNL     1     -41.427  53.105 -51.195  1.00  0.00    -0.355 OA
HETATM   27  C   UNL     1     -40.352  52.584 -50.423  1.00  0.00     0.210 C 
ENDBRANCH  21  26
ENDBRANCH  10  20
TORSDOF 2
ENDMDL
MODEL 8
REMARK VINA RESULT:      -7.6      1.816      2.137
REMARK  2 active torsions:
REMARK  status: ('A' for Active; 'I' for Inactive)
REMARK    1  A    between atoms: C_10  and  C_11 
REMARK    2  A    between atoms: C_12  and  O_13 
ROOT
HETATM    1  C   UNL     1     -45.315  60.936 -59.137  1.00  0.00     0.076 C 
HETATM    2  C   UNL     1     -44.102  60.977 -58.297  1.00  0.00     0.050 A 
HETATM    3  O   UNL     1     -44.001  60.031 -57.322  1.00  0.00    -0.312 OA
HETATM    4  C   UNL     1     -42.826  60.251 -56.646  1.00  0.00     0.121 A 
HETATM    5  C   UNL     1     -42.413  59.454 -55.537  1.00  0.00     0.163 A 
HETATM    6  N   UNL     1     -41.363  59.658 -54.777  1.00  0.00    -0.221 NA
HETATM    7  C   UNL     1     -41.385  58.667 -53.801  1.00  0.00     0.149 A 
HETATM    8  C   UNL     1     -42.472  57.829 -54.015  1.00  0.00     0.046 A 
HETATM    9  C   UNL     1     -43.023  56.609 -53.362  1.00  0.00     0.070 C 
HETATM   10  C   UNL     1     -42.459  56.207 -51.993  1.00  0.00     0.045 C 
HETATM   11  C   UNL     1     -41.850  57.349 -51.162  1.00  0.00     0.132 C 
HETATM   12  N   UNL     1     -40.591  57.887 -51.623  1.00  0.00    -0.355 N 
HETATM   13  C   UNL     1     -40.352  58.609 -52.764  1.00  0.00     0.272 C 
HETATM   14  O   UNL     1     -39.266  59.177 -52.867  1.00  0.00    -0.266 OA
HETATM   15  N   UNL     1     -43.102  58.353 -55.122  1.00  0.00    -0.340 N 
HETATM   16  H   UNL     1     -43.939  58.004 -55.568  1.00  0.00     0.167 HD
HETATM   17  C   UNL     1     -42.183  61.337 -57.214  1.00  0.00     0.043 A 
HETATM   18  C   UNL     1     -42.999  61.800 -58.273  1.00  0.00     0.035 A 
HETATM   19  H   UNL     1     -39.832  57.966 -50.959  1.00  0.00     0.162 HD
ENDROOT
BRANCH  10  20
HETATM   20  C   UNL     1     -41.630  54.920 -52.066  1.00  0.00    -0.019 A 
HETATM   21  C   UNL     1     -41.289  54.211 -50.890  1.00  0.00     0.074 A 
HETATM   22  C   UNL     1     -40.518  53.045 -50.971  1.00  0.00     0.037 A 
HETATM   23  C   UNL     1     -40.106  52.552 -52.209  1.00  0.00     0.003 A 
HETATM   24  C   UNL     1     -40.471  53.214 -53.373  1.00  0.00     0.001 A 
HETATM   25  C   UNL     1     -41.234  54.382 -53.303  1.00  0.00     0.010 A 
BRANCH  21  26
HETATM   26  O   UNL     1     -41.751  54.734 -49.708  1.00  0.00    -0.355 OA
HETATM   27  C   UNL     1     -40.925  54.589 -48.560  1.00  0.00     0.210 C 
ENDBRANCH  21  26
ENDBRANCH  10  20
TORSDOF 2
ENDMDL
MODEL 9
REMARK VINA RESULT:      -7.4      1.783      7.934
REMARK  2 active torsions:
REMARK  status: ('A' for Active; 'I' for Inactive)
REMARK    1  A    between atoms: C_10  and  C_11 
REMARK    2  A    between atoms: C_12  and  O_13 
ROOT
HETATM    1  C   UNL     1     -40.533  52.478 -50.359  1.00  0.00     0.076 C 
HETATM    2  C   UNL     1     -40.712  53.906 -50.686  1.00  0.00     0.050 A 
HETATM    3  O   UNL     1     -41.174  54.195 -51.934  1.00  0.00    -0.312 OA
HETATM    4  C   UNL     1     -41.251  55.562 -52.047  1.00  0.00     0.121 A 
HETATM    5  C   UNL     1     -41.676  56.214 -53.242  1.00  0.00     0.163 A 
HETATM    6  N   UNL     1     -41.680  57.507 -53.465  1.00  0.00    -0.221 NA
HETATM    7  C   UNL     1     -42.127  57.679 -54.771  1.00  0.00     0.149 A 
HETATM    8  C   UNL     1     -42.426  56.442 -55.327  1.00  0.00     0.046 A 
HETATM    9  C   UNL     1     -42.952  55.958 -56.633  1.00  0.00     0.070 C 
HETATM   10  C   UNL     1     -43.021  56.956 -57.797  1.00  0.00     0.045 C 
HETATM   11  C   UNL     1     -42.037  58.136 -57.721  1.00  0.00     0.132 C 
HETATM   12  N   UNL     1     -42.308  59.144 -56.722  1.00  0.00    -0.355 N 
HETATM   13  C   UNL     1     -42.238  59.017 -55.358  1.00  0.00     0.272 C 
HETATM   14  O   UNL     1     -42.277  60.045 -54.684  1.00  0.00    -0.266 OA
HETATM   15  N   UNL     1     -42.132  55.535 -54.332  1.00  0.00    -0.340 N 
HETATM   16  H   UNL     1     -42.222  54.530 -54.380  1.00  0.00     0.167 HD
HETATM   17  C   UNL     1     -40.844  56.129 -50.852  1.00  0.00     0.043 A 
HETATM   18  C   UNL     1     -40.502  55.069 -49.979  1.00  0.00     0.035 A 
HETATM   19  H   UNL     1     -42.325  60.112 -57.012  1.00  0.00     0.162 HD
ENDROOT
BRANCH  10  20
HETATM   20  C   UNL     1     -44.465  57.314 -58.163  1.00  0.00    -0.019 A 
HETATM   21  C   UNL     1     -45.028  56.884 -59.389  1.00  0.00     0.074 A 
HETATM   22  C   UNL     1     -46.344  57.232 -59.717  1.00  0.00     0.037 A 
HETATM   23  C   UNL     1     -47.123  57.976 -58.832  1.00  0.00     0.003 A 
HETATM   24  C   UNL     1     -46.598  58.365 -57.607  1.00  0.00     0.001 A 
HETATM   25  C   UNL     1     -45.284  58.030 -57.273  1.00  0.00     0.010 A 
BRANCH  21  26
HETATM   26  O   UNL     1     -44.216  56.132 -60.200  1.00  0.00    -0.355 OA
HETATM   27  C   UNL     1     -44.794  54.994 -60.830  1.00  0.00     0.210 C 
ENDBRANCH  21  26
ENDBRANCH  10  20
TORSDOF 2
ENDMDL
MODEL 10
REMARK VINA RESULT:      -7.3      3.081      7.770
REMARK  2 active torsions:
REMARK  status: ('A' for Active; 'I' for Inactive)
REMARK    1  A    between atoms: C_10  and  C_11 
REMARK    2  A    between atoms: C_12  and  O_13 
ROOT
HETATM    1  C   UNL     1     -39.387  49.430 -53.399  1.00  0.00     0.076 C 
HETATM    2  C   UNL     1     -39.711  50.497 -52.431  1.00  0.00     0.050 A 
HETATM    3  O   UNL     1     -40.006  51.723 -52.948  1.00  0.00    -0.312 OA
HETATM    4  C   UNL     1     -40.254  52.571 -51.896  1.00  0.00     0.121 A 
HETATM    5  C   UNL     1     -40.572  53.950 -52.077  1.00  0.00     0.163 A 
HETATM    6  N   UNL     1     -40.722  54.846 -51.130  1.00  0.00    -0.221 NA
HETATM    7  C   UNL     1     -40.975  56.056 -51.770  1.00  0.00     0.149 A 
HETATM    8  C   UNL     1     -41.006  55.856 -53.145  1.00  0.00     0.046 A 
HETATM    9  C   UNL     1     -41.244  56.710 -54.341  1.00  0.00     0.070 C 
HETATM   10  C   UNL     1     -41.266  58.232 -54.147  1.00  0.00     0.045 C 
HETATM   11  C   UNL     1     -40.483  58.761 -52.934  1.00  0.00     0.132 C 
HETATM   12  N   UNL     1     -41.048  58.496 -51.632  1.00  0.00    -0.355 N 
HETATM   13  C   UNL     1     -41.178  57.285 -51.001  1.00  0.00     0.272 C 
HETATM   14  O   UNL     1     -41.468  57.289 -49.805  1.00  0.00    -0.266 OA
HETATM   15  N   UNL     1     -40.749  54.512 -53.306  1.00  0.00    -0.340 N 
HETATM   16  H   UNL     1     -40.688  54.005 -54.178  1.00  0.00     0.167 HD
HETATM   17  C   UNL     1     -40.127  51.863 -50.714  1.00  0.00     0.043 A 
HETATM   18  C   UNL     1     -39.781  50.534 -51.057  1.00  0.00     0.035 A 
HETATM   19  H   UNL     1     -41.155  59.270 -50.989  1.00  0.00     0.162 HD
ENDROOT
BRANCH  10  20
HETATM   20  C   UNL     1     -42.670  58.817 -54.341  1.00  0.00    -0.019 A 
HETATM   21  C   UNL     1     -42.891  59.883 -55.245  1.00  0.00     0.074 A 
HETATM   22  C   UNL     1     -44.176  60.417 -55.401  1.00  0.00     0.037 A 
HETATM   23  C   UNL     1     -45.255  59.886 -54.694  1.00  0.00     0.003 A 
HETATM   24  C   UNL     1     -45.059  58.811 -53.838  1.00  0.00     0.001 A 
HETATM   25  C   UNL     1     -43.781  58.275 -53.670  1.00  0.00     0.010 A 
BRANCH  21  26
HETATM   26  O   UNL     1     -41.792  60.338 -55.930  1.00  0.00    -0.355 OA
HETATM   27  C   UNL     1     -41.981  60.734 -57.283  1.00  0.00     0.210 C 
ENDBRANCH  21  26
ENDBRANCH  10  20
TORSDOF 2
ENDMDL
