MODEL 1
REMARK VINA RESULT:      -8.8      0.000      0.000
REMARK  2 active torsions:
REMARK  status: ('A' for Active; 'I' for Inactive)
REMARK    1  A    between atoms: C_9  and  C_11 
REMARK    2  A    between atoms: C_9  and  O_10 
ROOT
HETATM    1  C   UNL     1     -39.118  59.416 -50.624  1.00  0.00     0.048 C 
HETATM    2  C   UNL     1     -40.052  58.665 -51.529  1.00  0.00    -0.061 A 
HETATM    3  C   UNL     1     -40.701  57.506 -51.078  1.00  0.00     0.020 A 
HETATM    4  C   UNL     1     -41.532  56.823 -51.955  1.00  0.00     0.018 A 
HETATM    5  C   UNL     1     -41.724  57.297 -53.253  1.00  0.00     0.045 A 
HETATM    6  N   UNL     1     -42.606  56.479 -53.943  1.00  0.00    -0.323 N 
HETATM    7  C   UNL     1     -43.041  55.413 -53.152  1.00  0.00     0.266 A 
HETATM    8  O   UNL     1     -43.838  54.565 -53.527  1.00  0.00    -0.269 OA
HETATM    9  C   UNL     1     -42.367  55.576 -51.740  1.00  0.00     0.199 A 
HETATM   10  C   UNL     1     -41.100  58.430 -53.729  1.00  0.00     0.031 A 
HETATM   11  C   UNL     1     -40.251  59.113 -52.853  1.00  0.00     0.009 A 
HETATM   12  H   UNL     1     -42.908  56.605 -54.897  1.00  0.00     0.169 HD
ENDROOT
BRANCH   9  13
HETATM   13  C   UNL     1     -41.396  54.469 -51.384  1.00  0.00     0.025 A 
HETATM   14  C   UNL     1     -40.834  53.509 -52.310  1.00  0.00     0.003 A 
HETATM   15  C   UNL     1     -40.024  52.637 -51.586  1.00  0.00     0.043 A 
HETATM   16  C   UNL     1     -40.951  53.289 -53.701  1.00  0.00     0.014 A 
HETATM   17  C   UNL     1     -39.335  51.566 -52.170  1.00  0.00     0.030 A 
HETATM   18  N   UNL     1     -40.061  53.046 -50.279  1.00  0.00    -0.359 N 
HETATM   19  C   UNL     1     -39.475  51.374 -53.545  1.00  0.00     0.002 A 
HETATM   20  C   UNL     1     -40.271  52.225 -54.305  1.00  0.00     0.001 A 
HETATM   21  H   UNL     1     -39.554  52.595 -49.531  1.00  0.00     0.166 HD
HETATM   22  C   UNL     1     -40.890  54.130 -50.127  1.00  0.00     0.016 A 
HETATM   23  C   UNL     1     -41.103  54.716 -48.775  1.00  0.00     0.069 C 
ENDBRANCH   9  13
BRANCH   9  24
HETATM   24  O   UNL     1     -43.354  55.831 -50.746  1.00  0.00    -0.371 OA
HETATM   25  H   UNL     1     -42.939  56.414 -50.089  1.00  0.00     0.212 HD
ENDBRANCH   9  24
TORSDOF 2
ENDMDL
MODEL 2
REMARK VINA RESULT:      -8.6      1.854      2.443
REMARK  2 active torsions:
REMARK  status: ('A' for Active; 'I' for Inactive)
REMARK    1  A    between atoms: C_9  and  C_11 
REMARK    2  A    between atoms: C_9  and  O_10 
ROOT
HETATM    1  C   UNL     1     -39.798  59.171 -50.858  1.00  0.00     0.048 C 
HETATM    2  C   UNL     1     -41.026  58.308 -50.900  1.00  0.00    -0.061 A 
HETATM    3  C   UNL     1     -40.941  56.936 -50.619  1.00  0.00     0.020 A 
HETATM    4  C   UNL     1     -42.094  56.166 -50.699  1.00  0.00     0.018 A 
HETATM    5  C   UNL     1     -43.311  56.758 -51.038  1.00  0.00     0.045 A 
HETATM    6  N   UNL     1     -44.326  55.814 -51.035  1.00  0.00    -0.323 N 
HETATM    7  C   UNL     1     -43.845  54.544 -50.706  1.00  0.00     0.266 A 
HETATM    8  O   UNL     1     -44.549  53.549 -50.617  1.00  0.00    -0.269 OA
HETATM    9  C   UNL     1     -42.303  54.689 -50.431  1.00  0.00     0.199 A 
HETATM   10  C   UNL     1     -43.429  58.101 -51.323  1.00  0.00     0.031 A 
HETATM   11  C   UNL     1     -42.269  58.878 -51.257  1.00  0.00     0.009 A 
HETATM   12  H   UNL     1     -45.297  55.987 -51.246  1.00  0.00     0.169 HD
ENDROOT
BRANCH   9  13
HETATM   13  C   UNL     1     -41.424  53.948 -51.418  1.00  0.00     0.025 A 
HETATM   14  C   UNL     1     -41.288  54.260 -52.825  1.00  0.00     0.003 A 
HETATM   15  C   UNL     1     -40.423  53.324 -53.390  1.00  0.00     0.043 A 
HETATM   16  C   UNL     1     -41.833  55.244 -53.679  1.00  0.00     0.014 A 
HETATM   17  C   UNL     1     -40.080  53.317 -54.749  1.00  0.00     0.030 A 
HETATM   18  N   UNL     1     -40.023  52.487 -52.382  1.00  0.00    -0.359 N 
HETATM   19  C   UNL     1     -40.639  54.301 -55.565  1.00  0.00     0.002 A 
HETATM   20  C   UNL     1     -41.503  55.256 -55.040  1.00  0.00     0.001 A 
HETATM   21  H   UNL     1     -39.384  51.715 -52.509  1.00  0.00     0.166 HD
HETATM   22  C   UNL     1     -40.622  52.826 -51.194  1.00  0.00     0.016 A 
HETATM   23  C   UNL     1     -40.353  52.021 -49.971  1.00  0.00     0.069 C 
ENDBRANCH   9  13
BRANCH   9  24
HETATM   24  O   UNL     1     -42.014  54.408 -49.065  1.00  0.00    -0.371 OA
HETATM   25  H   UNL     1     -41.478  53.599 -49.058  1.00  0.00     0.212 HD
ENDBRANCH   9  24
TORSDOF 2
ENDMDL
MODEL 3
REMARK VINA RESULT:      -8.5      1.854      2.737
REMARK  2 active torsions:
REMARK  status: ('A' for Active; 'I' for Inactive)
REMARK    1  A    between atoms: C_9  and  C_11 
REMARK    2  A    between atoms: C_9  and  O_10 
ROOT
HETATM    1  C   UNL     1     -39.800  59.151 -52.411  1.00  0.00     0.048 C 
HETATM    2  C   UNL     1     -41.034  58.417 -51.968  1.00  0.00    -0.061 A 
HETATM    3  C   UNL     1     -41.002  57.029 -51.767  1.00  0.00     0.020 A 
HETATM    4  C   UNL     1     -42.172  56.384 -51.389  1.00  0.00     0.018 A 
HETATM    5  C   UNL     1     -43.346  57.113 -51.199  1.00  0.00     0.045 A 
HETATM    6  N   UNL     1     -44.377  56.275 -50.803  1.00  0.00    -0.323 N 
HETATM    7  C   UNL     1     -43.955  54.947 -50.715  1.00  0.00     0.266 A 
HETATM    8  O   UNL     1     -44.675  54.022 -50.366  1.00  0.00    -0.269 OA
HETATM    9  C   UNL     1     -42.425  54.921 -51.082  1.00  0.00     0.199 A 
HETATM   10  C   UNL     1     -43.412  58.476 -51.392  1.00  0.00     0.031 A 
HETATM   11  C   UNL     1     -42.241  59.128 -51.786  1.00  0.00     0.009 A 
HETATM   12  H   UNL     1     -45.325  56.557 -50.603  1.00  0.00     0.169 HD
ENDROOT
BRANCH   9  13
HETATM   13  C   UNL     1     -42.103  54.158 -52.351  1.00  0.00     0.025 A 
HETATM   14  C   UNL     1     -41.089  53.135 -52.486  1.00  0.00     0.003 A 
HETATM   15  C   UNL     1     -41.079  52.713 -53.814  1.00  0.00     0.043 A 
HETATM   16  C   UNL     1     -40.163  52.535 -51.603  1.00  0.00     0.014 A 
HETATM   17  C   UNL     1     -40.200  51.736 -54.302  1.00  0.00     0.030 A 
HETATM   18  N   UNL     1     -42.052  53.420 -54.468  1.00  0.00    -0.359 N 
HETATM   19  C   UNL     1     -39.296  51.166 -53.405  1.00  0.00     0.002 A 
HETATM   20  C   UNL     1     -39.277  51.557 -52.070  1.00  0.00     0.001 A 
HETATM   21  H   UNL     1     -42.270  53.309 -55.448  1.00  0.00     0.166 HD
HETATM   22  C   UNL     1     -42.669  54.307 -53.620  1.00  0.00     0.016 A 
HETATM   23  C   UNL     1     -43.738  55.205 -54.136  1.00  0.00     0.069 C 
ENDBRANCH   9  13
BRANCH   9  24
HETATM   24  O   UNL     1     -41.651  54.531 -49.952  1.00  0.00    -0.371 OA
HETATM   25  H   UNL     1     -42.180  53.875 -49.469  1.00  0.00     0.212 HD
ENDBRANCH   9  24
TORSDOF 2
ENDMDL
MODEL 4
REMARK VINA RESULT:      -8.2      1.223      5.556
REMARK  2 active torsions:
REMARK  status: ('A' for Active; 'I' for Inactive)
REMARK    1  A    between atoms: C_9  and  C_11 
REMARK    2  A    between atoms: C_9  and  O_10 
ROOT
HETATM    1  C   UNL     1     -39.191  51.594 -53.644  1.00  0.00     0.048 C 
HETATM    2  C   UNL     1     -40.095  52.283 -52.662  1.00  0.00    -0.061 A 
HETATM    3  C   UNL     1     -41.060  53.200 -53.105  1.00  0.00     0.020 A 
HETATM    4  C   UNL     1     -41.854  53.839 -52.163  1.00  0.00     0.018 A 
HETATM    5  C   UNL     1     -41.700  53.555 -50.806  1.00  0.00     0.045 A 
HETATM    6  N   UNL     1     -42.608  54.284 -50.052  1.00  0.00    -0.323 N 
HETATM    7  C   UNL     1     -43.407  55.098 -50.858  1.00  0.00     0.266 A 
HETATM    8  O   UNL     1     -44.296  55.820 -50.431  1.00  0.00    -0.269 OA
HETATM    9  C   UNL     1     -42.975  54.842 -52.349  1.00  0.00     0.199 A 
HETATM   10  C   UNL     1     -40.761  52.663 -50.337  1.00  0.00     0.031 A 
HETATM   11  C   UNL     1     -39.949  52.027 -51.280  1.00  0.00     0.009 A 
HETATM   12  H   UNL     1     -42.699  54.259 -49.048  1.00  0.00     0.169 HD
ENDROOT
BRANCH   9  13
HETATM   13  C   UNL     1     -42.359  56.047 -53.032  1.00  0.00     0.025 A 
HETATM   14  C   UNL     1     -41.547  57.058 -52.389  1.00  0.00     0.003 A 
HETATM   15  C   UNL     1     -41.213  58.013 -53.347  1.00  0.00     0.043 A 
HETATM   16  C   UNL     1     -41.076  57.260 -51.072  1.00  0.00     0.014 A 
HETATM   17  C   UNL     1     -40.443  59.149 -53.063  1.00  0.00     0.030 A 
HETATM   18  N   UNL     1     -41.768  57.606 -54.531  1.00  0.00    -0.359 N 
HETATM   19  C   UNL     1     -39.996  59.320 -51.752  1.00  0.00     0.002 A 
HETATM   20  C   UNL     1     -40.305  58.388 -50.767  1.00  0.00     0.001 A 
HETATM   21  H   UNL     1     -41.676  58.110 -55.402  1.00  0.00     0.166 HD
HETATM   22  C   UNL     1     -42.476  56.441 -54.367  1.00  0.00     0.016 A 
HETATM   23  C   UNL     1     -43.193  55.839 -55.525  1.00  0.00     0.069 C 
ENDBRANCH   9  13
BRANCH   9  24
HETATM   24  O   UNL     1     -44.039  54.237 -53.076  1.00  0.00    -0.371 OA
HETATM   25  H   UNL     1     -44.732  54.029 -52.428  1.00  0.00     0.212 HD
ENDBRANCH   9  24
TORSDOF 2
ENDMDL
MODEL 5
REMARK VINA RESULT:      -7.9      1.929      5.206
REMARK  2 active torsions:
REMARK  status: ('A' for Active; 'I' for Inactive)
REMARK    1  A    between atoms: C_9  and  C_11 
REMARK    2  A    between atoms: C_9  and  O_10 
ROOT
HETATM    1  C   UNL     1     -39.343  51.549 -53.949  1.00  0.00     0.048 C 
HETATM    2  C   UNL     1     -40.108  52.344 -52.931  1.00  0.00    -0.061 A 
HETATM    3  C   UNL     1     -41.162  53.182 -53.328  1.00  0.00     0.020 A 
HETATM    4  C   UNL     1     -41.823  53.925 -52.359  1.00  0.00     0.018 A 
HETATM    5  C   UNL     1     -41.452  53.821 -51.019  1.00  0.00     0.045 A 
HETATM    6  N   UNL     1     -42.257  54.627 -50.229  1.00  0.00    -0.323 N 
HETATM    7  C   UNL     1     -43.200  55.318 -50.994  1.00  0.00     0.266 A 
HETATM    8  O   UNL     1     -44.037  56.075 -50.526  1.00  0.00    -0.269 OA
HETATM    9  C   UNL     1     -42.995  54.878 -52.490  1.00  0.00     0.199 A 
HETATM   10  C   UNL     1     -40.420  53.012 -50.596  1.00  0.00     0.031 A 
HETATM   11  C   UNL     1     -39.742  52.272 -51.569  1.00  0.00     0.009 A 
HETATM   12  H   UNL     1     -42.191  54.730 -49.228  1.00  0.00     0.169 HD
ENDROOT
BRANCH   9  13
HETATM   13  C   UNL     1     -42.535  55.993 -53.408  1.00  0.00     0.025 A 
HETATM   14  C   UNL     1     -42.704  56.027 -54.845  1.00  0.00     0.003 A 
HETATM   15  C   UNL     1     -42.110  57.195 -55.320  1.00  0.00     0.043 A 
HETATM   16  C   UNL     1     -43.295  55.162 -55.794  1.00  0.00     0.014 A 
HETATM   17  C   UNL     1     -42.073  57.540 -56.678  1.00  0.00     0.030 A 
HETATM   18  N   UNL     1     -41.617  57.865 -54.232  1.00  0.00    -0.359 N 
HETATM   19  C   UNL     1     -42.663  56.663 -57.589  1.00  0.00     0.002 A 
HETATM   20  C   UNL     1     -43.270  55.489 -57.155  1.00  0.00     0.001 A 
HETATM   21  H   UNL     1     -41.139  58.754 -54.285  1.00  0.00     0.166 HD
HETATM   22  C   UNL     1     -41.841  57.159 -53.076  1.00  0.00     0.016 A 
HETATM   23  C   UNL     1     -41.352  57.692 -51.775  1.00  0.00     0.069 C 
ENDBRANCH   9  13
BRANCH   9  24
HETATM   24  O   UNL     1     -44.136  54.168 -52.959  1.00  0.00    -0.371 OA
HETATM   25  H   UNL     1     -43.839  53.262 -53.147  1.00  0.00     0.212 HD
ENDBRANCH   9  24
TORSDOF 2
ENDMDL
MODEL 6
REMARK VINA RESULT:      -7.9      2.880      5.727
REMARK  2 active torsions:
REMARK  status: ('A' for Active; 'I' for Inactive)
REMARK    1  A    between atoms: C_9  and  C_11 
REMARK    2  A    between atoms: C_9  and  O_10 
ROOT
HETATM    1  C   UNL     1     -40.019  52.163 -54.422  1.00  0.00     0.048 C 
HETATM    2  C   UNL     1     -40.835  53.181 -53.678  1.00  0.00    -0.061 A 
HETATM    3  C   UNL     1     -41.802  53.945 -54.347  1.00  0.00     0.020 A 
HETATM    4  C   UNL     1     -42.513  54.897 -53.630  1.00  0.00     0.018 A 
HETATM    5  C   UNL     1     -42.275  55.071 -52.266  1.00  0.00     0.045 A 
HETATM    6  N   UNL     1     -43.109  56.051 -51.750  1.00  0.00    -0.323 N 
HETATM    7  C   UNL     1     -43.939  56.590 -52.736  1.00  0.00     0.266 A 
HETATM    8  O   UNL     1     -44.777  57.455 -52.525  1.00  0.00    -0.269 OA
HETATM    9  C   UNL     1     -43.617  55.835 -54.077  1.00  0.00     0.199 A 
HETATM   10  C   UNL     1     -41.331  54.340 -51.579  1.00  0.00     0.031 A 
HETATM   11  C   UNL     1     -40.602  53.390 -52.300  1.00  0.00     0.009 A 
HETATM   12  H   UNL     1     -43.133  56.364 -50.791  1.00  0.00     0.169 HD
ENDROOT
BRANCH   9  13
HETATM   13  C   UNL     1     -43.016  56.714 -55.156  1.00  0.00     0.025 A 
HETATM   14  C   UNL     1     -43.051  56.447 -56.578  1.00  0.00     0.003 A 
HETATM   15  C   UNL     1     -42.354  57.467 -57.223  1.00  0.00     0.043 A 
HETATM   16  C   UNL     1     -43.597  55.420 -57.380  1.00  0.00     0.014 A 
HETATM   17  C   UNL     1     -42.175  57.514 -58.613  1.00  0.00     0.030 A 
HETATM   18  N   UNL     1     -41.928  58.338 -56.255  1.00  0.00    -0.359 N 
HETATM   19  C   UNL     1     -42.724  56.483 -59.375  1.00  0.00     0.002 A 
HETATM   20  C   UNL     1     -43.429  55.448 -58.770  1.00  0.00     0.001 A 
HETATM   21  H   UNL     1     -41.402  59.179 -56.444  1.00  0.00     0.166 HD
HETATM   22  C   UNL     1     -42.295  57.901 -55.006  1.00  0.00     0.016 A 
HETATM   23  C   UNL     1     -41.900  58.683 -53.802  1.00  0.00     0.069 C 
ENDBRANCH   9  13
BRANCH   9  24
HETATM   24  O   UNL     1     -44.744  55.076 -54.502  1.00  0.00    -0.371 OA
HETATM   25  H   UNL     1     -45.518  55.461 -54.059  1.00  0.00     0.212 HD
ENDBRANCH   9  24
TORSDOF 2
ENDMDL
MODEL 7
REMARK VINA RESULT:      -7.9     14.950     16.697
REMARK  2 active torsions:
REMARK  status: ('A' for Active; 'I' for Inactive)
REMARK    1  A    between atoms: C_9  and  C_11 
REMARK    2  A    between atoms: C_9  and  O_10 
ROOT
HETATM    1  C   UNL     1     -39.259  41.130 -52.723  1.00  0.00     0.048 C 
HETATM    2  C   UNL     1     -37.778  40.899 -52.817  1.00  0.00    -0.061 A 
HETATM    3  C   UNL     1     -37.085  41.203 -53.998  1.00  0.00     0.020 A 
HETATM    4  C   UNL     1     -35.722  40.946 -54.056  1.00  0.00     0.018 A 
HETATM    5  C   UNL     1     -35.061  40.412 -52.950  1.00  0.00     0.045 A 
HETATM    6  N   UNL     1     -33.709  40.260 -53.220  1.00  0.00    -0.323 N 
HETATM    7  C   UNL     1     -33.396  40.673 -54.518  1.00  0.00     0.266 A 
HETATM    8  O   UNL     1     -32.267  40.657 -54.986  1.00  0.00    -0.269 OA
HETATM    9  C   UNL     1     -34.728  41.190 -55.174  1.00  0.00     0.199 A 
HETATM   10  C   UNL     1     -35.712  40.099 -51.777  1.00  0.00     0.031 A 
HETATM   11  C   UNL     1     -37.086  40.344 -51.718  1.00  0.00     0.009 A 
HETATM   12  H   UNL     1     -33.016  39.894 -52.586  1.00  0.00     0.169 HD
ENDROOT
BRANCH   9  13
HETATM   13  C   UNL     1     -35.202  40.363 -56.353  1.00  0.00     0.025 A 
HETATM   14  C   UNL     1     -35.933  40.865 -57.497  1.00  0.00     0.003 A 
HETATM   15  C   UNL     1     -36.216  39.786 -58.332  1.00  0.00     0.043 A 
HETATM   16  C   UNL     1     -36.396  42.140 -57.895  1.00  0.00     0.014 A 
HETATM   17  C   UNL     1     -36.933  39.911 -59.530  1.00  0.00     0.030 A 
HETATM   18  N   UNL     1     -35.670  38.673 -57.751  1.00  0.00    -0.359 N 
HETATM   19  C   UNL     1     -37.379  41.183 -59.892  1.00  0.00     0.002 A 
HETATM   20  C   UNL     1     -37.114  42.286 -59.088  1.00  0.00     0.001 A 
HETATM   21  H   UNL     1     -35.718  37.746 -58.149  1.00  0.00     0.166 HD
HETATM   22  C   UNL     1     -35.073  38.987 -56.555  1.00  0.00     0.016 A 
HETATM   23  C   UNL     1     -34.445  37.914 -55.736  1.00  0.00     0.069 C 
ENDBRANCH   9  13
BRANCH   9  24
HETATM   24  O   UNL     1     -34.642  42.587 -55.437  1.00  0.00    -0.371 OA
HETATM   25  H   UNL     1     -34.102  42.683 -56.239  1.00  0.00     0.212 HD
ENDBRANCH   9  24
TORSDOF 2
ENDMDL
MODEL 8
REMARK VINA RESULT:      -7.7      1.971      3.161
REMARK  2 active torsions:
REMARK  status: ('A' for Active; 'I' for Inactive)
REMARK    1  A    between atoms: C_9  and  C_11 
REMARK    2  A    between atoms: C_9  and  O_10 
ROOT
HETATM    1  C   UNL     1     -38.334  59.483 -50.586  1.00  0.00     0.048 C 
HETATM    2  C   UNL     1     -39.825  59.313 -50.635  1.00  0.00    -0.061 A 
HETATM    3  C   UNL     1     -40.389  58.051 -50.877  1.00  0.00     0.020 A 
HETATM    4  C   UNL     1     -41.771  57.941 -50.946  1.00  0.00     0.018 A 
HETATM    5  C   UNL     1     -42.575  59.066 -50.759  1.00  0.00     0.045 A 
HETATM    6  N   UNL     1     -43.916  58.723 -50.846  1.00  0.00    -0.323 N 
HETATM    7  C   UNL     1     -44.081  57.359 -51.103  1.00  0.00     0.266 A 
HETATM    8  O   UNL     1     -45.169  56.810 -51.202  1.00  0.00    -0.269 OA
HETATM    9  C   UNL     1     -42.645  56.722 -51.167  1.00  0.00     0.199 A 
HETATM   10  C   UNL     1     -42.054  60.319 -50.523  1.00  0.00     0.031 A 
HETATM   11  C   UNL     1     -40.662  60.438 -50.467  1.00  0.00     0.009 A 
HETATM   12  H   UNL     1     -44.696  59.354 -50.748  1.00  0.00     0.169 HD
ENDROOT
BRANCH   9  13
HETATM   13  C   UNL     1     -42.270  56.171 -52.528  1.00  0.00     0.025 A 
HETATM   14  C   UNL     1     -41.578  54.923 -52.771  1.00  0.00     0.003 A 
HETATM   15  C   UNL     1     -41.385  54.801 -54.146  1.00  0.00     0.043 A 
HETATM   16  C   UNL     1     -41.081  53.888 -51.947  1.00  0.00     0.014 A 
HETATM   17  C   UNL     1     -40.728  53.712 -54.735  1.00  0.00     0.030 A 
HETATM   18  N   UNL     1     -41.948  55.904 -54.731  1.00  0.00    -0.359 N 
HETATM   19  C   UNL     1     -40.246  52.709 -53.893  1.00  0.00     0.002 A 
HETATM   20  C   UNL     1     -40.421  52.792 -52.516  1.00  0.00     0.001 A 
HETATM   21  H   UNL     1     -41.961  56.071 -55.727  1.00  0.00     0.166 HD
HETATM   22  C   UNL     1     -42.469  56.751 -53.783  1.00  0.00     0.016 A 
HETATM   23  C   UNL     1     -43.099  58.033 -54.201  1.00  0.00     0.069 C 
ENDBRANCH   9  13
BRANCH   9  24
HETATM   24  O   UNL     1     -42.461  55.804 -50.093  1.00  0.00    -0.371 OA
HETATM   25  H   UNL     1     -43.239  55.223 -50.092  1.00  0.00     0.212 HD
ENDBRANCH   9  24
TORSDOF 2
ENDMDL
MODEL 9
REMARK VINA RESULT:      -7.5      2.312      3.600
REMARK  2 active torsions:
REMARK  status: ('A' for Active; 'I' for Inactive)
REMARK    1  A    between atoms: C_9  and  C_11 
REMARK    2  A    between atoms: C_9  and  O_10 
ROOT
HETATM    1  C   UNL     1     -40.217  59.239 -50.392  1.00  0.00     0.048 C 
HETATM    2  C   UNL     1     -41.407  59.234 -51.308  1.00  0.00    -0.061 A 
HETATM    3  C   UNL     1     -41.892  58.029 -51.837  1.00  0.00     0.020 A 
HETATM    4  C   UNL     1     -42.976  58.071 -52.705  1.00  0.00     0.018 A 
HETATM    5  C   UNL     1     -43.573  59.290 -53.024  1.00  0.00     0.045 A 
HETATM    6  N   UNL     1     -44.645  59.095 -53.881  1.00  0.00    -0.323 N 
HETATM    7  C   UNL     1     -44.816  57.743 -54.189  1.00  0.00     0.266 A 
HETATM    8  O   UNL     1     -45.706  57.314 -54.909  1.00  0.00    -0.269 OA
HETATM    9  C   UNL     1     -43.716  56.945 -53.399  1.00  0.00     0.199 A 
HETATM   10  C   UNL     1     -43.120  60.492 -52.524  1.00  0.00     0.031 A 
HETATM   11  C   UNL     1     -42.021  60.457 -51.661  1.00  0.00     0.009 A 
HETATM   12  H   UNL     1     -45.240  59.816 -54.259  1.00  0.00     0.169 HD
ENDROOT
BRANCH   9  13
HETATM   13  C   UNL     1     -42.699  56.249 -54.282  1.00  0.00     0.025 A 
HETATM   14  C   UNL     1     -41.957  55.056 -53.934  1.00  0.00     0.003 A 
HETATM   15  C   UNL     1     -41.099  54.761 -54.992  1.00  0.00     0.043 A 
HETATM   16  C   UNL     1     -41.921  54.203 -52.808  1.00  0.00     0.014 A 
HETATM   17  C   UNL     1     -40.215  53.673 -54.983  1.00  0.00     0.030 A 
HETATM   18  N   UNL     1     -41.312  55.708 -55.959  1.00  0.00    -0.359 N 
HETATM   19  C   UNL     1     -40.203  52.853 -53.854  1.00  0.00     0.002 A 
HETATM   20  C   UNL     1     -41.046  53.111 -52.779  1.00  0.00     0.001 A 
HETATM   21  H   UNL     1     -40.827  55.731 -56.844  1.00  0.00     0.166 HD
HETATM   22  C   UNL     1     -42.252  56.622 -55.552  1.00  0.00     0.016 A 
HETATM   23  C   UNL     1     -42.611  57.762 -56.439  1.00  0.00     0.069 C 
ENDBRANCH   9  13
BRANCH   9  24
HETATM   24  O   UNL     1     -44.320  56.100 -52.424  1.00  0.00    -0.371 OA
HETATM   25  H   UNL     1     -44.741  56.687 -51.775  1.00  0.00     0.212 HD
ENDBRANCH   9  24
TORSDOF 2
ENDMDL
MODEL 10
REMARK VINA RESULT:      -7.5     14.513     16.977
REMARK  2 active torsions:
REMARK  status: ('A' for Active; 'I' for Inactive)
REMARK    1  A    between atoms: C_9  and  C_11 
REMARK    2  A    between atoms: C_9  and  O_10 
ROOT
HETATM    1  C   UNL     1     -36.468  39.279 -59.477  1.00  0.00     0.048 C 
HETATM    2  C   UNL     1     -36.792  39.966 -58.181  1.00  0.00    -0.061 A 
HETATM    3  C   UNL     1     -35.770  40.313 -57.285  1.00  0.00     0.020 A 
HETATM    4  C   UNL     1     -36.114  40.919 -56.084  1.00  0.00     0.018 A 
HETATM    5  C   UNL     1     -37.451  41.189 -55.791  1.00  0.00     0.045 A 
HETATM    6  N   UNL     1     -37.561  41.815 -54.559  1.00  0.00    -0.323 N 
HETATM    7  C   UNL     1     -36.311  41.988 -53.959  1.00  0.00     0.266 A 
HETATM    8  O   UNL     1     -36.142  42.534 -52.878  1.00  0.00    -0.269 OA
HETATM    9  C   UNL     1     -35.235  41.417 -54.954  1.00  0.00     0.199 A 
HETATM   10  C   UNL     1     -38.479  40.858 -56.647  1.00  0.00     0.031 A 
HETATM   11  C   UNL     1     -38.139  40.236 -57.852  1.00  0.00     0.009 A 
HETATM   12  H   UNL     1     -38.418  42.112 -54.120  1.00  0.00     0.169 HD
ENDROOT
BRANCH   9  13
HETATM   13  C   UNL     1     -34.486  40.208 -54.433  1.00  0.00     0.025 A 
HETATM   14  C   UNL     1     -33.172  39.779 -54.863  1.00  0.00     0.003 A 
HETATM   15  C   UNL     1     -32.858  38.607 -54.178  1.00  0.00     0.043 A 
HETATM   16  C   UNL     1     -32.222  40.271 -55.786  1.00  0.00     0.014 A 
HETATM   17  C   UNL     1     -31.659  37.906 -54.366  1.00  0.00     0.030 A 
HETATM   18  N   UNL     1     -33.911  38.332 -53.347  1.00  0.00    -0.359 N 
HETATM   19  C   UNL     1     -30.744  38.417 -55.288  1.00  0.00     0.002 A 
HETATM   20  C   UNL     1     -31.019  39.586 -55.989  1.00  0.00     0.001 A 
HETATM   21  H   UNL     1     -33.947  37.538 -52.723  1.00  0.00     0.166 HD
HETATM   22  C   UNL     1     -34.909  39.264 -53.493  1.00  0.00     0.016 A 
HETATM   23  C   UNL     1     -36.166  39.135 -52.706  1.00  0.00     0.069 C 
ENDBRANCH   9  13
BRANCH   9  24
HETATM   24  O   UNL     1     -34.396  42.464 -55.431  1.00  0.00    -0.371 OA
HETATM   25  H   UNL     1     -33.854  42.082 -56.140  1.00  0.00     0.212 HD
ENDBRANCH   9  24
TORSDOF 2
ENDMDL
