MODEL 1
REMARK VINA RESULT:      -7.8      0.000      0.000
REMARK  8 active torsions:
REMARK  status: ('A' for Active; 'I' for Inactive)
REMARK    1  A    between atoms: C_2  and  C_3 
REMARK    2  A    between atoms: C_7  and  C_8 
REMARK       I    between atoms: C_8  and  N_9 
REMARK    3  A    between atoms: N_9  and  C_10 
REMARK    4  A    between atoms: C_10  and  C_11 
REMARK    5  A    between atoms: C_11  and  O_12 
REMARK    6  A    between atoms: C_11  and  C_13 
REMARK    7  A    between atoms: C_13  and  O_14 
REMARK    8  A    between atoms: O_14  and  C_15 
ROOT
HETATM    1  C   UNL     1     -43.068  56.186 -55.502  1.00  0.00     0.269 C 
HETATM    2  N   UNL     1     -44.225  56.203 -54.769  1.00  0.00    -0.353 N 
HETATM    3  O   UNL     1     -42.804  57.045 -56.338  1.00  0.00    -0.266 OA
HETATM    4  H   UNL     1     -44.492  55.395 -54.225  1.00  0.00     0.162 HD
ENDROOT
BRANCH   1   5
HETATM    5  C   UNL     1     -42.166  55.110 -55.187  1.00  0.00     0.120 A 
HETATM    6  N   UNL     1     -40.967  54.961 -55.826  1.00  0.00    -0.272 N 
HETATM    7  N   UNL     1     -40.196  53.980 -55.330  1.00  0.00    -0.174 NA
HETATM    8  H   UNL     1     -40.607  55.531 -56.584  1.00  0.00     0.189 HD
HETATM    9  C   UNL     1     -40.924  53.446 -54.337  1.00  0.00     0.089 A 
HETATM   10  C   UNL     1     -42.180  54.107 -54.237  1.00  0.00     0.071 A 
BRANCH   9  11
HETATM   11  C   UNL     1     -40.402  52.374 -53.484  1.00  0.00    -0.005 A 
HETATM   12  C   UNL     1     -40.195  52.598 -52.112  1.00  0.00     0.017 A 
HETATM   13  C   UNL     1     -39.743  51.569 -51.281  1.00  0.00     0.043 A 
HETATM   14  C   UNL     1     -39.489  50.315 -51.822  1.00  0.00     0.116 A 
HETATM   15  C   UNL     1     -39.675  50.071 -53.177  1.00  0.00     0.043 A 
HETATM   16  F   UNL     1     -39.062  49.326 -51.027  1.00  0.00    -0.206 F 
HETATM   17  C   UNL     1     -40.132  51.098 -54.009  1.00  0.00     0.017 A 
ENDBRANCH   9  11
ENDBRANCH   1   5
BRANCH   2  18
HETATM   18  C   UNL     1     -45.134  57.333 -54.736  1.00  0.00     0.156 C 
BRANCH  18  19
HETATM   19  C   UNL     1     -44.781  58.385 -53.684  1.00  0.00     0.159 C 
BRANCH  19  20
HETATM   20  O   UNL     1     -43.679  59.187 -54.137  1.00  0.00    -0.392 OA
HETATM   21  H   UNL     1     -44.093  59.894 -54.672  1.00  0.00     0.210 HD
ENDBRANCH  19  20
BRANCH  19  22
HETATM   22  C   UNL     1     -44.474  57.798 -52.303  1.00  0.00     0.201 C 
BRANCH  22  23
HETATM   23  O   UNL     1     -43.049  57.900 -52.134  1.00  0.00    -0.383 OA
BRANCH  23  24
HETATM   24  C   UNL     1     -42.423  56.680 -51.726  1.00  0.00     0.121 C 
HETATM   25  C   UNL     1     -43.522  55.788 -51.139  1.00  0.00     0.032 C 
HETATM   26  C   UNL     1     -42.961  54.479 -50.596  1.00  0.00     0.002 C 
HETATM   27  C   UNL     1     -41.856  54.728 -49.576  1.00  0.00     0.000 C 
HETATM   28  C   UNL     1     -40.759  55.626 -50.140  1.00  0.00     0.002 C 
HETATM   29  C   UNL     1     -41.322  56.934 -50.694  1.00  0.00     0.032 C 
ENDBRANCH  23  24
ENDBRANCH  22  23
ENDBRANCH  19  22
ENDBRANCH  18  19
ENDBRANCH   2  18
TORSDOF 8
ENDMDL
MODEL 2
REMARK VINA RESULT:      -7.3      2.166      2.916
REMARK  8 active torsions:
REMARK  status: ('A' for Active; 'I' for Inactive)
REMARK    1  A    between atoms: C_2  and  C_3 
REMARK    2  A    between atoms: C_7  and  C_8 
REMARK       I    between atoms: C_8  and  N_9 
REMARK    3  A    between atoms: N_9  and  C_10 
REMARK    4  A    between atoms: C_10  and  C_11 
REMARK    5  A    between atoms: C_11  and  O_12 
REMARK    6  A    between atoms: C_11  and  C_13 
REMARK    7  A    between atoms: C_13  and  O_14 
REMARK    8  A    between atoms: O_14  and  C_15 
ROOT
HETATM    1  C   UNL     1     -42.698  56.601 -56.926  1.00  0.00     0.269 C 
HETATM    2  N   UNL     1     -42.631  57.926 -56.584  1.00  0.00    -0.353 N 
HETATM    3  O   UNL     1     -42.887  56.225 -58.079  1.00  0.00    -0.266 OA
HETATM    4  H   UNL     1     -42.653  58.199 -55.612  1.00  0.00     0.162 HD
ENDROOT
BRANCH   1   5
HETATM    5  C   UNL     1     -42.484  55.682 -55.838  1.00  0.00     0.120 A 
HETATM    6  N   UNL     1     -43.522  55.150 -55.126  1.00  0.00    -0.272 N 
HETATM    7  N   UNL     1     -43.157  54.223 -54.227  1.00  0.00    -0.174 NA
HETATM    8  H   UNL     1     -44.509  55.358 -55.243  1.00  0.00     0.189 HD
HETATM    9  C   UNL     1     -41.821  54.154 -54.336  1.00  0.00     0.089 A 
HETATM   10  C   UNL     1     -41.357  55.078 -55.313  1.00  0.00     0.071 A 
BRANCH   9  11
HETATM   11  C   UNL     1     -41.029  53.194 -53.560  1.00  0.00    -0.005 A 
HETATM   12  C   UNL     1     -40.847  53.379 -52.179  1.00  0.00     0.017 A 
HETATM   13  C   UNL     1     -40.135  52.445 -51.421  1.00  0.00     0.043 A 
HETATM   14  C   UNL     1     -39.596  51.328 -52.045  1.00  0.00     0.116 A 
HETATM   15  C   UNL     1     -39.751  51.128 -53.411  1.00  0.00     0.043 A 
HETATM   16  F   UNL     1     -38.919  50.428 -51.320  1.00  0.00    -0.206 F 
HETATM   17  C   UNL     1     -40.468  52.059 -54.169  1.00  0.00     0.017 A 
ENDBRANCH   9  11
ENDBRANCH   1   5
BRANCH   2  18
HETATM   18  C   UNL     1     -42.549  58.999 -57.555  1.00  0.00     0.156 C 
BRANCH  18  19
HETATM   19  C   UNL     1     -42.374  60.386 -56.938  1.00  0.00     0.159 C 
BRANCH  19  20
HETATM   20  O   UNL     1     -41.052  60.883 -57.201  1.00  0.00    -0.392 OA
HETATM   21  H   UNL     1     -40.612  60.884 -56.327  1.00  0.00     0.210 HD
ENDBRANCH  19  20
BRANCH  19  22
HETATM   22  C   UNL     1     -42.666  60.433 -55.434  1.00  0.00     0.201 C 
BRANCH  22  23
HETATM   23  O   UNL     1     -41.477  59.952 -54.782  1.00  0.00    -0.383 OA
BRANCH  23  24
HETATM   24  C   UNL     1     -41.716  59.348 -53.508  1.00  0.00     0.121 C 
HETATM   25  C   UNL     1     -40.854  58.083 -53.444  1.00  0.00     0.032 C 
HETATM   26  C   UNL     1     -41.082  57.305 -52.153  1.00  0.00     0.002 C 
HETATM   27  C   UNL     1     -42.557  56.972 -51.957  1.00  0.00     0.000 C 
HETATM   28  C   UNL     1     -43.432  58.221 -52.031  1.00  0.00     0.002 C 
HETATM   29  C   UNL     1     -43.196  59.005 -53.320  1.00  0.00     0.032 C 
ENDBRANCH  23  24
ENDBRANCH  22  23
ENDBRANCH  19  22
ENDBRANCH  18  19
ENDBRANCH   2  18
TORSDOF 8
ENDMDL
MODEL 3
REMARK VINA RESULT:      -7.1      4.266      6.354
REMARK  8 active torsions:
REMARK  status: ('A' for Active; 'I' for Inactive)
REMARK    1  A    between atoms: C_2  and  C_3 
REMARK    2  A    between atoms: C_7  and  C_8 
REMARK       I    between atoms: C_8  and  N_9 
REMARK    3  A    between atoms: N_9  and  C_10 
REMARK    4  A    between atoms: C_10  and  C_11 
REMARK    5  A    between atoms: C_11  and  O_12 
REMARK    6  A    between atoms: C_11  and  C_13 
REMARK    7  A    between atoms: C_13  and  O_14 
REMARK    8  A    between atoms: O_14  and  C_15 
ROOT
HETATM    1  C   UNL     1     -42.925  56.707 -56.575  1.00  0.00     0.269 C 
HETATM    2  N   UNL     1     -42.450  56.698 -57.860  1.00  0.00    -0.353 N 
HETATM    3  O   UNL     1     -43.997  57.222 -56.271  1.00  0.00    -0.266 OA
HETATM    4  H   UNL     1     -41.494  56.427 -58.044  1.00  0.00     0.162 HD
ENDROOT
BRANCH   1   5
HETATM    5  C   UNL     1     -42.095  56.026 -55.616  1.00  0.00     0.120 A 
HETATM    6  N   UNL     1     -41.536  56.676 -54.552  1.00  0.00    -0.272 N 
HETATM    7  N   UNL     1     -40.891  55.873 -53.692  1.00  0.00    -0.174 NA
HETATM    8  H   UNL     1     -41.600  57.667 -54.344  1.00  0.00     0.189 HD
HETATM    9  C   UNL     1     -41.011  54.645 -54.219  1.00  0.00     0.089 A 
HETATM   10  C   UNL     1     -41.732  54.703 -55.445  1.00  0.00     0.071 A 
BRANCH   9  11
HETATM   11  C   UNL     1     -40.493  53.455 -53.537  1.00  0.00    -0.005 A 
HETATM   12  C   UNL     1     -40.369  53.440 -52.137  1.00  0.00     0.017 A 
HETATM   13  C   UNL     1     -39.922  52.295 -51.472  1.00  0.00     0.043 A 
HETATM   14  C   UNL     1     -39.589  51.165 -52.207  1.00  0.00     0.116 A 
HETATM   15  C   UNL     1     -39.691  51.158 -53.593  1.00  0.00     0.043 A 
HETATM   16  F   UNL     1     -39.166  50.064 -51.573  1.00  0.00    -0.206 F 
HETATM   17  C   UNL     1     -40.143  52.302 -54.259  1.00  0.00     0.017 A 
ENDBRANCH   9  11
ENDBRANCH   1   5
BRANCH   2  18
HETATM   18  C   UNL     1     -43.245  57.083 -59.009  1.00  0.00     0.156 C 
BRANCH  18  19
HETATM   19  C   UNL     1     -42.436  57.263 -60.294  1.00  0.00     0.159 C 
BRANCH  19  20
HETATM   20  O   UNL     1     -41.275  56.417 -60.271  1.00  0.00    -0.392 OA
HETATM   21  H   UNL     1     -41.635  55.507 -60.274  1.00  0.00     0.210 HD
ENDBRANCH  19  20
BRANCH  19  22
HETATM   22  C   UNL     1     -42.025  58.714 -60.567  1.00  0.00     0.201 C 
BRANCH  22  23
HETATM   23  O   UNL     1     -42.362  59.453 -59.380  1.00  0.00    -0.383 OA
BRANCH  23  24
HETATM   24  C   UNL     1     -42.022  60.841 -59.443  1.00  0.00     0.121 C 
HETATM   25  C   UNL     1     -41.464  61.102 -60.847  1.00  0.00     0.032 C 
HETATM   26  C   UNL     1     -40.992  62.542 -61.012  1.00  0.00     0.002 C 
HETATM   27  C   UNL     1     -39.975  62.920 -59.940  1.00  0.00     0.000 C 
HETATM   28  C   UNL     1     -40.510  62.655 -58.536  1.00  0.00     0.002 C 
HETATM   29  C   UNL     1     -40.992  61.215 -58.373  1.00  0.00     0.032 C 
ENDBRANCH  23  24
ENDBRANCH  22  23
ENDBRANCH  19  22
ENDBRANCH  18  19
ENDBRANCH   2  18
TORSDOF 8
ENDMDL
MODEL 4
REMARK VINA RESULT:      -6.8      1.567      1.927
REMARK  8 active torsions:
REMARK  status: ('A' for Active; 'I' for Inactive)
REMARK    1  A    between atoms: C_2  and  C_3 
REMARK    2  A    between atoms: C_7  and  C_8 
REMARK       I    between atoms: C_8  and  N_9 
REMARK    3  A    between atoms: N_9  and  C_10 
REMARK    4  A    between atoms: C_10  and  C_11 
REMARK    5  A    between atoms: C_11  and  O_12 
REMARK    6  A    between atoms: C_11  and  C_13 
REMARK    7  A    between atoms: C_13  and  O_14 
REMARK    8  A    between atoms: O_14  and  C_15 
ROOT
HETATM    1  C   UNL     1     -41.099  57.552 -54.064  1.00  0.00     0.269 C 
HETATM    2  N   UNL     1     -42.231  58.121 -54.585  1.00  0.00    -0.353 N 
HETATM    3  O   UNL     1     -40.235  58.208 -53.490  1.00  0.00    -0.266 OA
HETATM    4  H   UNL     1     -42.828  57.587 -55.201  1.00  0.00     0.162 HD
ENDROOT
BRANCH   1   5
HETATM    5  C   UNL     1     -41.020  56.121 -54.201  1.00  0.00     0.120 A 
HETATM    6  N   UNL     1     -41.185  55.500 -55.407  1.00  0.00    -0.272 N 
HETATM    7  N   UNL     1     -40.963  54.176 -55.381  1.00  0.00    -0.174 NA
HETATM    8  H   UNL     1     -41.410  55.942 -56.293  1.00  0.00     0.189 HD
HETATM    9  C   UNL     1     -40.660  53.909 -54.101  1.00  0.00     0.089 A 
HETATM   10  C   UNL     1     -40.717  55.098 -53.322  1.00  0.00     0.071 A 
BRANCH   9  11
HETATM   11  C   UNL     1     -40.278  52.564 -53.661  1.00  0.00    -0.005 A 
HETATM   12  C   UNL     1     -39.877  52.342 -52.332  1.00  0.00     0.017 A 
HETATM   13  C   UNL     1     -39.557  51.056 -51.888  1.00  0.00     0.043 A 
HETATM   14  C   UNL     1     -39.629  49.989 -52.775  1.00  0.00     0.116 A 
HETATM   15  C   UNL     1     -40.011  50.184 -54.097  1.00  0.00     0.043 A 
HETATM   16  F   UNL     1     -39.329  48.755 -52.351  1.00  0.00    -0.206 F 
HETATM   17  C   UNL     1     -40.336  51.470 -54.541  1.00  0.00     0.017 A 
ENDBRANCH   9  11
ENDBRANCH   1   5
BRANCH   2  18
HETATM   18  C   UNL     1     -42.634  59.488 -54.321  1.00  0.00     0.156 C 
BRANCH  18  19
HETATM   19  C   UNL     1     -43.517  59.649 -53.083  1.00  0.00     0.159 C 
BRANCH  19  20
HETATM   20  O   UNL     1     -42.925  60.588 -52.172  1.00  0.00    -0.392 OA
HETATM   21  H   UNL     1     -43.012  61.454 -52.620  1.00  0.00     0.210 HD
ENDBRANCH  19  20
BRANCH  19  22
HETATM   22  C   UNL     1     -43.815  58.330 -52.362  1.00  0.00     0.201 C 
BRANCH  22  23
HETATM   23  O   UNL     1     -42.767  58.161 -51.392  1.00  0.00    -0.383 OA
BRANCH  23  24
HETATM   24  C   UNL     1     -42.878  56.962 -50.620  1.00  0.00     0.121 C 
HETATM   25  C   UNL     1     -41.455  56.552 -50.223  1.00  0.00     0.032 C 
HETATM   26  C   UNL     1     -41.437  55.235 -49.455  1.00  0.00     0.002 C 
HETATM   27  C   UNL     1     -42.128  54.124 -50.238  1.00  0.00     0.000 C 
HETATM   28  C   UNL     1     -43.542  54.521 -50.652  1.00  0.00     0.002 C 
HETATM   29  C   UNL     1     -43.562  55.846 -51.413  1.00  0.00     0.032 C 
ENDBRANCH  23  24
ENDBRANCH  22  23
ENDBRANCH  19  22
ENDBRANCH  18  19
ENDBRANCH   2  18
TORSDOF 8
ENDMDL
MODEL 5
REMARK VINA RESULT:      -6.8      3.795      6.478
REMARK  8 active torsions:
REMARK  status: ('A' for Active; 'I' for Inactive)
REMARK    1  A    between atoms: C_2  and  C_3 
REMARK    2  A    between atoms: C_7  and  C_8 
REMARK       I    between atoms: C_8  and  N_9 
REMARK    3  A    between atoms: N_9  and  C_10 
REMARK    4  A    between atoms: C_10  and  C_11 
REMARK    5  A    between atoms: C_11  and  O_12 
REMARK    6  A    between atoms: C_11  and  C_13 
REMARK    7  A    between atoms: C_13  and  O_14 
REMARK    8  A    between atoms: O_14  and  C_15 
ROOT
HETATM    1  C   UNL     1     -42.963  56.098 -57.785  1.00  0.00     0.269 C 
HETATM    2  N   UNL     1     -43.291  55.288 -58.839  1.00  0.00    -0.353 N 
HETATM    3  O   UNL     1     -42.917  57.321 -57.882  1.00  0.00    -0.266 OA
HETATM    4  H   UNL     1     -43.147  54.290 -58.775  1.00  0.00     0.162 HD
ENDROOT
BRANCH   1   5
HETATM    5  C   UNL     1     -42.719  55.411 -56.544  1.00  0.00     0.120 A 
HETATM    6  N   UNL     1     -43.732  55.077 -55.691  1.00  0.00    -0.272 N 
HETATM    7  N   UNL     1     -43.347  54.337 -54.639  1.00  0.00    -0.174 NA
HETATM    8  H   UNL     1     -44.717  55.296 -55.802  1.00  0.00     0.189 HD
HETATM    9  C   UNL     1     -42.022  54.193 -54.793  1.00  0.00     0.089 A 
HETATM   10  C   UNL     1     -41.584  54.881 -55.960  1.00  0.00     0.071 A 
BRANCH   9  11
HETATM   11  C   UNL     1     -41.220  53.379 -53.876  1.00  0.00    -0.005 A 
HETATM   12  C   UNL     1     -41.156  53.706 -52.510  1.00  0.00     0.017 A 
HETATM   13  C   UNL     1     -40.433  52.910 -51.618  1.00  0.00     0.043 A 
HETATM   14  C   UNL     1     -39.764  51.788 -52.091  1.00  0.00     0.116 A 
HETATM   15  C   UNL     1     -39.802  51.449 -53.438  1.00  0.00     0.043 A 
HETATM   16  F   UNL     1     -39.076  51.019 -51.238  1.00  0.00    -0.206 F 
HETATM   17  C   UNL     1     -40.529  52.243 -54.331  1.00  0.00     0.017 A 
ENDBRANCH   9  11
ENDBRANCH   1   5
BRANCH   2  18
HETATM   18  C   UNL     1     -43.832  55.783 -60.090  1.00  0.00     0.156 C 
BRANCH  18  19
HETATM   19  C   UNL     1     -45.058  55.015 -60.586  1.00  0.00     0.159 C 
BRANCH  19  20
HETATM   20  O   UNL     1     -44.853  54.575 -61.938  1.00  0.00    -0.392 OA
HETATM   21  H   UNL     1     -44.880  53.598 -61.885  1.00  0.00     0.210 HD
ENDBRANCH  19  20
BRANCH  19  22
HETATM   22  C   UNL     1     -46.365  55.807 -60.482  1.00  0.00     0.201 C 
BRANCH  22  23
HETATM   23  O   UNL     1     -46.263  56.589 -59.279  1.00  0.00    -0.383 OA
BRANCH  23  24
HETATM   24  C   UNL     1     -47.186  57.680 -59.214  1.00  0.00     0.121 C 
HETATM   25  C   UNL     1     -46.940  58.548 -60.452  1.00  0.00     0.032 C 
HETATM   26  C   UNL     1     -47.819  59.794 -60.457  1.00  0.00     0.002 C 
HETATM   27  C   UNL     1     -47.642  60.604 -59.177  1.00  0.00     0.000 C 
HETATM   28  C   UNL     1     -47.871  59.750 -57.932  1.00  0.00     0.002 C 
HETATM   29  C   UNL     1     -46.998  58.497 -57.933  1.00  0.00     0.032 C 
ENDBRANCH  23  24
ENDBRANCH  22  23
ENDBRANCH  19  22
ENDBRANCH  18  19
ENDBRANCH   2  18
TORSDOF 8
ENDMDL
MODEL 6
REMARK VINA RESULT:      -6.7     14.646     16.948
REMARK  8 active torsions:
REMARK  status: ('A' for Active; 'I' for Inactive)
REMARK    1  A    between atoms: C_2  and  C_3 
REMARK    2  A    between atoms: C_7  and  C_8 
REMARK       I    between atoms: C_8  and  N_9 
REMARK    3  A    between atoms: N_9  and  C_10 
REMARK    4  A    between atoms: C_10  and  C_11 
REMARK    5  A    between atoms: C_11  and  O_12 
REMARK    6  A    between atoms: C_11  and  C_13 
REMARK    7  A    between atoms: C_13  and  O_14 
REMARK    8  A    between atoms: O_14  and  C_15 
ROOT
HETATM    1  C   UNL     1     -35.680  41.980 -52.873  1.00  0.00     0.269 C 
HETATM    2  N   UNL     1     -36.120  40.818 -52.297  1.00  0.00    -0.353 N 
HETATM    3  O   UNL     1     -35.228  42.912 -52.216  1.00  0.00    -0.266 OA
HETATM    4  H   UNL     1     -36.646  40.149 -52.843  1.00  0.00     0.162 HD
ENDROOT
BRANCH   1   5
HETATM    5  C   UNL     1     -35.746  42.007 -54.311  1.00  0.00     0.120 A 
HETATM    6  N   UNL     1     -34.788  42.621 -55.067  1.00  0.00    -0.272 N 
HETATM    7  N   UNL     1     -34.937  42.452 -56.391  1.00  0.00    -0.174 NA
HETATM    8  H   UNL     1     -33.983  43.137 -54.727  1.00  0.00     0.189 HD
HETATM    9  C   UNL     1     -36.051  41.714 -56.514  1.00  0.00     0.089 A 
HETATM   10  C   UNL     1     -36.607  41.442 -55.233  1.00  0.00     0.071 A 
BRANCH   9  11
HETATM   11  C   UNL     1     -36.529  41.246 -57.819  1.00  0.00    -0.005 A 
HETATM   12  C   UNL     1     -36.982  42.168 -58.778  1.00  0.00     0.017 A 
HETATM   13  C   UNL     1     -37.395  41.738 -60.042  1.00  0.00     0.043 A 
HETATM   14  C   UNL     1     -37.365  40.384 -60.347  1.00  0.00     0.116 A 
HETATM   15  C   UNL     1     -36.933  39.451 -59.412  1.00  0.00     0.043 A 
HETATM   16  F   UNL     1     -37.754  39.969 -61.559  1.00  0.00    -0.206 F 
HETATM   17  C   UNL     1     -36.514  39.880 -58.149  1.00  0.00     0.017 A 
ENDBRANCH   9  11
ENDBRANCH   1   5
BRANCH   2  18
HETATM   18  C   UNL     1     -35.893  40.479 -50.906  1.00  0.00     0.156 C 
BRANCH  18  19
HETATM   19  C   UNL     1     -34.604  39.696 -50.658  1.00  0.00     0.159 C 
BRANCH  19  20
HETATM   20  O   UNL     1     -33.549  40.591 -50.270  1.00  0.00    -0.392 OA
HETATM   21  H   UNL     1     -32.894  40.527 -50.994  1.00  0.00     0.210 HD
ENDBRANCH  19  20
BRANCH  19  22
HETATM   22  C   UNL     1     -34.160  38.843 -51.851  1.00  0.00     0.201 C 
BRANCH  22  23
HETATM   23  O   UNL     1     -33.244  39.658 -52.604  1.00  0.00    -0.383 OA
BRANCH  23  24
HETATM   24  C   UNL     1     -32.925  39.131 -53.895  1.00  0.00     0.121 C 
HETATM   25  C   UNL     1     -32.170  40.229 -54.652  1.00  0.00     0.032 C 
HETATM   26  C   UNL     1     -31.839  39.811 -56.080  1.00  0.00     0.002 C 
HETATM   27  C   UNL     1     -33.092  39.386 -56.839  1.00  0.00     0.000 C 
HETATM   28  C   UNL     1     -33.863  38.301 -56.092  1.00  0.00     0.002 C 
HETATM   29  C   UNL     1     -34.185  38.716 -54.658  1.00  0.00     0.032 C 
ENDBRANCH  23  24
ENDBRANCH  22  23
ENDBRANCH  19  22
ENDBRANCH  18  19
ENDBRANCH   2  18
TORSDOF 8
ENDMDL
MODEL 7
REMARK VINA RESULT:      -6.7      2.311      4.123
REMARK  8 active torsions:
REMARK  status: ('A' for Active; 'I' for Inactive)
REMARK    1  A    between atoms: C_2  and  C_3 
REMARK    2  A    between atoms: C_7  and  C_8 
REMARK       I    between atoms: C_8  and  N_9 
REMARK    3  A    between atoms: N_9  and  C_10 
REMARK    4  A    between atoms: C_10  and  C_11 
REMARK    5  A    between atoms: C_11  and  O_12 
REMARK    6  A    between atoms: C_11  and  C_13 
REMARK    7  A    between atoms: C_13  and  O_14 
REMARK    8  A    between atoms: O_14  and  C_15 
ROOT
HETATM    1  C   UNL     1     -42.271  58.355 -51.171  1.00  0.00     0.269 C 
HETATM    2  N   UNL     1     -43.491  58.539 -51.767  1.00  0.00    -0.353 N 
HETATM    3  O   UNL     1     -41.644  59.274 -50.653  1.00  0.00    -0.266 OA
HETATM    4  H   UNL     1     -43.893  57.805 -52.333  1.00  0.00     0.162 HD
ENDROOT
BRANCH   1   5
HETATM    5  C   UNL     1     -41.801  56.995 -51.158  1.00  0.00     0.120 A 
HETATM    6  N   UNL     1     -42.004  56.169 -50.088  1.00  0.00    -0.272 N 
HETATM    7  N   UNL     1     -41.608  54.902 -50.286  1.00  0.00    -0.174 NA
HETATM    8  H   UNL     1     -42.448  56.412 -49.209  1.00  0.00     0.189 HD
HETATM    9  C   UNL     1     -41.104  54.894 -51.530  1.00  0.00     0.089 A 
HETATM   10  C   UNL     1     -41.177  56.197 -52.099  1.00  0.00     0.071 A 
BRANCH   9  11
HETATM   11  C   UNL     1     -40.620  53.664 -52.162  1.00  0.00    -0.005 A 
HETATM   12  C   UNL     1     -40.701  53.505 -53.557  1.00  0.00     0.017 A 
HETATM   13  C   UNL     1     -40.199  52.357 -54.175  1.00  0.00     0.043 A 
HETATM   14  C   UNL     1     -39.622  51.359 -53.399  1.00  0.00     0.116 A 
HETATM   15  C   UNL     1     -39.541  51.487 -52.018  1.00  0.00     0.043 A 
HETATM   16  F   UNL     1     -39.135  50.261 -53.989  1.00  0.00    -0.206 F 
HETATM   17  C   UNL     1     -40.039  52.637 -51.398  1.00  0.00     0.017 A 
ENDBRANCH   9  11
ENDBRANCH   1   5
BRANCH   2  18
HETATM   18  C   UNL     1     -44.261  59.761 -51.651  1.00  0.00     0.156 C 
BRANCH  18  19
HETATM   19  C   UNL     1     -44.841  60.260 -52.975  1.00  0.00     0.159 C 
BRANCH  19  20
HETATM   20  O   UNL     1     -46.276  60.203 -52.939  1.00  0.00    -0.392 OA
HETATM   21  H   UNL     1     -46.566  60.974 -53.467  1.00  0.00     0.210 HD
ENDBRANCH  19  20
BRANCH  19  22
HETATM   22  C   UNL     1     -44.314  59.508 -54.202  1.00  0.00     0.201 C 
BRANCH  22  23
HETATM   23  O   UNL     1     -45.034  58.263 -54.246  1.00  0.00    -0.383 OA
BRANCH  23  24
HETATM   24  C   UNL     1     -44.499  57.315 -55.175  1.00  0.00     0.121 C 
HETATM   25  C   UNL     1     -44.058  56.093 -54.362  1.00  0.00     0.032 C 
HETATM   26  C   UNL     1     -43.397  55.036 -55.240  1.00  0.00     0.002 C 
HETATM   27  C   UNL     1     -42.230  55.620 -56.029  1.00  0.00     0.000 C 
HETATM   28  C   UNL     1     -42.649  56.846 -56.835  1.00  0.00     0.002 C 
HETATM   29  C   UNL     1     -43.321  57.901 -55.957  1.00  0.00     0.032 C 
ENDBRANCH  23  24
ENDBRANCH  22  23
ENDBRANCH  19  22
ENDBRANCH  18  19
ENDBRANCH   2  18
TORSDOF 8
ENDMDL
MODEL 8
REMARK VINA RESULT:      -6.6      3.216      5.590
REMARK  8 active torsions:
REMARK  status: ('A' for Active; 'I' for Inactive)
REMARK    1  A    between atoms: C_2  and  C_3 
REMARK    2  A    between atoms: C_7  and  C_8 
REMARK       I    between atoms: C_8  and  N_9 
REMARK    3  A    between atoms: N_9  and  C_10 
REMARK    4  A    between atoms: C_10  and  C_11 
REMARK    5  A    between atoms: C_11  and  O_12 
REMARK    6  A    between atoms: C_11  and  C_13 
REMARK    7  A    between atoms: C_13  and  O_14 
REMARK    8  A    between atoms: O_14  and  C_15 
ROOT
HETATM    1  C   UNL     1     -41.572  58.048 -54.388  1.00  0.00     0.269 C 
HETATM    2  N   UNL     1     -42.519  58.055 -55.377  1.00  0.00    -0.353 N 
HETATM    3  O   UNL     1     -40.974  59.061 -54.040  1.00  0.00    -0.266 OA
HETATM    4  H   UNL     1     -42.860  57.184 -55.758  1.00  0.00     0.162 HD
ENDROOT
BRANCH   1   5
HETATM    5  C   UNL     1     -41.362  56.771 -53.758  1.00  0.00     0.120 A 
HETATM    6  N   UNL     1     -41.984  56.430 -52.590  1.00  0.00    -0.272 N 
HETATM    7  N   UNL     1     -41.773  55.163 -52.201  1.00  0.00    -0.174 NA
HETATM    8  H   UNL     1     -42.601  57.016 -52.037  1.00  0.00     0.189 HD
HETATM    9  C   UNL     1     -40.961  54.652 -53.140  1.00  0.00     0.089 A 
HETATM   10  C   UNL     1     -40.653  55.640 -54.117  1.00  0.00     0.071 A 
BRANCH   9  11
HETATM   11  C   UNL     1     -40.542  53.247 -53.120  1.00  0.00    -0.005 A 
HETATM   12  C   UNL     1     -40.668  52.455 -54.274  1.00  0.00     0.017 A 
HETATM   13  C   UNL     1     -40.228  51.128 -54.281  1.00  0.00     0.043 A 
HETATM   14  C   UNL     1     -39.668  50.588 -53.130  1.00  0.00     0.116 A 
HETATM   15  C   UNL     1     -39.543  51.347 -51.973  1.00  0.00     0.043 A 
HETATM   16  F   UNL     1     -39.239  49.320 -53.135  1.00  0.00    -0.206 F 
HETATM   17  C   UNL     1     -39.979  52.676 -51.966  1.00  0.00     0.017 A 
ENDBRANCH   9  11
ENDBRANCH   1   5
BRANCH   2  18
HETATM   18  C   UNL     1     -43.072  59.268 -55.947  1.00  0.00     0.156 C 
BRANCH  18  19
HETATM   19  C   UNL     1     -42.423  59.689 -57.266  1.00  0.00     0.159 C 
BRANCH  19  20
HETATM   20  O   UNL     1     -43.266  60.626 -57.955  1.00  0.00    -0.392 OA
HETATM   21  H   UNL     1     -43.556  60.149 -58.759  1.00  0.00     0.210 HD
ENDBRANCH  19  20
BRANCH  19  22
HETATM   22  C   UNL     1     -42.077  58.514 -58.186  1.00  0.00     0.201 C 
BRANCH  22  23
HETATM   23  O   UNL     1     -43.083  58.503 -59.214  1.00  0.00    -0.383 OA
BRANCH  23  24
HETATM   24  C   UNL     1     -43.961  57.375 -59.155  1.00  0.00     0.121 C 
HETATM   25  C   UNL     1     -43.159  56.158 -59.628  1.00  0.00     0.032 C 
HETATM   26  C   UNL     1     -44.017  54.899 -59.682  1.00  0.00     0.002 C 
HETATM   27  C   UNL     1     -45.257  55.106 -60.545  1.00  0.00     0.000 C 
HETATM   28  C   UNL     1     -46.061  56.323 -60.095  1.00  0.00     0.002 C 
HETATM   29  C   UNL     1     -45.199  57.583 -60.031  1.00  0.00     0.032 C 
ENDBRANCH  23  24
ENDBRANCH  22  23
ENDBRANCH  19  22
ENDBRANCH  18  19
ENDBRANCH   2  18
TORSDOF 8
ENDMDL
MODEL 9
REMARK VINA RESULT:      -6.6      2.328      4.662
REMARK  8 active torsions:
REMARK  status: ('A' for Active; 'I' for Inactive)
REMARK    1  A    between atoms: C_2  and  C_3 
REMARK    2  A    between atoms: C_7  and  C_8 
REMARK       I    between atoms: C_8  and  N_9 
REMARK    3  A    between atoms: N_9  and  C_10 
REMARK    4  A    between atoms: C_10  and  C_11 
REMARK    5  A    between atoms: C_11  and  O_12 
REMARK    6  A    between atoms: C_11  and  C_13 
REMARK    7  A    between atoms: C_13  and  O_14 
REMARK    8  A    between atoms: O_14  and  C_15 
ROOT
HETATM    1  C   UNL     1     -42.023  57.448 -52.983  1.00  0.00     0.269 C 
HETATM    2  N   UNL     1     -41.756  58.459 -53.867  1.00  0.00    -0.353 N 
HETATM    3  O   UNL     1     -42.667  57.625 -51.953  1.00  0.00    -0.266 OA
HETATM    4  H   UNL     1     -41.080  58.320 -54.605  1.00  0.00     0.162 HD
ENDROOT
BRANCH   1   5
HETATM    5  C   UNL     1     -41.532  56.153 -53.375  1.00  0.00     0.120 A 
HETATM    6  N   UNL     1     -40.876  55.956 -54.557  1.00  0.00    -0.272 N 
HETATM    7  N   UNL     1     -40.381  54.718 -54.714  1.00  0.00    -0.174 NA
HETATM    8  H   UNL     1     -40.702  56.648 -55.278  1.00  0.00     0.189 HD
HETATM    9  C   UNL     1     -40.743  54.065 -53.598  1.00  0.00     0.089 A 
HETATM   10  C   UNL     1     -41.495  54.922 -52.748  1.00  0.00     0.071 A 
BRANCH   9  11
HETATM   11  C   UNL     1     -40.331  52.681 -53.343  1.00  0.00    -0.005 A 
HETATM   12  C   UNL     1     -39.845  52.309 -52.078  1.00  0.00     0.017 A 
HETATM   13  C   UNL     1     -39.494  50.984 -51.808  1.00  0.00     0.043 A 
HETATM   14  C   UNL     1     -39.621  50.027 -52.808  1.00  0.00     0.116 A 
HETATM   15  C   UNL     1     -40.088  50.371 -54.070  1.00  0.00     0.043 A 
HETATM   16  F   UNL     1     -39.293  48.755 -52.551  1.00  0.00    -0.206 F 
HETATM   17  C   UNL     1     -40.444  51.697 -54.339  1.00  0.00     0.017 A 
ENDBRANCH   9  11
ENDBRANCH   1   5
BRANCH   2  18
HETATM   18  C   UNL     1     -42.382  59.765 -53.802  1.00  0.00     0.156 C 
BRANCH  18  19
HETATM   19  C   UNL     1     -43.275  60.088 -55.000  1.00  0.00     0.159 C 
BRANCH  19  20
HETATM   20  O   UNL     1     -44.566  60.529 -54.550  1.00  0.00    -0.392 OA
HETATM   21  H   UNL     1     -45.104  59.712 -54.507  1.00  0.00     0.210 HD
ENDBRANCH  19  20
BRANCH  19  22
HETATM   22  C   UNL     1     -43.429  58.925 -55.986  1.00  0.00     0.201 C 
BRANCH  22  23
HETATM   23  O   UNL     1     -42.166  58.807 -56.663  1.00  0.00    -0.383 OA
BRANCH  23  24
HETATM   24  C   UNL     1     -42.119  57.751 -57.627  1.00  0.00     0.121 C 
HETATM   25  C   UNL     1     -42.234  58.402 -59.010  1.00  0.00     0.032 C 
HETATM   26  C   UNL     1     -42.272  57.363 -60.125  1.00  0.00     0.002 C 
HETATM   27  C   UNL     1     -43.390  56.350 -59.903  1.00  0.00     0.000 C 
HETATM   28  C   UNL     1     -43.298  55.701 -58.524  1.00  0.00     0.002 C 
HETATM   29  C   UNL     1     -43.249  56.742 -57.407  1.00  0.00     0.032 C 
ENDBRANCH  23  24
ENDBRANCH  22  23
ENDBRANCH  19  22
ENDBRANCH  18  19
ENDBRANCH   2  18
TORSDOF 8
ENDMDL
MODEL 10
REMARK VINA RESULT:      -6.5      2.615      4.765
REMARK  8 active torsions:
REMARK  status: ('A' for Active; 'I' for Inactive)
REMARK    1  A    between atoms: C_2  and  C_3 
REMARK    2  A    between atoms: C_7  and  C_8 
REMARK       I    between atoms: C_8  and  N_9 
REMARK    3  A    between atoms: N_9  and  C_10 
REMARK    4  A    between atoms: C_10  and  C_11 
REMARK    5  A    between atoms: C_11  and  O_12 
REMARK    6  A    between atoms: C_11  and  C_13 
REMARK    7  A    between atoms: C_13  and  O_14 
REMARK    8  A    between atoms: O_14  and  C_15 
ROOT
HETATM    1  C   UNL     1     -41.895  57.974 -53.704  1.00  0.00     0.269 C 
HETATM    2  N   UNL     1     -43.250  58.105 -53.855  1.00  0.00    -0.353 N 
HETATM    3  O   UNL     1     -41.114  58.893 -53.930  1.00  0.00    -0.266 OA
HETATM    4  H   UNL     1     -43.843  57.287 -53.833  1.00  0.00     0.162 HD
ENDROOT
BRANCH   1   5
HETATM    5  C   UNL     1     -41.460  56.691 -53.218  1.00  0.00     0.120 A 
HETATM    6  N   UNL     1     -41.624  56.317 -51.914  1.00  0.00    -0.272 N 
HETATM    7  N   UNL     1     -41.272  55.048 -51.654  1.00  0.00    -0.174 NA
HETATM    8  H   UNL     1     -42.013  56.881 -51.165  1.00  0.00     0.189 HD
HETATM    9  C   UNL     1     -40.838  54.570 -52.831  1.00  0.00     0.089 A 
HETATM   10  C   UNL     1     -40.909  55.581 -53.830  1.00  0.00     0.071 A 
BRANCH   9  11
HETATM   11  C   UNL     1     -40.421  53.174 -52.993  1.00  0.00    -0.005 A 
HETATM   12  C   UNL     1     -39.882  52.466 -51.904  1.00  0.00     0.017 A 
HETATM   13  C   UNL     1     -39.525  51.121 -52.034  1.00  0.00     0.043 A 
HETATM   14  C   UNL     1     -39.697  50.483 -53.255  1.00  0.00     0.116 A 
HETATM   15  C   UNL     1     -40.217  51.164 -54.350  1.00  0.00     0.043 A 
HETATM   16  F   UNL     1     -39.362  49.192 -53.381  1.00  0.00    -0.206 F 
HETATM   17  C   UNL     1     -40.579  52.508 -54.220  1.00  0.00     0.017 A 
ENDBRANCH   9  11
ENDBRANCH   1   5
BRANCH   2  18
HETATM   18  C   UNL     1     -43.912  59.376 -54.069  1.00  0.00     0.156 C 
BRANCH  18  19
HETATM   19  C   UNL     1     -44.821  59.407 -55.298  1.00  0.00     0.159 C 
BRANCH  19  20
HETATM   20  O   UNL     1     -45.888  60.348 -55.102  1.00  0.00    -0.392 OA
HETATM   21  H   UNL     1     -46.697  59.799 -55.063  1.00  0.00     0.210 HD
ENDBRANCH  19  20
BRANCH  19  22
HETATM   22  C   UNL     1     -45.390  58.036 -55.679  1.00  0.00     0.201 C 
BRANCH  22  23
HETATM   23  O   UNL     1     -44.312  57.317 -56.303  1.00  0.00    -0.383 OA
BRANCH  23  24
HETATM   24  C   UNL     1     -43.863  57.894 -57.533  1.00  0.00     0.121 C 
HETATM   25  C   UNL     1     -44.504  57.087 -58.667  1.00  0.00     0.032 C 
HETATM   26  C   UNL     1     -44.038  57.563 -60.038  1.00  0.00     0.002 C 
HETATM   27  C   UNL     1     -42.516  57.545 -60.145  1.00  0.00     0.000 C 
HETATM   28  C   UNL     1     -41.861  58.334 -59.015  1.00  0.00     0.002 C 
HETATM   29  C   UNL     1     -42.337  57.863 -57.642  1.00  0.00     0.032 C 
ENDBRANCH  23  24
ENDBRANCH  22  23
ENDBRANCH  19  22
ENDBRANCH  18  19
ENDBRANCH   2  18
TORSDOF 8
ENDMDL
