MODEL 1
REMARK VINA RESULT:      -7.2      0.000      0.000
REMARK  8 active torsions:
REMARK  status: ('A' for Active; 'I' for Inactive)
REMARK    1  A    between atoms: C_2  and  O_3 
REMARK    2  A    between atoms: O_3  and  C_4 
REMARK       I    between atoms: C_4  and  N_5 
REMARK    3  A    between atoms: C_8  and  N_9 
REMARK       I    between atoms: N_9  and  C_10 
REMARK    4  A    between atoms: C_10  and  C_11 
REMARK    5  A    between atoms: C_12  and  C_13 
REMARK    6  A    between atoms: N_18  and  C_19 
REMARK    7  A    between atoms: C_19  and  C_20 
REMARK    8  A    between atoms: C_20  and  O_21 
ROOT
HETATM    1  C   UNL     1     -43.500  59.034 -51.454  1.00  0.00     0.139 C 
HETATM    2  C   UNL     1     -44.029  59.420 -52.854  1.00  0.00     0.145 C 
HETATM    3  N   UNL     1     -43.210  58.912 -53.964  1.00  0.00    -0.335 N 
HETATM    4  C   UNL     1     -41.831  58.742 -53.843  1.00  0.00     0.255 C 
HETATM    5  O   UNL     1     -41.114  58.363 -54.766  1.00  0.00    -0.267 OA
HETATM    6  C   UNL     1     -41.210  58.996 -52.515  1.00  0.00     0.039 A 
HETATM    7  C   UNL     1     -41.996  59.109 -51.362  1.00  0.00    -0.027 A 
HETATM    8  C   UNL     1     -39.814  59.067 -52.421  1.00  0.00     0.017 A 
HETATM    9  C   UNL     1     -39.199  59.253 -51.182  1.00  0.00     0.001 A 
HETATM   10  C   UNL     1     -39.977  59.357 -50.032  1.00  0.00     0.001 A 
HETATM   11  C   UNL     1     -41.368  59.283 -50.118  1.00  0.00     0.009 A 
ENDROOT
BRANCH   1  12
HETATM   12  C   UNL     1     -44.076  57.665 -51.106  1.00  0.00     0.229 C 
HETATM   13  N   UNL     1     -43.164  56.633 -51.278  1.00  0.00    -0.356 N 
HETATM   14  H   UNL     1     -42.330  56.810 -51.826  1.00  0.00     0.162 HD
HETATM   15  O   UNL     1     -45.204  57.483 -50.662  1.00  0.00    -0.273 OA
BRANCH  13  16
HETATM   16  C   UNL     1     -43.471  55.254 -50.909  1.00  0.00     0.087 C 
HETATM   17  C   UNL     1     -43.569  54.331 -52.126  1.00  0.00     0.045 C 
HETATM   18  C   UNL     1     -42.207  54.048 -52.749  1.00  0.00     0.130 C 
HETATM   19  N   UNL     1     -41.223  53.619 -51.759  1.00  0.00    -0.328 N 
HETATM   20  C   UNL     1     -40.151  52.801 -52.100  1.00  0.00     0.362 C 
HETATM   21  C   UNL     1     -41.097  54.431 -50.558  1.00  0.00     0.130 C 
HETATM   22  O   UNL     1     -39.169  52.634 -51.387  1.00  0.00    -0.238 OA
HETATM   23  C   UNL     1     -42.446  54.717 -49.909  1.00  0.00     0.045 C 
BRANCH  20  24
HETATM   24  O   UNL     1     -40.317  52.200 -53.309  1.00  0.00    -0.304 OA
BRANCH  24  25
HETATM   25  C   UNL     1     -39.487  51.058 -53.564  1.00  0.00     0.176 C 
HETATM   26  C   UNL     1     -40.222  50.048 -54.427  1.00  0.00     0.034 C 
ENDBRANCH  24  25
ENDBRANCH  20  24
ENDBRANCH  13  16
ENDBRANCH   1  12
BRANCH   2  27
HETATM   27  C   UNL     1     -44.196  60.927 -52.966  1.00  0.00     0.006 A 
HETATM   28  S   UNL     1     -45.618  61.657 -52.323  1.00  0.00    -0.104 SA
HETATM   29  C   UNL     1     -45.098  63.223 -52.763  1.00  0.00     0.050 A 
HETATM   30  C   UNL     1     -43.879  63.202 -53.400  1.00  0.00     0.008 A 
HETATM   31  C   UNL     1     -43.359  61.880 -53.518  1.00  0.00     0.017 A 
ENDBRANCH   2  27
BRANCH   3  32
HETATM   32  C   UNL     1     -43.862  58.348 -55.157  1.00  0.00     0.153 C 
BRANCH  32  33
HETATM   33  C   UNL     1     -44.354  56.898 -55.074  1.00  0.00     0.187 C 
BRANCH  33  34
HETATM   34  O   UNL     1     -43.396  56.011 -55.645  1.00  0.00    -0.394 OA
HETATM   35  C   UNL     1     -43.071  56.378 -56.979  1.00  0.00     0.201 C 
ENDBRANCH  33  34
ENDBRANCH  32  33
ENDBRANCH   3  32
TORSDOF 8
ENDMDL
MODEL 2
REMARK VINA RESULT:      -7.1      3.447      6.476
REMARK  8 active torsions:
REMARK  status: ('A' for Active; 'I' for Inactive)
REMARK    1  A    between atoms: C_2  and  O_3 
REMARK    2  A    between atoms: O_3  and  C_4 
REMARK       I    between atoms: C_4  and  N_5 
REMARK    3  A    between atoms: C_8  and  N_9 
REMARK       I    between atoms: N_9  and  C_10 
REMARK    4  A    between atoms: C_10  and  C_11 
REMARK    5  A    between atoms: C_12  and  C_13 
REMARK    6  A    between atoms: N_18  and  C_19 
REMARK    7  A    between atoms: C_19  and  C_20 
REMARK    8  A    between atoms: C_20  and  O_21 
ROOT
HETATM    1  C   UNL     1     -41.699  58.224 -53.477  1.00  0.00     0.139 C 
HETATM    2  C   UNL     1     -43.149  57.844 -53.101  1.00  0.00     0.145 C 
HETATM    3  N   UNL     1     -43.800  58.797 -52.192  1.00  0.00    -0.335 N 
HETATM    4  C   UNL     1     -43.078  59.519 -51.242  1.00  0.00     0.255 C 
HETATM    5  O   UNL     1     -43.600  60.288 -50.438  1.00  0.00    -0.267 OA
HETATM    6  C   UNL     1     -41.597  59.376 -51.235  1.00  0.00     0.039 A 
HETATM    7  C   UNL     1     -40.925  58.785 -52.311  1.00  0.00    -0.027 A 
HETATM    8  C   UNL     1     -40.870  59.894 -50.154  1.00  0.00     0.017 A 
HETATM    9  C   UNL     1     -39.477  59.822 -50.142  1.00  0.00     0.001 A 
HETATM   10  C   UNL     1     -38.804  59.242 -51.214  1.00  0.00     0.001 A 
HETATM   11  C   UNL     1     -39.522  58.728 -52.295  1.00  0.00     0.009 A 
ENDROOT
BRANCH   1  12
HETATM   12  C   UNL     1     -41.768  59.157 -54.683  1.00  0.00     0.229 C 
HETATM   13  N   UNL     1     -42.329  58.556 -55.802  1.00  0.00    -0.356 N 
HETATM   14  H   UNL     1     -42.408  57.546 -55.820  1.00  0.00     0.162 HD
HETATM   15  O   UNL     1     -41.426  60.334 -54.667  1.00  0.00    -0.273 OA
BRANCH  13  16
HETATM   16  C   UNL     1     -42.583  59.294 -57.035  1.00  0.00     0.087 C 
HETATM   17  C   UNL     1     -42.040  58.573 -58.271  1.00  0.00     0.045 C 
HETATM   18  C   UNL     1     -42.861  57.340 -58.630  1.00  0.00     0.130 C 
HETATM   19  N   UNL     1     -44.292  57.628 -58.694  1.00  0.00    -0.328 N 
HETATM   20  C   UNL     1     -45.150  56.891 -59.503  1.00  0.00     0.362 C 
HETATM   21  C   UNL     1     -44.874  58.341 -57.567  1.00  0.00     0.130 C 
HETATM   22  O   UNL     1     -46.371  56.910 -59.396  1.00  0.00    -0.238 OA
HETATM   23  C   UNL     1     -44.076  59.587 -57.197  1.00  0.00     0.045 C 
BRANCH  20  24
HETATM   24  O   UNL     1     -44.486  56.153 -60.433  1.00  0.00    -0.304 OA
BRANCH  24  25
HETATM   25  C   UNL     1     -45.016  54.846 -60.696  1.00  0.00     0.176 C 
HETATM   26  C   UNL     1     -44.638  53.884 -59.584  1.00  0.00     0.034 C 
ENDBRANCH  24  25
ENDBRANCH  20  24
ENDBRANCH  13  16
ENDBRANCH   1  12
BRANCH   2  27
HETATM   27  C   UNL     1     -43.199  56.439 -52.520  1.00  0.00     0.006 A 
HETATM   28  S   UNL     1     -42.677  55.117 -53.494  1.00  0.00    -0.104 SA
HETATM   29  C   UNL     1     -42.975  53.989 -52.247  1.00  0.00     0.050 A 
HETATM   30  C   UNL     1     -43.475  54.592 -51.116  1.00  0.00     0.008 A 
HETATM   31  C   UNL     1     -43.606  56.002 -51.272  1.00  0.00     0.017 A 
ENDBRANCH   2  27
BRANCH   3  32
HETATM   32  C   UNL     1     -45.202  59.185 -52.419  1.00  0.00     0.153 C 
BRANCH  32  33
HETATM   33  C   UNL     1     -45.526  59.929 -53.720  1.00  0.00     0.187 C 
BRANCH  33  34
HETATM   34  O   UNL     1     -46.213  61.147 -53.441  1.00  0.00    -0.394 OA
HETATM   35  C   UNL     1     -46.884  61.096 -52.190  1.00  0.00     0.201 C 
ENDBRANCH  33  34
ENDBRANCH  32  33
ENDBRANCH   3  32
TORSDOF 8
ENDMDL
MODEL 3
REMARK VINA RESULT:      -7.1      3.366      7.014
REMARK  8 active torsions:
REMARK  status: ('A' for Active; 'I' for Inactive)
REMARK    1  A    between atoms: C_2  and  O_3 
REMARK    2  A    between atoms: O_3  and  C_4 
REMARK       I    between atoms: C_4  and  N_5 
REMARK    3  A    between atoms: C_8  and  N_9 
REMARK       I    between atoms: N_9  and  C_10 
REMARK    4  A    between atoms: C_10  and  C_11 
REMARK    5  A    between atoms: C_12  and  C_13 
REMARK    6  A    between atoms: N_18  and  C_19 
REMARK    7  A    between atoms: C_19  and  C_20 
REMARK    8  A    between atoms: C_20  and  O_21 
ROOT
HETATM    1  C   UNL     1     -43.216  56.682 -58.398  1.00  0.00     0.139 C 
HETATM    2  C   UNL     1     -43.240  58.005 -57.599  1.00  0.00     0.145 C 
HETATM    3  N   UNL     1     -44.562  58.355 -57.062  1.00  0.00    -0.335 N 
HETATM    4  C   UNL     1     -45.741  58.002 -57.719  1.00  0.00     0.255 C 
HETATM    5  O   UNL     1     -46.858  58.319 -57.319  1.00  0.00    -0.267 OA
HETATM    6  C   UNL     1     -45.633  57.163 -58.943  1.00  0.00     0.039 A 
HETATM    7  C   UNL     1     -44.439  56.504 -59.262  1.00  0.00    -0.027 A 
HETATM    8  C   UNL     1     -46.765  56.992 -59.751  1.00  0.00     0.017 A 
HETATM    9  C   UNL     1     -46.710  56.171 -60.878  1.00  0.00     0.001 A 
HETATM   10  C   UNL     1     -45.527  55.507 -61.194  1.00  0.00     0.001 A 
HETATM   11  C   UNL     1     -44.397  55.669 -60.391  1.00  0.00     0.009 A 
ENDROOT
BRANCH   1  12
HETATM   12  C   UNL     1     -42.989  55.549 -57.402  1.00  0.00     0.229 C 
HETATM   13  N   UNL     1     -42.066  55.871 -56.416  1.00  0.00    -0.356 N 
HETATM   14  H   UNL     1     -41.462  56.671 -56.561  1.00  0.00     0.162 HD
HETATM   15  O   UNL     1     -43.593  54.483 -57.419  1.00  0.00    -0.273 OA
BRANCH  13  16
HETATM   16  C   UNL     1     -41.771  54.972 -55.304  1.00  0.00     0.087 C 
HETATM   17  C   UNL     1     -40.560  55.428 -54.488  1.00  0.00     0.045 C 
HETATM   18  C   UNL     1     -40.861  56.661 -53.644  1.00  0.00     0.130 C 
HETATM   19  N   UNL     1     -42.081  56.507 -52.855  1.00  0.00    -0.328 N 
HETATM   20  C   UNL     1     -42.265  57.184 -51.654  1.00  0.00     0.362 C 
HETATM   21  C   UNL     1     -43.268  56.044 -53.558  1.00  0.00     0.130 C 
HETATM   22  O   UNL     1     -43.351  57.301 -51.099  1.00  0.00    -0.238 OA
HETATM   23  C   UNL     1     -42.994  54.803 -54.400  1.00  0.00     0.045 C 
BRANCH  20  24
HETATM   24  O   UNL     1     -41.106  57.694 -51.160  1.00  0.00    -0.304 OA
BRANCH  24  25
HETATM   25  C   UNL     1     -41.140  59.076 -50.774  1.00  0.00     0.176 C 
HETATM   26  C   UNL     1     -39.742  59.575 -50.458  1.00  0.00     0.034 C 
ENDBRANCH  24  25
ENDBRANCH  20  24
ENDBRANCH  13  16
ENDBRANCH   1  12
BRANCH   2  27
HETATM   27  C   UNL     1     -42.691  59.147 -58.440  1.00  0.00     0.006 A 
HETATM   28  S   UNL     1     -41.803  60.401 -57.661  1.00  0.00    -0.104 SA
HETATM   29  C   UNL     1     -41.521  61.214 -59.136  1.00  0.00     0.050 A 
HETATM   30  C   UNL     1     -42.099  60.564 -60.202  1.00  0.00     0.008 A 
HETATM   31  C   UNL     1     -42.774  59.374 -59.802  1.00  0.00     0.017 A 
ENDBRANCH   2  27
BRANCH   3  32
HETATM   32  C   UNL     1     -44.680  58.887 -55.695  1.00  0.00     0.153 C 
BRANCH  32  33
HETATM   33  C   UNL     1     -44.900  60.397 -55.542  1.00  0.00     0.187 C 
BRANCH  33  34
HETATM   34  O   UNL     1     -44.257  60.879 -54.364  1.00  0.00    -0.394 OA
HETATM   35  C   UNL     1     -43.206  60.017 -53.950  1.00  0.00     0.201 C 
ENDBRANCH  33  34
ENDBRANCH  32  33
ENDBRANCH   3  32
TORSDOF 8
ENDMDL
MODEL 4
REMARK VINA RESULT:      -6.4      3.736      5.686
REMARK  8 active torsions:
REMARK  status: ('A' for Active; 'I' for Inactive)
REMARK    1  A    between atoms: C_2  and  O_3 
REMARK    2  A    between atoms: O_3  and  C_4 
REMARK       I    between atoms: C_4  and  N_5 
REMARK    3  A    between atoms: C_8  and  N_9 
REMARK       I    between atoms: N_9  and  C_10 
REMARK    4  A    between atoms: C_10  and  C_11 
REMARK    5  A    between atoms: C_12  and  C_13 
REMARK    6  A    between atoms: N_18  and  C_19 
REMARK    7  A    between atoms: C_19  and  C_20 
REMARK    8  A    between atoms: C_20  and  O_21 
ROOT
HETATM    1  C   UNL     1     -43.177  59.002 -57.156  1.00  0.00     0.139 C 
HETATM    2  C   UNL     1     -44.708  58.928 -57.357  1.00  0.00     0.145 C 
HETATM    3  N   UNL     1     -45.131  59.028 -58.761  1.00  0.00    -0.335 N 
HETATM    4  C   UNL     1     -44.415  59.777 -59.694  1.00  0.00     0.255 C 
HETATM    5  O   UNL     1     -44.768  59.918 -60.862  1.00  0.00    -0.267 OA
HETATM    6  C   UNL     1     -43.138  60.401 -59.255  1.00  0.00     0.039 A 
HETATM    7  C   UNL     1     -42.523  60.018 -58.058  1.00  0.00    -0.027 A 
HETATM    8  C   UNL     1     -42.523  61.347 -60.088  1.00  0.00     0.017 A 
HETATM    9  C   UNL     1     -41.299  61.913 -59.729  1.00  0.00     0.001 A 
HETATM   10  C   UNL     1     -40.680  61.527 -58.543  1.00  0.00     0.001 A 
HETATM   11  C   UNL     1     -41.284  60.584 -57.711  1.00  0.00     0.009 A 
ENDROOT
BRANCH   1  12
HETATM   12  C   UNL     1     -42.624  57.589 -57.308  1.00  0.00     0.229 C 
HETATM   13  N   UNL     1     -42.473  56.932 -56.094  1.00  0.00    -0.356 N 
HETATM   14  H   UNL     1     -42.489  57.481 -55.243  1.00  0.00     0.162 HD
HETATM   15  O   UNL     1     -42.392  57.050 -58.384  1.00  0.00    -0.273 OA
BRANCH  13  16
HETATM   16  C   UNL     1     -42.053  55.537 -56.012  1.00  0.00     0.087 C 
HETATM   17  C   UNL     1     -40.865  55.337 -55.069  1.00  0.00     0.045 C 
HETATM   18  C   UNL     1     -41.256  55.490 -53.604  1.00  0.00     0.130 C 
HETATM   19  N   UNL     1     -42.427  54.690 -53.257  1.00  0.00    -0.328 N 
HETATM   20  C   UNL     1     -42.636  54.221 -51.964  1.00  0.00     0.362 C 
HETATM   21  C   UNL     1     -43.587  54.803 -54.129  1.00  0.00     0.130 C 
HETATM   22  O   UNL     1     -43.708  53.785 -51.563  1.00  0.00    -0.238 OA
HETATM   23  C   UNL     1     -43.222  54.640 -55.600  1.00  0.00     0.045 C 
BRANCH  20  24
HETATM   24  O   UNL     1     -41.516  54.292 -51.196  1.00  0.00    -0.304 OA
BRANCH  24  25
HETATM   25  C   UNL     1     -41.674  54.900 -49.906  1.00  0.00     0.176 C 
HETATM   26  C   UNL     1     -41.350  56.382 -49.972  1.00  0.00     0.034 C 
ENDBRANCH  24  25
ENDBRANCH  20  24
ENDBRANCH  13  16
ENDBRANCH   1  12
BRANCH   2  27
HETATM   27  C   UNL     1     -45.410  59.982 -56.515  1.00  0.00     0.006 A 
HETATM   28  S   UNL     1     -45.043  60.084 -54.835  1.00  0.00    -0.104 SA
HETATM   29  C   UNL     1     -46.104  61.403 -54.612  1.00  0.00     0.050 A 
HETATM   30  C   UNL     1     -46.741  61.756 -55.780  1.00  0.00     0.008 A 
HETATM   31  C   UNL     1     -46.342  60.937 -56.876  1.00  0.00     0.017 A 
ENDBRANCH   2  27
BRANCH   3  32
HETATM   32  C   UNL     1     -46.197  58.148 -59.269  1.00  0.00     0.153 C 
BRANCH  32  33
HETATM   33  C   UNL     1     -45.863  56.662 -59.438  1.00  0.00     0.187 C 
BRANCH  33  34
HETATM   34  O   UNL     1     -44.958  56.472 -60.523  1.00  0.00    -0.394 OA
HETATM   35  C   UNL     1     -45.104  55.185 -61.109  1.00  0.00     0.201 C 
ENDBRANCH  33  34
ENDBRANCH  32  33
ENDBRANCH   3  32
TORSDOF 8
ENDMDL
MODEL 5
REMARK VINA RESULT:      -6.3      3.762      7.493
REMARK  8 active torsions:
REMARK  status: ('A' for Active; 'I' for Inactive)
REMARK    1  A    between atoms: C_2  and  O_3 
REMARK    2  A    between atoms: O_3  and  C_4 
REMARK       I    between atoms: C_4  and  N_5 
REMARK    3  A    between atoms: C_8  and  N_9 
REMARK       I    between atoms: N_9  and  C_10 
REMARK    4  A    between atoms: C_10  and  C_11 
REMARK    5  A    between atoms: C_12  and  C_13 
REMARK    6  A    between atoms: N_18  and  C_19 
REMARK    7  A    between atoms: C_19  and  C_20 
REMARK    8  A    between atoms: C_20  and  O_21 
ROOT
HETATM    1  C   UNL     1     -43.793  56.804 -54.644  1.00  0.00     0.139 C 
HETATM    2  C   UNL     1     -43.626  58.315 -54.368  1.00  0.00     0.145 C 
HETATM    3  N   UNL     1     -42.243  58.723 -54.087  1.00  0.00    -0.335 N 
HETATM    4  C   UNL     1     -41.339  57.870 -53.454  1.00  0.00     0.255 C 
HETATM    5  O   UNL     1     -40.191  58.197 -53.164  1.00  0.00    -0.267 OA
HETATM    6  C   UNL     1     -41.782  56.482 -53.154  1.00  0.00     0.039 A 
HETATM    7  C   UNL     1     -42.938  55.952 -53.739  1.00  0.00    -0.027 A 
HETATM    8  C   UNL     1     -40.993  55.683 -52.315  1.00  0.00     0.017 A 
HETATM    9  C   UNL     1     -41.354  54.361 -52.055  1.00  0.00     0.001 A 
HETATM   10  C   UNL     1     -42.498  53.828 -52.643  1.00  0.00     0.001 A 
HETATM   11  C   UNL     1     -43.287  54.616 -53.482  1.00  0.00     0.009 A 
ENDROOT
BRANCH   1  12
HETATM   12  C   UNL     1     -43.542  56.578 -56.131  1.00  0.00     0.229 C 
HETATM   13  N   UNL     1     -44.439  57.259 -56.942  1.00  0.00    -0.356 N 
HETATM   14  H   UNL     1     -45.289  57.620 -56.527  1.00  0.00     0.162 HD
HETATM   15  O   UNL     1     -42.613  55.918 -56.582  1.00  0.00    -0.273 OA
BRANCH  13  16
HETATM   16  C   UNL     1     -44.322  57.265 -58.397  1.00  0.00     0.087 C 
HETATM   17  C   UNL     1     -45.629  56.877 -59.091  1.00  0.00     0.045 C 
HETATM   18  C   UNL     1     -46.684  57.972 -58.995  1.00  0.00     0.130 C 
HETATM   19  N   UNL     1     -46.166  59.277 -59.397  1.00  0.00    -0.328 N 
HETATM   20  C   UNL     1     -46.994  60.263 -59.922  1.00  0.00     0.362 C 
HETATM   21  C   UNL     1     -44.907  59.700 -58.803  1.00  0.00     0.130 C 
HETATM   22  O   UNL     1     -46.672  61.441 -60.023  1.00  0.00    -0.238 OA
HETATM   23  C   UNL     1     -43.831  58.625 -58.899  1.00  0.00     0.045 C 
BRANCH  20  24
HETATM   24  O   UNL     1     -48.200  59.774 -60.319  1.00  0.00    -0.304 OA
BRANCH  24  25
HETATM   25  C   UNL     1     -48.452  59.790 -61.732  1.00  0.00     0.176 C 
HETATM   26  C   UNL     1     -48.907  58.422 -62.207  1.00  0.00     0.034 C 
ENDBRANCH  24  25
ENDBRANCH  20  24
ENDBRANCH  13  16
ENDBRANCH   1  12
BRANCH   2  27
HETATM   27  C   UNL     1     -44.548  58.759 -53.242  1.00  0.00     0.006 A 
HETATM   28  S   UNL     1     -45.407  60.243 -53.407  1.00  0.00    -0.104 SA
HETATM   29  C   UNL     1     -46.178  60.045 -51.896  1.00  0.00     0.050 A 
HETATM   30  C   UNL     1     -45.786  58.888 -51.265  1.00  0.00     0.008 A 
HETATM   31  C   UNL     1     -44.846  58.147 -52.039  1.00  0.00     0.017 A 
ENDBRANCH   2  27
BRANCH   3  32
HETATM   32  C   UNL     1     -41.709  59.961 -54.677  1.00  0.00     0.153 C 
BRANCH  32  33
HETATM   33  C   UNL     1     -42.314  60.426 -56.007  1.00  0.00     0.187 C 
BRANCH  33  34
HETATM   34  O   UNL     1     -41.325  60.420 -57.035  1.00  0.00    -0.394 OA
HETATM   35  C   UNL     1     -41.527  61.477 -57.963  1.00  0.00     0.201 C 
ENDBRANCH  33  34
ENDBRANCH  32  33
ENDBRANCH   3  32
TORSDOF 8
ENDMDL
MODEL 6
REMARK VINA RESULT:      -6.3      4.249      6.993
REMARK  8 active torsions:
REMARK  status: ('A' for Active; 'I' for Inactive)
REMARK    1  A    between atoms: C_2  and  O_3 
REMARK    2  A    between atoms: O_3  and  C_4 
REMARK       I    between atoms: C_4  and  N_5 
REMARK    3  A    between atoms: C_8  and  N_9 
REMARK       I    between atoms: N_9  and  C_10 
REMARK    4  A    between atoms: C_10  and  C_11 
REMARK    5  A    between atoms: C_12  and  C_13 
REMARK    6  A    between atoms: N_18  and  C_19 
REMARK    7  A    between atoms: C_19  and  C_20 
REMARK    8  A    between atoms: C_20  and  O_21 
ROOT
HETATM    1  C   UNL     1     -45.948  58.307 -57.568  1.00  0.00     0.139 C 
HETATM    2  C   UNL     1     -44.779  58.013 -58.536  1.00  0.00     0.145 C 
HETATM    3  N   UNL     1     -44.190  59.214 -59.143  1.00  0.00    -0.335 N 
HETATM    4  C   UNL     1     -44.950  60.352 -59.410  1.00  0.00     0.255 C 
HETATM    5  O   UNL     1     -44.497  61.354 -59.958  1.00  0.00    -0.267 OA
HETATM    6  C   UNL     1     -46.371  60.362 -58.970  1.00  0.00     0.039 A 
HETATM    7  C   UNL     1     -46.852  59.406 -58.067  1.00  0.00    -0.027 A 
HETATM    8  C   UNL     1     -47.218  61.380 -59.429  1.00  0.00     0.017 A 
HETATM    9  C   UNL     1     -48.541  61.446 -58.994  1.00  0.00     0.001 A 
HETATM   10  C   UNL     1     -49.021  60.502 -58.089  1.00  0.00     0.001 A 
HETATM   11  C   UNL     1     -48.183  59.488 -57.625  1.00  0.00     0.009 A 
ENDROOT
BRANCH   1  12
HETATM   12  C   UNL     1     -45.348  58.573 -56.191  1.00  0.00     0.229 C 
HETATM   13  N   UNL     1     -44.703  57.466 -55.658  1.00  0.00    -0.356 N 
HETATM   14  H   UNL     1     -44.884  56.557 -56.067  1.00  0.00     0.162 HD
HETATM   15  O   UNL     1     -45.369  59.661 -55.627  1.00  0.00    -0.273 OA
BRANCH  13  16
HETATM   16  C   UNL     1     -43.972  57.524 -54.395  1.00  0.00     0.087 C 
HETATM   17  C   UNL     1     -44.136  56.250 -53.564  1.00  0.00     0.045 C 
HETATM   18  C   UNL     1     -43.372  55.071 -54.155  1.00  0.00     0.130 C 
HETATM   19  N   UNL     1     -41.983  55.406 -54.456  1.00  0.00    -0.328 N 
HETATM   20  C   UNL     1     -40.982  54.441 -54.457  1.00  0.00     0.362 C 
HETATM   21  C   UNL     1     -41.747  56.624 -55.216  1.00  0.00     0.130 C 
HETATM   22  O   UNL     1     -39.875  54.609 -54.954  1.00  0.00    -0.238 OA
HETATM   23  C   UNL     1     -42.491  57.821 -54.636  1.00  0.00     0.045 C 
BRANCH  20  24
HETATM   24  O   UNL     1     -41.364  53.291 -53.839  1.00  0.00    -0.304 OA
BRANCH  24  25
HETATM   25  C   UNL     1     -40.508  52.828 -52.784  1.00  0.00     0.176 C 
HETATM   26  C   UNL     1     -40.912  53.450 -51.459  1.00  0.00     0.034 C 
ENDBRANCH  24  25
ENDBRANCH  20  24
ENDBRANCH  13  16
ENDBRANCH   1  12
BRANCH   2  27
HETATM   27  C   UNL     1     -45.212  57.032 -59.615  1.00  0.00     0.006 A 
HETATM   28  S   UNL     1     -44.091  55.839 -60.152  1.00  0.00    -0.104 SA
HETATM   29  C   UNL     1     -45.223  55.165 -61.239  1.00  0.00     0.050 A 
HETATM   30  C   UNL     1     -46.424  55.836 -61.215  1.00  0.00     0.008 A 
HETATM   31  C   UNL     1     -46.418  56.912 -60.281  1.00  0.00     0.017 A 
ENDBRANCH   2  27
BRANCH   3  32
HETATM   32  C   UNL     1     -42.728  59.328 -59.271  1.00  0.00     0.153 C 
BRANCH  32  33
HETATM   33  C   UNL     1     -41.883  58.990 -58.036  1.00  0.00     0.187 C 
BRANCH  33  34
HETATM   34  O   UNL     1     -41.299  60.171 -57.492  1.00  0.00    -0.394 OA
HETATM   35  C   UNL     1     -42.240  60.923 -56.739  1.00  0.00     0.201 C 
ENDBRANCH  33  34
ENDBRANCH  32  33
ENDBRANCH   3  32
TORSDOF 8
ENDMDL
MODEL 7
REMARK VINA RESULT:      -6.1      4.282      7.218
REMARK  8 active torsions:
REMARK  status: ('A' for Active; 'I' for Inactive)
REMARK    1  A    between atoms: C_2  and  O_3 
REMARK    2  A    between atoms: O_3  and  C_4 
REMARK       I    between atoms: C_4  and  N_5 
REMARK    3  A    between atoms: C_8  and  N_9 
REMARK       I    between atoms: N_9  and  C_10 
REMARK    4  A    between atoms: C_10  and  C_11 
REMARK    5  A    between atoms: C_12  and  C_13 
REMARK    6  A    between atoms: N_18  and  C_19 
REMARK    7  A    between atoms: C_19  and  C_20 
REMARK    8  A    between atoms: C_20  and  O_21 
ROOT
HETATM    1  C   UNL     1     -44.259  58.273 -58.091  1.00  0.00     0.139 C 
HETATM    2  C   UNL     1     -44.669  59.585 -58.795  1.00  0.00     0.145 C 
HETATM    3  N   UNL     1     -45.929  59.492 -59.547  1.00  0.00    -0.335 N 
HETATM    4  C   UNL     1     -46.338  58.305 -60.153  1.00  0.00     0.255 C 
HETATM    5  O   UNL     1     -47.361  58.207 -60.825  1.00  0.00    -0.267 OA
HETATM    6  C   UNL     1     -45.509  57.088 -59.935  1.00  0.00     0.039 A 
HETATM    7  C   UNL     1     -44.532  57.052 -58.933  1.00  0.00    -0.027 A 
HETATM    8  C   UNL     1     -45.756  55.950 -60.714  1.00  0.00     0.017 A 
HETATM    9  C   UNL     1     -45.031  54.777 -60.500  1.00  0.00     0.001 A 
HETATM   10  C   UNL     1     -44.064  54.735 -59.498  1.00  0.00     0.001 A 
HETATM   11  C   UNL     1     -43.815  55.864 -58.716  1.00  0.00     0.009 A 
ENDROOT
BRANCH   1  12
HETATM   12  C   UNL     1     -44.942  58.251 -56.727  1.00  0.00     0.229 C 
HETATM   13  N   UNL     1     -44.084  58.579 -55.685  1.00  0.00    -0.356 N 
HETATM   14  H   UNL     1     -43.086  58.555 -55.856  1.00  0.00     0.162 HD
HETATM   15  O   UNL     1     -46.136  58.032 -56.555  1.00  0.00    -0.273 OA
BRANCH  13  16
HETATM   16  C   UNL     1     -44.549  58.717 -54.309  1.00  0.00     0.087 C 
HETATM   17  C   UNL     1     -44.626  57.374 -53.579  1.00  0.00     0.045 C 
HETATM   18  C   UNL     1     -43.247  56.817 -53.245  1.00  0.00     0.130 C 
HETATM   19  N   UNL     1     -42.398  57.803 -52.581  1.00  0.00    -0.328 N 
HETATM   20  C   UNL     1     -41.381  57.425 -51.711  1.00  0.00     0.362 C 
HETATM   21  C   UNL     1     -42.302  59.116 -53.200  1.00  0.00     0.130 C 
HETATM   22  O   UNL     1     -40.485  58.176 -51.344  1.00  0.00    -0.238 OA
HETATM   23  C   UNL     1     -43.671  59.700 -53.533  1.00  0.00     0.045 C 
BRANCH  20  24
HETATM   24  O   UNL     1     -41.495  56.132 -51.305  1.00  0.00    -0.304 OA
BRANCH  24  25
HETATM   25  C   UNL     1     -41.246  55.884 -49.914  1.00  0.00     0.176 C 
HETATM   26  C   UNL     1     -40.233  54.766 -49.745  1.00  0.00     0.034 C 
ENDBRANCH  24  25
ENDBRANCH  20  24
ENDBRANCH  13  16
ENDBRANCH   1  12
BRANCH   2  27
HETATM   27  C   UNL     1     -43.550  60.080 -59.698  1.00  0.00     0.006 A 
HETATM   28  S   UNL     1     -42.935  61.673 -59.464  1.00  0.00    -0.104 SA
HETATM   29  C   UNL     1     -41.790  61.490 -60.717  1.00  0.00     0.050 A 
HETATM   30  C   UNL     1     -41.875  60.255 -61.318  1.00  0.00     0.008 A 
HETATM   31  C   UNL     1     -42.889  59.443 -60.732  1.00  0.00     0.017 A 
ENDBRANCH   2  27
BRANCH   3  32
HETATM   32  C   UNL     1     -46.904  60.593 -59.481  1.00  0.00     0.153 C 
BRANCH  32  33
HETATM   33  C   UNL     1     -47.659  60.788 -58.161  1.00  0.00     0.187 C 
BRANCH  33  34
HETATM   34  O   UNL     1     -48.980  60.259 -58.257  1.00  0.00    -0.394 OA
HETATM   35  C   UNL     1     -49.886  60.955 -57.412  1.00  0.00     0.201 C 
ENDBRANCH  33  34
ENDBRANCH  32  33
ENDBRANCH   3  32
TORSDOF 8
ENDMDL
MODEL 8
REMARK VINA RESULT:      -5.9      2.886      6.284
REMARK  8 active torsions:
REMARK  status: ('A' for Active; 'I' for Inactive)
REMARK    1  A    between atoms: C_2  and  O_3 
REMARK    2  A    between atoms: O_3  and  C_4 
REMARK       I    between atoms: C_4  and  N_5 
REMARK    3  A    between atoms: C_8  and  N_9 
REMARK       I    between atoms: N_9  and  C_10 
REMARK    4  A    between atoms: C_10  and  C_11 
REMARK    5  A    between atoms: C_12  and  C_13 
REMARK    6  A    between atoms: N_18  and  C_19 
REMARK    7  A    between atoms: C_19  and  C_20 
REMARK    8  A    between atoms: C_20  and  O_21 
ROOT
HETATM    1  C   UNL     1     -43.898  57.300 -52.338  1.00  0.00     0.139 C 
HETATM    2  C   UNL     1     -43.576  58.800 -52.530  1.00  0.00     0.145 C 
HETATM    3  N   UNL     1     -42.143  59.090 -52.673  1.00  0.00    -0.335 N 
HETATM    4  C   UNL     1     -41.169  58.320 -52.039  1.00  0.00     0.255 C 
HETATM    5  O   UNL     1     -39.967  58.564 -52.102  1.00  0.00    -0.267 OA
HETATM    6  C   UNL     1     -41.613  57.118 -51.282  1.00  0.00     0.039 A 
HETATM    7  C   UNL     1     -42.906  56.606 -51.439  1.00  0.00    -0.027 A 
HETATM    8  C   UNL     1     -40.698  56.467 -50.444  1.00  0.00     0.017 A 
HETATM    9  C   UNL     1     -41.068  55.308 -49.760  1.00  0.00     0.001 A 
HETATM   10  C   UNL     1     -42.351  54.790 -49.920  1.00  0.00     0.001 A 
HETATM   11  C   UNL     1     -43.267  55.432 -50.756  1.00  0.00     0.009 A 
ENDROOT
BRANCH   1  12
HETATM   12  C   UNL     1     -44.023  56.676 -53.724  1.00  0.00     0.229 C 
HETATM   13  N   UNL     1     -44.207  57.617 -54.728  1.00  0.00    -0.356 N 
HETATM   14  H   UNL     1     -44.485  58.555 -54.466  1.00  0.00     0.162 HD
HETATM   15  O   UNL     1     -43.914  55.477 -53.954  1.00  0.00    -0.273 OA
BRANCH  13  16
HETATM   16  C   UNL     1     -44.251  57.249 -56.140  1.00  0.00     0.087 C 
HETATM   17  C   UNL     1     -45.181  58.154 -56.952  1.00  0.00     0.045 C 
HETATM   18  C   UNL     1     -44.602  59.550 -57.151  1.00  0.00     0.130 C 
HETATM   19  N   UNL     1     -43.229  59.514 -57.648  1.00  0.00    -0.328 N 
HETATM   20  C   UNL     1     -42.700  60.549 -58.411  1.00  0.00     0.362 C 
HETATM   21  C   UNL     1     -42.294  58.648 -56.946  1.00  0.00     0.130 C 
HETATM   22  O   UNL     1     -41.503  60.696 -58.623  1.00  0.00    -0.238 OA
HETATM   23  C   UNL     1     -42.846  57.242 -56.746  1.00  0.00     0.045 C 
BRANCH  20  24
HETATM   24  O   UNL     1     -43.660  61.377 -58.904  1.00  0.00    -0.304 OA
BRANCH  24  25
HETATM   25  C   UNL     1     -43.681  61.541 -60.329  1.00  0.00     0.176 C 
HETATM   26  C   UNL     1     -44.316  60.333 -60.995  1.00  0.00     0.034 C 
ENDBRANCH  24  25
ENDBRANCH  20  24
ENDBRANCH  13  16
ENDBRANCH   1  12
BRANCH   2  27
HETATM   27  C   UNL     1     -44.173  59.624 -51.400  1.00  0.00     0.006 A 
HETATM   28  S   UNL     1     -45.861  59.495 -51.078  1.00  0.00    -0.104 SA
HETATM   29  C   UNL     1     -45.767  60.591 -49.773  1.00  0.00     0.050 A 
HETATM   30  C   UNL     1     -44.488  61.064 -49.587  1.00  0.00     0.008 A 
HETATM   31  C   UNL     1     -43.570  60.508 -50.524  1.00  0.00     0.017 A 
ENDBRANCH   2  27
BRANCH   3  32
HETATM   32  C   UNL     1     -41.689  60.063 -53.681  1.00  0.00     0.153 C 
BRANCH  32  33
HETATM   33  C   UNL     1     -42.740  61.015 -54.265  1.00  0.00     0.187 C 
BRANCH  33  34
HETATM   34  O   UNL     1     -42.798  62.221 -53.506  1.00  0.00    -0.394 OA
HETATM   35  C   UNL     1     -44.112  62.763 -53.484  1.00  0.00     0.201 C 
ENDBRANCH  33  34
ENDBRANCH  32  33
ENDBRANCH   3  32
TORSDOF 8
ENDMDL
MODEL 9
REMARK VINA RESULT:      -5.9      3.259      7.480
REMARK  8 active torsions:
REMARK  status: ('A' for Active; 'I' for Inactive)
REMARK    1  A    between atoms: C_2  and  O_3 
REMARK    2  A    between atoms: O_3  and  C_4 
REMARK       I    between atoms: C_4  and  N_5 
REMARK    3  A    between atoms: C_8  and  N_9 
REMARK       I    between atoms: N_9  and  C_10 
REMARK    4  A    between atoms: C_10  and  C_11 
REMARK    5  A    between atoms: C_12  and  C_13 
REMARK    6  A    between atoms: N_18  and  C_19 
REMARK    7  A    between atoms: C_19  and  C_20 
REMARK    8  A    between atoms: C_20  and  O_21 
ROOT
HETATM    1  C   UNL     1     -43.131  58.244 -53.549  1.00  0.00     0.139 C 
HETATM    2  C   UNL     1     -42.308  57.275 -52.671  1.00  0.00     0.145 C 
HETATM    3  N   UNL     1     -43.119  56.474 -51.743  1.00  0.00    -0.335 N 
HETATM    4  C   UNL     1     -44.304  56.961 -51.193  1.00  0.00     0.255 C 
HETATM    5  O   UNL     1     -44.980  56.334 -50.381  1.00  0.00    -0.267 OA
HETATM    6  C   UNL     1     -44.791  58.291 -51.649  1.00  0.00     0.039 A 
HETATM    7  C   UNL     1     -44.256  58.901 -52.790  1.00  0.00    -0.027 A 
HETATM    8  C   UNL     1     -45.836  58.909 -50.949  1.00  0.00     0.017 A 
HETATM    9  C   UNL     1     -46.349  60.132 -51.381  1.00  0.00     0.001 A 
HETATM   10  C   UNL     1     -45.826  60.738 -52.522  1.00  0.00     0.001 A 
HETATM   11  C   UNL     1     -44.787  60.127 -53.226  1.00  0.00     0.009 A 
ENDROOT
BRANCH   1  12
HETATM   12  C   UNL     1     -43.582  57.473 -54.785  1.00  0.00     0.229 C 
HETATM   13  N   UNL     1     -43.109  58.021 -55.970  1.00  0.00    -0.356 N 
HETATM   14  H   UNL     1     -42.744  58.966 -55.953  1.00  0.00     0.162 HD
HETATM   15  O   UNL     1     -44.242  56.440 -54.753  1.00  0.00    -0.273 OA
BRANCH  13  16
HETATM   16  C   UNL     1     -43.336  57.388 -57.265  1.00  0.00     0.087 C 
HETATM   17  C   UNL     1     -44.693  57.756 -57.867  1.00  0.00     0.045 C 
HETATM   18  C   UNL     1     -44.735  59.196 -58.365  1.00  0.00     0.130 C 
HETATM   19  N   UNL     1     -43.600  59.518 -59.225  1.00  0.00    -0.328 N 
HETATM   20  C   UNL     1     -43.682  60.497 -60.209  1.00  0.00     0.362 C 
HETATM   21  C   UNL     1     -42.277  59.166 -58.733  1.00  0.00     0.130 C 
HETATM   22  O   UNL     1     -42.707  60.986 -60.766  1.00  0.00    -0.238 OA
HETATM   23  C   UNL     1     -42.207  57.725 -58.241  1.00  0.00     0.045 C 
BRANCH  20  24
HETATM   24  O   UNL     1     -44.966  60.848 -60.490  1.00  0.00    -0.304 OA
BRANCH  24  25
HETATM   25  C   UNL     1     -45.214  62.251 -60.656  1.00  0.00     0.176 C 
HETATM   26  C   UNL     1     -46.352  62.700 -59.757  1.00  0.00     0.034 C 
ENDBRANCH  24  25
ENDBRANCH  20  24
ENDBRANCH  13  16
ENDBRANCH   1  12
BRANCH   2  27
HETATM   27  C   UNL     1     -41.226  58.028 -51.913  1.00  0.00     0.006 A 
HETATM   28  S   UNL     1     -39.928  58.734 -52.799  1.00  0.00    -0.104 SA
HETATM   29  C   UNL     1     -39.215  59.369 -51.384  1.00  0.00     0.050 A 
HETATM   30  C   UNL     1     -39.930  59.044 -50.255  1.00  0.00     0.008 A 
HETATM   31  C   UNL     1     -41.088  58.270 -50.558  1.00  0.00     0.017 A 
ENDBRANCH   2  27
BRANCH   3  32
HETATM   32  C   UNL     1     -42.819  55.045 -51.553  1.00  0.00     0.153 C 
BRANCH  32  33
HETATM   33  C   UNL     1     -42.643  54.188 -52.812  1.00  0.00     0.187 C 
BRANCH  33  34
HETATM   34  O   UNL     1     -41.301  53.716 -52.912  1.00  0.00    -0.394 OA
HETATM   35  C   UNL     1     -40.756  53.413 -51.636  1.00  0.00     0.201 C 
ENDBRANCH  33  34
ENDBRANCH  32  33
ENDBRANCH   3  32
TORSDOF 8
ENDMDL
MODEL 10
REMARK VINA RESULT:      -5.8     17.301     19.780
REMARK  8 active torsions:
REMARK  status: ('A' for Active; 'I' for Inactive)
REMARK    1  A    between atoms: C_2  and  O_3 
REMARK    2  A    between atoms: O_3  and  C_4 
REMARK       I    between atoms: C_4  and  N_5 
REMARK    3  A    between atoms: C_8  and  N_9 
REMARK       I    between atoms: N_9  and  C_10 
REMARK    4  A    between atoms: C_10  and  C_11 
REMARK    5  A    between atoms: C_12  and  C_13 
REMARK    6  A    between atoms: N_18  and  C_19 
REMARK    7  A    between atoms: C_19  and  C_20 
REMARK    8  A    between atoms: C_20  and  O_21 
ROOT
HETATM    1  C   UNL     1     -34.213  38.621 -52.523  1.00  0.00     0.139 C 
HETATM    2  C   UNL     1     -35.513  39.437 -52.702  1.00  0.00     0.145 C 
HETATM    3  N   UNL     1     -35.367  40.868 -52.404  1.00  0.00    -0.335 N 
HETATM    4  C   UNL     1     -34.466  41.332 -51.446  1.00  0.00     0.255 C 
HETATM    5  O   UNL     1     -34.352  42.517 -51.142  1.00  0.00    -0.267 OA
HETATM    6  C   UNL     1     -33.571  40.340 -50.791  1.00  0.00     0.039 A 
HETATM    7  C   UNL     1     -33.421  39.050 -51.314  1.00  0.00    -0.027 A 
HETATM    8  C   UNL     1     -32.831  40.730 -49.666  1.00  0.00     0.017 A 
HETATM    9  C   UNL     1     -31.945  39.839 -49.060  1.00  0.00     0.001 A 
HETATM   10  C   UNL     1     -31.787  38.558 -49.583  1.00  0.00     0.001 A 
HETATM   11  C   UNL     1     -32.517  38.163 -50.704  1.00  0.00     0.009 A 
ENDROOT
BRANCH   1  12
HETATM   12  C   UNL     1     -33.438  38.700 -53.834  1.00  0.00     0.229 C 
HETATM   13  N   UNL     1     -34.256  38.632 -54.953  1.00  0.00    -0.356 N 
HETATM   14  H   UNL     1     -35.205  38.298 -54.839  1.00  0.00     0.162 HD
HETATM   15  O   UNL     1     -32.226  38.869 -53.911  1.00  0.00    -0.273 OA
BRANCH  13  16
HETATM   16  C   UNL     1     -33.735  38.789 -56.308  1.00  0.00     0.087 C 
HETATM   17  C   UNL     1     -34.587  38.061 -57.350  1.00  0.00     0.045 C 
HETATM   18  C   UNL     1     -35.923  38.754 -57.593  1.00  0.00     0.130 C 
HETATM   19  N   UNL     1     -35.766  40.183 -57.851  1.00  0.00    -0.328 N 
HETATM   20  C   UNL     1     -36.683  40.893 -58.618  1.00  0.00     0.362 C 
HETATM   21  C   UNL     1     -34.940  40.936 -56.918  1.00  0.00     0.130 C 
HETATM   22  O   UNL     1     -36.748  42.117 -58.642  1.00  0.00    -0.238 OA
HETATM   23  C   UNL     1     -33.593  40.269 -56.669  1.00  0.00     0.045 C 
BRANCH  20  24
HETATM   24  O   UNL     1     -37.496  40.080 -59.344  1.00  0.00    -0.304 OA
BRANCH  24  25
HETATM   25  C   UNL     1     -37.322  40.124 -60.768  1.00  0.00     0.176 C 
HETATM   26  C   UNL     1     -36.561  38.903 -61.250  1.00  0.00     0.034 C 
ENDBRANCH  24  25
ENDBRANCH  20  24
ENDBRANCH  13  16
ENDBRANCH   1  12
BRANCH   2  27
HETATM   27  C   UNL     1     -36.639  38.837 -51.874  1.00  0.00     0.006 A 
HETATM   28  S   UNL     1     -36.517  37.192 -51.373  1.00  0.00    -0.104 SA
HETATM   29  C   UNL     1     -38.006  37.264 -50.538  1.00  0.00     0.050 A 
HETATM   30  C   UNL     1     -38.599  38.501 -50.646  1.00  0.00     0.008 A 
HETATM   31  C   UNL     1     -37.813  39.407 -51.415  1.00  0.00     0.017 A 
ENDBRANCH   2  27
BRANCH   3  32
HETATM   32  C   UNL     1     -36.002  41.868 -53.278  1.00  0.00     0.153 C 
BRANCH  32  33
HETATM   33  C   UNL     1     -36.665  41.360 -54.564  1.00  0.00     0.187 C 
BRANCH  33  34
HETATM   34  O   UNL     1     -38.070  41.205 -54.375  1.00  0.00    -0.394 OA
HETATM   35  C   UNL     1     -38.764  41.159 -55.615  1.00  0.00     0.201 C 
ENDBRANCH  33  34
ENDBRANCH  32  33
ENDBRANCH   3  32
TORSDOF 8
ENDMDL
