MODEL 1
REMARK VINA RESULT:      -7.6      0.000      0.000
REMARK  3 active torsions:
REMARK  status: ('A' for Active; 'I' for Inactive)
REMARK    1  A    between atoms: C_3  and  N_4 
REMARK    2  A    between atoms: C_3  and  C_17 
REMARK       I    between atoms: N_4  and  C_5 
REMARK    3  A    between atoms: C_5  and  C_6 
ROOT
HETATM    1  N   UNL     1     -43.386  56.270 -51.670  1.00  0.00    -0.306 N 
HETATM    2  C   UNL     1     -42.100  56.305 -51.158  1.00  0.00     0.275 C 
HETATM    3  O   UNL     1     -41.596  57.268 -50.592  1.00  0.00    -0.266 OA
HETATM    4  H   UNL     1     -43.632  55.386 -52.102  1.00  0.00     0.170 HD
ENDROOT
BRANCH   2   5
HETATM    5  C   UNL     1     -41.351  55.028 -51.365  1.00  0.00     0.125 A 
HETATM    6  N   UNL     1     -41.502  54.455 -52.595  1.00  0.00    -0.243 NA
HETATM    7  C   UNL     1     -40.852  53.300 -52.819  1.00  0.00     0.068 A 
HETATM    8  C   UNL     1     -40.039  52.682 -51.841  1.00  0.00    -0.007 A 
HETATM    9  C   UNL     1     -40.975  52.679 -54.055  1.00  0.00     0.032 A 
HETATM   10  C   UNL     1     -39.912  53.306 -50.592  1.00  0.00     0.016 A 
HETATM   11  C   UNL     1     -39.383  51.474 -52.127  1.00  0.00     0.014 A 
HETATM   12  C   UNL     1     -40.578  54.500 -50.345  1.00  0.00     0.038 A 
HETATM   13  C   UNL     1     -39.526  50.873 -53.376  1.00  0.00     0.001 A 
HETATM   14  C   UNL     1     -40.322  51.476 -54.342  1.00  0.00     0.002 A 
ENDBRANCH   2   5
BRANCH   1  15
HETATM   15  C   UNL     1     -44.329  57.262 -51.600  1.00  0.00     0.133 C 
HETATM   16  N   UNL     1     -44.923  57.586 -50.505  1.00  0.00    -0.283 NA
HETATM   17  H   UNL     1     -44.557  56.987 -49.748  1.00  0.00     0.188 HD
BRANCH  15  18
HETATM   18  C   UNL     1     -44.665  57.967 -52.834  1.00  0.00     0.016 A 
HETATM   19  C   UNL     1     -44.709  57.327 -54.063  1.00  0.00     0.065 A 
HETATM   20  S   UNL     1     -45.120  58.364 -55.357  1.00  0.00    -0.113 SA
HETATM   21  C   UNL     1     -45.262  59.700 -54.307  1.00  0.00     0.050 A 
HETATM   22  C   UNL     1     -44.997  59.359 -52.998  1.00  0.00     0.023 A 
ENDBRANCH  15  18
ENDBRANCH   1  15
TORSDOF 3
ENDMDL
MODEL 2
REMARK VINA RESULT:      -7.6      3.560      4.631
REMARK  3 active torsions:
REMARK  status: ('A' for Active; 'I' for Inactive)
REMARK    1  A    between atoms: C_3  and  N_4 
REMARK    2  A    between atoms: C_3  and  C_17 
REMARK       I    between atoms: N_4  and  C_5 
REMARK    3  A    between atoms: C_5  and  C_6 
ROOT
HETATM    1  N   UNL     1     -42.108  56.071 -56.551  1.00  0.00    -0.306 N 
HETATM    2  C   UNL     1     -41.814  56.265 -55.212  1.00  0.00     0.275 C 
HETATM    3  O   UNL     1     -41.979  57.315 -54.602  1.00  0.00    -0.266 OA
HETATM    4  H   UNL     1     -41.909  55.135 -56.884  1.00  0.00     0.170 HD
ENDROOT
BRANCH   2   5
HETATM    5  C   UNL     1     -41.256  55.045 -54.551  1.00  0.00     0.125 A 
HETATM    6  N   UNL     1     -41.330  55.035 -53.188  1.00  0.00    -0.243 NA
HETATM    7  C   UNL     1     -40.831  53.961 -52.553  1.00  0.00     0.068 A 
HETATM    8  C   UNL     1     -40.248  52.872 -53.243  1.00  0.00    -0.007 A 
HETATM    9  C   UNL     1     -40.882  53.905 -51.166  1.00  0.00     0.032 A 
HETATM   10  C   UNL     1     -40.195  52.925 -54.643  1.00  0.00     0.016 A 
HETATM   11  C   UNL     1     -39.740  51.774 -52.531  1.00  0.00     0.014 A 
HETATM   12  C   UNL     1     -40.706  54.029 -55.313  1.00  0.00     0.038 A 
HETATM   13  C   UNL     1     -39.804  51.746 -51.139  1.00  0.00     0.001 A 
HETATM   14  C   UNL     1     -40.376  52.812 -50.456  1.00  0.00     0.002 A 
ENDBRANCH   2   5
BRANCH   1  15
HETATM   15  C   UNL     1     -42.669  56.979 -57.411  1.00  0.00     0.133 C 
HETATM   16  N   UNL     1     -42.394  58.236 -57.380  1.00  0.00    -0.283 NA
HETATM   17  H   UNL     1     -41.705  58.398 -56.627  1.00  0.00     0.188 HD
BRANCH  15  18
HETATM   18  C   UNL     1     -43.624  56.480 -58.397  1.00  0.00     0.016 A 
HETATM   19  C   UNL     1     -44.714  57.228 -58.816  1.00  0.00     0.065 A 
HETATM   20  S   UNL     1     -45.688  56.427 -59.968  1.00  0.00    -0.113 SA
HETATM   21  C   UNL     1     -44.673  55.057 -59.948  1.00  0.00     0.050 A 
HETATM   22  C   UNL     1     -43.616  55.209 -59.076  1.00  0.00     0.023 A 
ENDBRANCH  15  18
ENDBRANCH   1  15
TORSDOF 3
ENDMDL
MODEL 3
REMARK VINA RESULT:      -7.4      2.400      2.971
REMARK  3 active torsions:
REMARK  status: ('A' for Active; 'I' for Inactive)
REMARK    1  A    between atoms: C_3  and  N_4 
REMARK    2  A    between atoms: C_3  and  C_17 
REMARK       I    between atoms: N_4  and  C_5 
REMARK    3  A    between atoms: C_5  and  C_6 
ROOT
HETATM    1  N   UNL     1     -42.134  56.153 -52.488  1.00  0.00    -0.306 N 
HETATM    2  C   UNL     1     -41.151  55.590 -53.282  1.00  0.00     0.275 C 
HETATM    3  O   UNL     1     -40.668  56.113 -54.279  1.00  0.00    -0.266 OA
HETATM    4  H   UNL     1     -42.409  55.575 -51.702  1.00  0.00     0.170 HD
ENDROOT
BRANCH   2   5
HETATM    5  C   UNL     1     -40.714  54.240 -52.808  1.00  0.00     0.125 A 
HETATM    6  N   UNL     1     -40.614  53.286 -53.779  1.00  0.00    -0.243 NA
HETATM    7  C   UNL     1     -40.234  52.055 -53.394  1.00  0.00     0.068 A 
HETATM    8  C   UNL     1     -39.943  51.735 -52.048  1.00  0.00    -0.007 A 
HETATM    9  C   UNL     1     -40.119  51.050 -54.346  1.00  0.00     0.032 A 
HETATM   10  C   UNL     1     -40.058  52.747 -51.085  1.00  0.00     0.016 A 
HETATM   11  C   UNL     1     -39.550  50.432 -51.699  1.00  0.00     0.014 A 
HETATM   12  C   UNL     1     -40.451  54.024 -51.467  1.00  0.00     0.038 A 
HETATM   13  C   UNL     1     -39.444  49.444 -52.675  1.00  0.00     0.001 A 
HETATM   14  C   UNL     1     -39.728  49.752 -54.000  1.00  0.00     0.002 A 
ENDBRANCH   2   5
BRANCH   1  15
HETATM   15  C   UNL     1     -42.704  57.391 -52.635  1.00  0.00     0.133 C 
HETATM   16  N   UNL     1     -43.580  57.655 -53.541  1.00  0.00    -0.283 NA
HETATM   17  H   UNL     1     -43.752  56.794 -54.085  1.00  0.00     0.188 HD
BRANCH  15  18
HETATM   18  C   UNL     1     -42.281  58.446 -51.719  1.00  0.00     0.016 A 
HETATM   19  C   UNL     1     -43.011  59.612 -51.545  1.00  0.00     0.065 A 
HETATM   20  S   UNL     1     -42.310  60.696 -50.426  1.00  0.00    -0.113 SA
HETATM   21  C   UNL     1     -41.012  59.630 -50.132  1.00  0.00     0.050 A 
HETATM   22  C   UNL     1     -41.113  58.474 -50.877  1.00  0.00     0.023 A 
ENDBRANCH  15  18
ENDBRANCH   1  15
TORSDOF 3
ENDMDL
MODEL 4
REMARK VINA RESULT:      -7.4      3.091      3.673
REMARK  3 active torsions:
REMARK  status: ('A' for Active; 'I' for Inactive)
REMARK    1  A    between atoms: C_3  and  N_4 
REMARK    2  A    between atoms: C_3  and  C_17 
REMARK       I    between atoms: N_4  and  C_5 
REMARK    3  A    between atoms: C_5  and  C_6 
ROOT
HETATM    1  N   UNL     1     -42.778  55.809 -55.300  1.00  0.00    -0.306 N 
HETATM    2  C   UNL     1     -42.329  56.112 -54.027  1.00  0.00     0.275 C 
HETATM    3  O   UNL     1     -42.480  57.192 -53.468  1.00  0.00    -0.266 OA
HETATM    4  H   UNL     1     -42.564  54.863 -55.597  1.00  0.00     0.170 HD
ENDROOT
BRANCH   2   5
HETATM    5  C   UNL     1     -41.615  54.975 -53.369  1.00  0.00     0.125 A 
HETATM    6  N   UNL     1     -41.397  53.886 -54.163  1.00  0.00    -0.243 NA
HETATM    7  C   UNL     1     -40.765  52.837 -53.608  1.00  0.00     0.068 A 
HETATM    8  C   UNL     1     -40.334  52.834 -52.261  1.00  0.00    -0.007 A 
HETATM    9  C   UNL     1     -40.522  51.705 -54.376  1.00  0.00     0.032 A 
HETATM   10  C   UNL     1     -40.579  53.974 -51.483  1.00  0.00     0.016 A 
HETATM   11  C   UNL     1     -39.680  51.711 -51.730  1.00  0.00     0.014 A 
HETATM   12  C   UNL     1     -41.230  55.067 -52.043  1.00  0.00     0.038 A 
HETATM   13  C   UNL     1     -39.450  50.589 -52.524  1.00  0.00     0.001 A 
HETATM   14  C   UNL     1     -39.871  50.586 -53.848  1.00  0.00     0.002 A 
ENDBRANCH   2   5
BRANCH   1  15
HETATM   15  C   UNL     1     -43.500  56.621 -56.135  1.00  0.00     0.133 C 
HETATM   16  N   UNL     1     -44.535  57.280 -55.748  1.00  0.00    -0.283 NA
HETATM   17  H   UNL     1     -44.687  57.084 -54.746  1.00  0.00     0.188 HD
BRANCH  15  18
HETATM   18  C   UNL     1     -43.063  56.725 -57.525  1.00  0.00     0.016 A 
HETATM   19  C   UNL     1     -42.386  57.836 -58.007  1.00  0.00     0.065 A 
HETATM   20  S   UNL     1     -41.987  57.726 -59.664  1.00  0.00    -0.113 SA
HETATM   21  C   UNL     1     -42.700  56.181 -59.784  1.00  0.00     0.050 A 
HETATM   22  C   UNL     1     -43.234  55.763 -58.583  1.00  0.00     0.023 A 
ENDBRANCH  15  18
ENDBRANCH   1  15
TORSDOF 3
ENDMDL
MODEL 5
REMARK VINA RESULT:      -7.4      2.938      3.849
REMARK  3 active torsions:
REMARK  status: ('A' for Active; 'I' for Inactive)
REMARK    1  A    between atoms: C_3  and  N_4 
REMARK    2  A    between atoms: C_3  and  C_17 
REMARK       I    between atoms: N_4  and  C_5 
REMARK    3  A    between atoms: C_5  and  C_6 
ROOT
HETATM    1  N   UNL     1     -41.027  56.831 -53.377  1.00  0.00    -0.306 N 
HETATM    2  C   UNL     1     -41.110  55.906 -54.404  1.00  0.00     0.275 C 
HETATM    3  O   UNL     1     -41.466  56.159 -55.549  1.00  0.00    -0.266 OA
HETATM    4  H   UNL     1     -40.710  56.440 -52.497  1.00  0.00     0.170 HD
ENDROOT
BRANCH   2   5
HETATM    5  C   UNL     1     -40.721  54.525 -53.984  1.00  0.00     0.125 A 
HETATM    6  N   UNL     1     -40.783  54.284 -52.641  1.00  0.00    -0.243 NA
HETATM    7  C   UNL     1     -40.433  53.057 -52.220  1.00  0.00     0.068 A 
HETATM    8  C   UNL     1     -40.013  52.039 -53.107  1.00  0.00    -0.007 A 
HETATM    9  C   UNL     1     -40.479  52.765 -50.862  1.00  0.00     0.032 A 
HETATM   10  C   UNL     1     -39.966  52.330 -54.477  1.00  0.00     0.016 A 
HETATM   11  C   UNL     1     -39.656  50.773 -52.613  1.00  0.00     0.014 A 
HETATM   12  C   UNL     1     -40.325  53.595 -54.928  1.00  0.00     0.038 A 
HETATM   13  C   UNL     1     -39.711  50.509 -51.246  1.00  0.00     0.001 A 
HETATM   14  C   UNL     1     -40.123  51.506 -50.370  1.00  0.00     0.002 A 
ENDBRANCH   2   5
BRANCH   1  15
HETATM   15  C   UNL     1     -41.273  58.176 -53.457  1.00  0.00     0.133 C 
HETATM   16  N   UNL     1     -41.395  58.800 -54.577  1.00  0.00    -0.283 NA
HETATM   17  H   UNL     1     -41.283  58.116 -55.342  1.00  0.00     0.188 HD
BRANCH  15  18
HETATM   18  C   UNL     1     -41.394  58.920 -52.206  1.00  0.00     0.016 A 
HETATM   19  C   UNL     1     -42.410  59.838 -51.985  1.00  0.00     0.065 A 
HETATM   20  S   UNL     1     -42.334  60.583 -50.451  1.00  0.00    -0.113 SA
HETATM   21  C   UNL     1     -40.943  59.690 -50.030  1.00  0.00     0.050 A 
HETATM   22  C   UNL     1     -40.545  58.845 -51.045  1.00  0.00     0.023 A 
ENDBRANCH  15  18
ENDBRANCH   1  15
TORSDOF 3
ENDMDL
MODEL 6
REMARK VINA RESULT:      -7.3      2.290      2.830
REMARK  3 active torsions:
REMARK  status: ('A' for Active; 'I' for Inactive)
REMARK    1  A    between atoms: C_3  and  N_4 
REMARK    2  A    between atoms: C_3  and  C_17 
REMARK       I    between atoms: N_4  and  C_5 
REMARK    3  A    between atoms: C_5  and  C_6 
ROOT
HETATM    1  N   UNL     1     -41.044  56.631 -51.495  1.00  0.00    -0.306 N 
HETATM    2  C   UNL     1     -41.215  55.385 -50.917  1.00  0.00     0.275 C 
HETATM    3  O   UNL     1     -41.581  55.191 -49.763  1.00  0.00    -0.266 OA
HETATM    4  H   UNL     1     -40.740  56.596 -52.462  1.00  0.00     0.170 HD
ENDROOT
BRANCH   2   5
HETATM    5  C   UNL     1     -40.902  54.257 -51.846  1.00  0.00     0.125 A 
HETATM    6  N   UNL     1     -40.484  53.105 -51.246  1.00  0.00    -0.243 NA
HETATM    7  C   UNL     1     -40.183  52.068 -52.046  1.00  0.00     0.068 A 
HETATM    8  C   UNL     1     -40.286  52.140 -53.455  1.00  0.00    -0.007 A 
HETATM    9  C   UNL     1     -39.752  50.875 -51.481  1.00  0.00     0.032 A 
HETATM   10  C   UNL     1     -40.720  53.343 -54.029  1.00  0.00     0.016 A 
HETATM   11  C   UNL     1     -39.957  51.027 -54.246  1.00  0.00     0.014 A 
HETATM   12  C   UNL     1     -41.035  54.424 -53.214  1.00  0.00     0.038 A 
HETATM   13  C   UNL     1     -39.526  49.842 -53.651  1.00  0.00     0.001 A 
HETATM   14  C   UNL     1     -39.424  49.766 -52.267  1.00  0.00     0.002 A 
ENDBRANCH   2   5
BRANCH   1  15
HETATM   15  C   UNL     1     -41.292  57.849 -50.918  1.00  0.00     0.133 C 
HETATM   16  N   UNL     1     -41.037  58.103 -49.682  1.00  0.00    -0.283 NA
HETATM   17  H   UNL     1     -40.630  57.255 -49.255  1.00  0.00     0.188 HD
BRANCH  15  18
HETATM   18  C   UNL     1     -41.877  58.892 -51.757  1.00  0.00     0.016 A 
HETATM   19  C   UNL     1     -43.041  59.557 -51.407  1.00  0.00     0.065 A 
HETATM   20  S   UNL     1     -43.530  60.727 -52.551  1.00  0.00    -0.113 SA
HETATM   21  C   UNL     1     -42.188  60.385 -53.547  1.00  0.00     0.050 A 
HETATM   22  C   UNL     1     -41.389  59.395 -53.016  1.00  0.00     0.023 A 
ENDBRANCH  15  18
ENDBRANCH   1  15
TORSDOF 3
ENDMDL
MODEL 7
REMARK VINA RESULT:      -7.3      1.614      2.498
REMARK  3 active torsions:
REMARK  status: ('A' for Active; 'I' for Inactive)
REMARK    1  A    between atoms: C_3  and  N_4 
REMARK    2  A    between atoms: C_3  and  C_17 
REMARK       I    between atoms: N_4  and  C_5 
REMARK    3  A    between atoms: C_5  and  C_6 
ROOT
HETATM    1  N   UNL     1     -42.358  55.664 -52.290  1.00  0.00    -0.306 N 
HETATM    2  C   UNL     1     -41.238  55.502 -53.088  1.00  0.00     0.275 C 
HETATM    3  O   UNL     1     -40.620  56.415 -53.624  1.00  0.00    -0.266 OA
HETATM    4  H   UNL     1     -42.734  54.794 -51.930  1.00  0.00     0.170 HD
ENDROOT
BRANCH   2   5
HETATM    5  C   UNL     1     -40.835  54.072 -53.251  1.00  0.00     0.125 A 
HETATM    6  N   UNL     1     -40.579  53.402 -52.089  1.00  0.00    -0.243 NA
HETATM    7  C   UNL     1     -40.204  52.115 -52.191  1.00  0.00     0.068 A 
HETATM    8  C   UNL     1     -40.072  51.457 -53.436  1.00  0.00    -0.007 A 
HETATM    9  C   UNL     1     -39.931  51.392 -51.037  1.00  0.00     0.032 A 
HETATM   10  C   UNL     1     -40.346  52.184 -54.603  1.00  0.00     0.016 A 
HETATM   11  C   UNL     1     -39.676  50.111 -53.487  1.00  0.00     0.014 A 
HETATM   12  C   UNL     1     -40.735  53.515 -54.514  1.00  0.00     0.038 A 
HETATM   13  C   UNL     1     -39.408  49.411 -52.312  1.00  0.00     0.001 A 
HETATM   14  C   UNL     1     -39.536  50.052 -51.085  1.00  0.00     0.002 A 
ENDBRANCH   2   5
BRANCH   1  15
HETATM   15  C   UNL     1     -42.942  56.847 -51.920  1.00  0.00     0.133 C 
HETATM   16  N   UNL     1     -42.789  57.367 -50.752  1.00  0.00    -0.283 NA
HETATM   17  H   UNL     1     -42.171  56.750 -50.201  1.00  0.00     0.188 HD
BRANCH  15  18
HETATM   18  C   UNL     1     -43.777  57.529 -52.904  1.00  0.00     0.016 A 
HETATM   19  C   UNL     1     -44.037  58.890 -52.839  1.00  0.00     0.065 A 
HETATM   20  S   UNL     1     -45.044  59.454 -54.098  1.00  0.00    -0.113 SA
HETATM   21  C   UNL     1     -45.153  57.892 -54.776  1.00  0.00     0.050 A 
HETATM   22  C   UNL     1     -44.439  56.963 -54.051  1.00  0.00     0.023 A 
ENDBRANCH  15  18
ENDBRANCH   1  15
TORSDOF 3
ENDMDL
MODEL 8
REMARK VINA RESULT:      -7.0      2.099      2.537
REMARK  3 active torsions:
REMARK  status: ('A' for Active; 'I' for Inactive)
REMARK    1  A    between atoms: C_3  and  N_4 
REMARK    2  A    between atoms: C_3  and  C_17 
REMARK       I    between atoms: N_4  and  C_5 
REMARK    3  A    between atoms: C_5  and  C_6 
ROOT
HETATM    1  N   UNL     1     -43.769  56.034 -53.444  1.00  0.00    -0.306 N 
HETATM    2  C   UNL     1     -42.988  55.273 -54.296  1.00  0.00     0.275 C 
HETATM    3  O   UNL     1     -43.014  55.340 -55.520  1.00  0.00    -0.266 OA
HETATM    4  H   UNL     1     -43.609  55.844 -52.461  1.00  0.00     0.170 HD
ENDROOT
BRANCH   2   5
HETATM    5  C   UNL     1     -42.082  54.328 -53.576  1.00  0.00     0.125 A 
HETATM    6  N   UNL     1     -41.683  53.239 -54.296  1.00  0.00    -0.243 NA
HETATM    7  C   UNL     1     -40.874  52.358 -53.682  1.00  0.00     0.068 A 
HETATM    8  C   UNL     1     -40.438  52.527 -52.348  1.00  0.00    -0.007 A 
HETATM    9  C   UNL     1     -40.443  51.233 -54.374  1.00  0.00     0.032 A 
HETATM   10  C   UNL     1     -40.871  53.661 -51.646  1.00  0.00     0.016 A 
HETATM   11  C   UNL     1     -39.594  51.576 -51.753  1.00  0.00     0.014 A 
HETATM   12  C   UNL     1     -41.708  54.581 -52.267  1.00  0.00     0.038 A 
HETATM   13  C   UNL     1     -39.178  50.456 -52.471  1.00  0.00     0.001 A 
HETATM   14  C   UNL     1     -39.602  50.285 -53.783  1.00  0.00     0.002 A 
ENDBRANCH   2   5
BRANCH   1  15
HETATM   15  C   UNL     1     -44.661  57.013 -53.796  1.00  0.00     0.133 C 
HETATM   16  N   UNL     1     -45.450  56.911 -54.808  1.00  0.00    -0.283 NA
HETATM   17  H   UNL     1     -45.282  55.996 -55.258  1.00  0.00     0.188 HD
BRANCH  15  18
HETATM   18  C   UNL     1     -44.699  58.223 -52.979  1.00  0.00     0.016 A 
HETATM   19  C   UNL     1     -45.139  59.440 -53.477  1.00  0.00     0.065 A 
HETATM   20  S   UNL     1     -45.083  60.706 -52.333  1.00  0.00    -0.113 SA
HETATM   21  C   UNL     1     -44.478  59.659 -51.130  1.00  0.00     0.050 A 
HETATM   22  C   UNL     1     -44.319  58.372 -51.597  1.00  0.00     0.023 A 
ENDBRANCH  15  18
ENDBRANCH   1  15
TORSDOF 3
ENDMDL
MODEL 9
REMARK VINA RESULT:      -7.0     15.788     17.024
REMARK  3 active torsions:
REMARK  status: ('A' for Active; 'I' for Inactive)
REMARK    1  A    between atoms: C_3  and  N_4 
REMARK    2  A    between atoms: C_3  and  C_17 
REMARK       I    between atoms: N_4  and  C_5 
REMARK    3  A    between atoms: C_5  and  C_6 
ROOT
HETATM    1  N   UNL     1     -36.161  40.560 -52.673  1.00  0.00    -0.306 N 
HETATM    2  C   UNL     1     -35.889  41.794 -53.238  1.00  0.00     0.275 C 
HETATM    3  O   UNL     1     -35.570  42.798 -52.612  1.00  0.00    -0.266 OA
HETATM    4  H   UNL     1     -36.406  39.844 -53.348  1.00  0.00     0.170 HD
ENDROOT
BRANCH   2   5
HETATM    5  C   UNL     1     -36.027  41.802 -54.727  1.00  0.00     0.125 A 
HETATM    6  N   UNL     1     -37.092  41.101 -55.217  1.00  0.00    -0.243 NA
HETATM    7  C   UNL     1     -37.248  41.075 -56.552  1.00  0.00     0.068 A 
HETATM    8  C   UNL     1     -36.362  41.735 -57.435  1.00  0.00    -0.007 A 
HETATM    9  C   UNL     1     -38.315  40.374 -57.099  1.00  0.00     0.032 A 
HETATM   10  C   UNL     1     -35.284  42.443 -56.887  1.00  0.00     0.016 A 
HETATM   11  C   UNL     1     -36.570  41.675 -58.823  1.00  0.00     0.014 A 
HETATM   12  C   UNL     1     -35.109  42.480 -55.509  1.00  0.00     0.038 A 
HETATM   13  C   UNL     1     -37.650  40.963 -59.343  1.00  0.00     0.001 A 
HETATM   14  C   UNL     1     -38.523  40.312 -58.480  1.00  0.00     0.002 A 
ENDBRANCH   2   5
BRANCH   1  15
HETATM   15  C   UNL     1     -36.079  40.225 -51.347  1.00  0.00     0.133 C 
HETATM   16  N   UNL     1     -37.095  40.242 -50.556  1.00  0.00    -0.283 NA
HETATM   17  H   UNL     1     -37.923  40.533 -51.100  1.00  0.00     0.188 HD
BRANCH  15  18
HETATM   18  C   UNL     1     -34.771  39.841 -50.823  1.00  0.00     0.016 A 
HETATM   19  C   UNL     1     -34.416  38.516 -50.618  1.00  0.00     0.065 A 
HETATM   20  S   UNL     1     -32.838  38.322 -49.993  1.00  0.00    -0.113 SA
HETATM   21  C   UNL     1     -32.578  40.008 -49.990  1.00  0.00     0.050 A 
HETATM   22  C   UNL     1     -33.676  40.701 -50.453  1.00  0.00     0.023 A 
ENDBRANCH  15  18
ENDBRANCH   1  15
TORSDOF 3
ENDMDL
MODEL 10
REMARK VINA RESULT:      -6.9      4.470      5.814
REMARK  3 active torsions:
REMARK  status: ('A' for Active; 'I' for Inactive)
REMARK    1  A    between atoms: C_3  and  N_4 
REMARK    2  A    between atoms: C_3  and  C_17 
REMARK       I    between atoms: N_4  and  C_5 
REMARK    3  A    between atoms: C_5  and  C_6 
ROOT
HETATM    1  N   UNL     1     -42.481  55.759 -58.027  1.00  0.00    -0.306 N 
HETATM    2  C   UNL     1     -42.483  56.501 -56.859  1.00  0.00     0.275 C 
HETATM    3  O   UNL     1     -42.699  57.706 -56.793  1.00  0.00    -0.266 OA
HETATM    4  H   UNL     1     -42.286  54.774 -57.887  1.00  0.00     0.170 HD
ENDROOT
BRANCH   2   5
HETATM    5  C   UNL     1     -42.186  55.684 -55.642  1.00  0.00     0.125 A 
HETATM    6  N   UNL     1     -42.872  56.042 -54.518  1.00  0.00    -0.243 NA
HETATM    7  C   UNL     1     -42.628  55.338 -53.399  1.00  0.00     0.068 A 
HETATM    8  C   UNL     1     -41.706  54.267 -53.359  1.00  0.00    -0.007 A 
HETATM    9  C   UNL     1     -43.301  55.666 -52.228  1.00  0.00     0.032 A 
HETATM   10  C   UNL     1     -41.025  53.934 -54.539  1.00  0.00     0.016 A 
HETATM   11  C   UNL     1     -41.487  53.565 -52.163  1.00  0.00     0.014 A 
HETATM   12  C   UNL     1     -41.266  54.652 -55.703  1.00  0.00     0.038 A 
HETATM   13  C   UNL     1     -42.175  53.917 -51.004  1.00  0.00     0.001 A 
HETATM   14  C   UNL     1     -43.084  54.968 -51.036  1.00  0.00     0.002 A 
ENDBRANCH   2   5
BRANCH   1  15
HETATM   15  C   UNL     1     -42.760  56.210 -59.291  1.00  0.00     0.133 C 
HETATM   16  N   UNL     1     -41.845  56.530 -60.137  1.00  0.00    -0.283 NA
HETATM   17  H   UNL     1     -40.925  56.377 -59.693  1.00  0.00     0.188 HD
BRANCH  15  18
HETATM   18  C   UNL     1     -44.164  56.332 -59.673  1.00  0.00     0.016 A 
HETATM   19  C   UNL     1     -44.873  57.514 -59.519  1.00  0.00     0.065 A 
HETATM   20  S   UNL     1     -46.498  57.407 -60.032  1.00  0.00    -0.113 SA
HETATM   21  C   UNL     1     -46.299  55.775 -60.488  1.00  0.00     0.050 A 
HETATM   22  C   UNL     1     -45.018  55.325 -60.248  1.00  0.00     0.023 A 
ENDBRANCH  15  18
ENDBRANCH   1  15
TORSDOF 3
ENDMDL
