MODEL 1
REMARK VINA RESULT:      -7.3      0.000      0.000
REMARK  10 active torsions:
REMARK  status: ('A' for Active; 'I' for Inactive)
REMARK    1  A    between atoms: C_2  and  N_3 
REMARK    2  A    between atoms: N_7  and  C_8 
REMARK    3  A    between atoms: C_8  and  C_9 
REMARK    4  A    between atoms: C_9  and  N_10 
REMARK    5  A    between atoms: N_10  and  C_11 
REMARK    6  A    between atoms: C_13  and  C_14 
REMARK    7  A    between atoms: C_14  and  N_15 
REMARK    8  A    between atoms: C_23  and  C_24 
REMARK    9  A    between atoms: C_24  and  O_25 
REMARK   10  A    between atoms: O_25  and  C_26 
ROOT
HETATM    1  C   UNL     1     -43.418  55.913 -53.904  1.00  0.00     0.139 A 
HETATM    2  N   UNL     1     -43.572  56.507 -55.116  1.00  0.00    -0.214 NA
HETATM    3  C   UNL     1     -42.788  56.139 -56.142  1.00  0.00     0.155 A 
HETATM    4  N   UNL     1     -41.819  55.217 -56.108  1.00  0.00    -0.224 NA
HETATM    5  C   UNL     1     -41.667  54.663 -54.895  1.00  0.00     0.115 A 
HETATM    6  C   UNL     1     -42.400  54.940 -53.753  1.00  0.00     0.053 A 
HETATM    7  S   UNL     1     -40.472  53.491 -54.660  1.00  0.00    -0.063 SA
HETATM    8  C   UNL     1     -40.831  53.336 -52.992  1.00  0.00     0.089 A 
HETATM    9  C   UNL     1     -41.888  54.173 -52.620  1.00  0.00    -0.022 A 
HETATM   10  C   UNL     1     -42.418  54.300 -51.221  1.00  0.00     0.051 C 
ENDROOT
BRANCH   1  11
HETATM   11  N   UNL     1     -44.242  56.300 -52.857  1.00  0.00    -0.372 N 
HETATM   12  H   UNL     1     -44.805  55.552 -52.462  1.00  0.00     0.161 HD
BRANCH  11  13
HETATM   13  C   UNL     1     -44.867  57.612 -52.909  1.00  0.00     0.156 C 
BRANCH  13  14
HETATM   14  C   UNL     1     -44.353  58.546 -51.760  1.00  0.00     0.236 C 
HETATM   15  C   UNL     1     -45.532  58.850 -50.814  1.00  0.00     0.044 C 
BRANCH  14  16
HETATM   16  N   UNL     1     -43.668  59.781 -52.258  1.00  0.00     0.097 N 
HETATM   17  C   UNL     1     -42.619  59.495 -53.266  1.00  0.00     0.300 C 
HETATM   18  C   UNL     1     -41.343  58.812 -52.716  1.00  0.00     0.265 C 
HETATM   19  N   UNL     1     -40.755  59.597 -51.552  1.00  0.00    -0.068 N 
HETATM   20  H   UNL     1     -40.404  60.486 -51.936  1.00  0.00     0.280 HD
HETATM   21  C   UNL     1     -41.817  59.968 -50.517  1.00  0.00     0.265 C 
HETATM   22  C   UNL     1     -43.046  60.609 -51.196  1.00  0.00     0.300 C 
BRANCH  19  23
HETATM   23  C   UNL     1     -39.588  58.900 -50.880  1.00  0.00     0.230 C 
HETATM   24  C   UNL     1     -38.672  59.889 -50.186  1.00  0.00     0.034 C 
ENDBRANCH  19  23
ENDBRANCH  14  16
ENDBRANCH  13  14
ENDBRANCH  11  13
ENDBRANCH   1  11
BRANCH   3  25
HETATM   25  C   UNL     1     -42.991  56.827 -57.482  1.00  0.00     0.314 C 
BRANCH  25  26
HETATM   26  N   UNL     1     -44.244  56.370 -58.233  1.00  0.00    -0.072 N 
HETATM   27  H   UNL     1     -44.776  55.832 -57.528  1.00  0.00     0.279 HD
HETATM   28  C   UNL     1     -45.130  57.513 -58.633  1.00  0.00     0.269 C 
HETATM   29  C   UNL     1     -43.932  55.460 -59.377  1.00  0.00     0.269 C 
ENDBRANCH  25  26
ENDBRANCH   3  25
BRANCH   8  30
HETATM   30  C   UNL     1     -40.066  52.412 -52.156  1.00  0.00     0.300 C 
HETATM   31  O   UNL     1     -40.095  52.390 -50.931  1.00  0.00    -0.259 OA
BRANCH  30  32
HETATM   32  O   UNL     1     -39.285  51.590 -52.916  1.00  0.00    -0.317 OA
BRANCH  32  33
HETATM   33  C   UNL     1     -39.686  50.214 -52.999  1.00  0.00     0.174 C 
HETATM   34  C   UNL     1     -39.785  49.797 -54.455  1.00  0.00     0.034 C 
ENDBRANCH  32  33
ENDBRANCH  30  32
ENDBRANCH   8  30
TORSDOF 10
ENDMDL
MODEL 2
REMARK VINA RESULT:      -7.1      2.299      6.546
REMARK  10 active torsions:
REMARK  status: ('A' for Active; 'I' for Inactive)
REMARK    1  A    between atoms: C_2  and  N_3 
REMARK    2  A    between atoms: N_7  and  C_8 
REMARK    3  A    between atoms: C_8  and  C_9 
REMARK    4  A    between atoms: C_9  and  N_10 
REMARK    5  A    between atoms: N_10  and  C_11 
REMARK    6  A    between atoms: C_13  and  C_14 
REMARK    7  A    between atoms: C_14  and  N_15 
REMARK    8  A    between atoms: C_23  and  C_24 
REMARK    9  A    between atoms: C_24  and  O_25 
REMARK   10  A    between atoms: O_25  and  C_26 
ROOT
HETATM    1  C   UNL     1     -44.559  57.090 -54.321  1.00  0.00     0.139 A 
HETATM    2  N   UNL     1     -45.119  57.793 -53.303  1.00  0.00    -0.214 NA
HETATM    3  C   UNL     1     -44.611  57.692 -52.065  1.00  0.00     0.155 A 
HETATM    4  N   UNL     1     -43.571  56.936 -51.695  1.00  0.00    -0.224 NA
HETATM    5  C   UNL     1     -43.050  56.229 -52.710  1.00  0.00     0.115 A 
HETATM    6  C   UNL     1     -43.466  56.236 -54.031  1.00  0.00     0.053 A 
HETATM    7  S   UNL     1     -41.740  55.200 -52.422  1.00  0.00    -0.063 SA
HETATM    8  C   UNL     1     -41.701  54.656 -54.046  1.00  0.00     0.089 A 
HETATM    9  C   UNL     1     -42.684  55.285 -54.816  1.00  0.00    -0.022 A 
HETATM   10  C   UNL     1     -42.935  54.998 -56.269  1.00  0.00     0.051 C 
ENDROOT
BRANCH   1  11
HETATM   11  N   UNL     1     -45.092  57.212 -55.596  1.00  0.00    -0.372 N 
HETATM   12  H   UNL     1     -45.052  56.364 -56.155  1.00  0.00     0.161 HD
BRANCH  11  13
HETATM   13  C   UNL     1     -44.905  58.462 -56.314  1.00  0.00     0.156 C 
BRANCH  13  14
HETATM   14  C   UNL     1     -43.892  58.304 -57.500  1.00  0.00     0.236 C 
HETATM   15  C   UNL     1     -42.531  58.879 -57.058  1.00  0.00     0.044 C 
BRANCH  14  16
HETATM   16  N   UNL     1     -44.385  58.890 -58.787  1.00  0.00     0.097 N 
HETATM   17  C   UNL     1     -45.779  58.498 -59.105  1.00  0.00     0.300 C 
HETATM   18  C   UNL     1     -45.972  57.018 -59.515  1.00  0.00     0.265 C 
HETATM   19  N   UNL     1     -45.044  56.636 -60.659  1.00  0.00    -0.068 N 
HETATM   20  H   UNL     1     -45.360  57.158 -61.489  1.00  0.00     0.280 HD
HETATM   21  C   UNL     1     -43.604  57.080 -60.400  1.00  0.00     0.265 C 
HETATM   22  C   UNL     1     -43.554  58.560 -59.970  1.00  0.00     0.300 C 
BRANCH  19  23
HETATM   23  C   UNL     1     -45.085  55.161 -61.007  1.00  0.00     0.230 C 
HETATM   24  C   UNL     1     -44.623  54.301 -59.846  1.00  0.00     0.034 C 
ENDBRANCH  19  23
ENDBRANCH  14  16
ENDBRANCH  13  14
ENDBRANCH  11  13
ENDBRANCH   1  11
BRANCH   3  25
HETATM   25  C   UNL     1     -45.266  58.495 -50.952  1.00  0.00     0.314 C 
BRANCH  25  26
HETATM   26  N   UNL     1     -44.415  59.661 -50.443  1.00  0.00    -0.072 N 
HETATM   27  H   UNL     1     -43.674  59.205 -49.885  1.00  0.00     0.279 HD
HETATM   28  C   UNL     1     -43.708  60.390 -51.548  1.00  0.00     0.269 C 
HETATM   29  C   UNL     1     -45.176  60.582 -49.545  1.00  0.00     0.269 C 
ENDBRANCH  25  26
ENDBRANCH   3  25
BRANCH   8  30
HETATM   30  C   UNL     1     -40.717  53.658 -54.465  1.00  0.00     0.300 C 
HETATM   31  O   UNL     1     -39.771  53.880 -55.211  1.00  0.00    -0.259 OA
BRANCH  30  32
HETATM   32  O   UNL     1     -41.006  52.431 -53.941  1.00  0.00    -0.317 OA
BRANCH  32  33
HETATM   33  C   UNL     1     -39.891  51.574 -53.654  1.00  0.00     0.174 C 
HETATM   34  C   UNL     1     -40.084  50.235 -54.341  1.00  0.00     0.034 C 
ENDBRANCH  32  33
ENDBRANCH  30  32
ENDBRANCH   8  30
TORSDOF 10
ENDMDL
MODEL 3
REMARK VINA RESULT:      -6.9      1.851      6.373
REMARK  10 active torsions:
REMARK  status: ('A' for Active; 'I' for Inactive)
REMARK    1  A    between atoms: C_2  and  N_3 
REMARK    2  A    between atoms: N_7  and  C_8 
REMARK    3  A    between atoms: C_8  and  C_9 
REMARK    4  A    between atoms: C_9  and  N_10 
REMARK    5  A    between atoms: N_10  and  C_11 
REMARK    6  A    between atoms: C_13  and  C_14 
REMARK    7  A    between atoms: C_14  and  N_15 
REMARK    8  A    between atoms: C_23  and  C_24 
REMARK    9  A    between atoms: C_24  and  O_25 
REMARK   10  A    between atoms: O_25  and  C_26 
ROOT
HETATM    1  C   UNL     1     -41.641  56.674 -53.569  1.00  0.00     0.139 A 
HETATM    2  N   UNL     1     -41.996  57.893 -53.085  1.00  0.00    -0.214 NA
HETATM    3  C   UNL     1     -41.924  58.132 -51.767  1.00  0.00     0.155 A 
HETATM    4  N   UNL     1     -41.533  57.267 -50.824  1.00  0.00    -0.224 NA
HETATM    5  C   UNL     1     -41.213  56.062 -51.321  1.00  0.00     0.115 A 
HETATM    6  C   UNL     1     -41.237  55.674 -52.650  1.00  0.00     0.053 A 
HETATM    7  S   UNL     1     -40.717  54.834 -50.271  1.00  0.00    -0.063 SA
HETATM    8  C   UNL     1     -40.568  53.692 -51.540  1.00  0.00     0.089 A 
HETATM    9  C   UNL     1     -40.879  54.264 -52.777  1.00  0.00    -0.022 A 
HETATM   10  C   UNL     1     -40.882  53.517 -54.080  1.00  0.00     0.051 C 
ENDROOT
BRANCH   1  11
HETATM   11  N   UNL     1     -41.715  56.447 -54.936  1.00  0.00    -0.372 N 
HETATM   12  H   UNL     1     -40.838  56.164 -55.366  1.00  0.00     0.161 HD
BRANCH  11  13
HETATM   13  C   UNL     1     -42.576  57.298 -55.740  1.00  0.00     0.156 C 
BRANCH  13  14
HETATM   14  C   UNL     1     -43.174  56.526 -56.966  1.00  0.00     0.236 C 
HETATM   15  C   UNL     1     -42.957  55.015 -56.744  1.00  0.00     0.044 C 
BRANCH  14  16
HETATM   16  N   UNL     1     -42.650  57.005 -58.285  1.00  0.00     0.097 N 
HETATM   17  C   UNL     1     -43.045  58.400 -58.593  1.00  0.00     0.300 C 
HETATM   18  C   UNL     1     -44.543  58.604 -58.928  1.00  0.00     0.265 C 
HETATM   19  N   UNL     1     -44.990  57.671 -60.045  1.00  0.00    -0.068 N 
HETATM   20  H   UNL     1     -44.508  57.977 -60.903  1.00  0.00     0.280 HD
HETATM   21  C   UNL     1     -44.547  56.229 -59.799  1.00  0.00     0.265 C 
HETATM   22  C   UNL     1     -43.047  56.168 -59.444  1.00  0.00     0.300 C 
BRANCH  19  23
HETATM   23  C   UNL     1     -46.481  57.724 -60.318  1.00  0.00     0.230 C 
HETATM   24  C   UNL     1     -47.085  56.335 -60.382  1.00  0.00     0.034 C 
ENDBRANCH  19  23
ENDBRANCH  14  16
ENDBRANCH  13  14
ENDBRANCH  11  13
ENDBRANCH   1  11
BRANCH   3  25
HETATM   25  C   UNL     1     -42.329  59.509 -51.264  1.00  0.00     0.314 C 
BRANCH  25  26
HETATM   26  N   UNL     1     -43.650  59.525 -50.491  1.00  0.00    -0.072 N 
HETATM   27  H   UNL     1     -43.460  58.942 -49.659  1.00  0.00     0.279 HD
HETATM   28  C   UNL     1     -43.999  60.888 -49.967  1.00  0.00     0.269 C 
HETATM   29  C   UNL     1     -44.773  58.900 -51.253  1.00  0.00     0.269 C 
ENDBRANCH  25  26
ENDBRANCH   3  25
BRANCH   8  30
HETATM   30  C   UNL     1     -40.156  52.319 -51.250  1.00  0.00     0.300 C 
HETATM   31  O   UNL     1     -40.396  51.723 -50.207  1.00  0.00    -0.259 OA
BRANCH  30  32
HETATM   32  O   UNL     1     -39.437  51.791 -52.284  1.00  0.00    -0.317 OA
BRANCH  32  33
HETATM   33  C   UNL     1     -39.542  50.374 -52.485  1.00  0.00     0.174 C 
HETATM   34  C   UNL     1     -39.684  50.077 -53.966  1.00  0.00     0.034 C 
ENDBRANCH  32  33
ENDBRANCH  30  32
ENDBRANCH   8  30
TORSDOF 10
ENDMDL
MODEL 4
REMARK VINA RESULT:      -6.8      3.906      7.068
REMARK  10 active torsions:
REMARK  status: ('A' for Active; 'I' for Inactive)
REMARK    1  A    between atoms: C_2  and  N_3 
REMARK    2  A    between atoms: N_7  and  C_8 
REMARK    3  A    between atoms: C_8  and  C_9 
REMARK    4  A    between atoms: C_9  and  N_10 
REMARK    5  A    between atoms: N_10  and  C_11 
REMARK    6  A    between atoms: C_13  and  C_14 
REMARK    7  A    between atoms: C_14  and  N_15 
REMARK    8  A    between atoms: C_23  and  C_24 
REMARK    9  A    between atoms: C_24  and  O_25 
REMARK   10  A    between atoms: O_25  and  C_26 
ROOT
HETATM    1  C   UNL     1     -43.897  56.466 -53.890  1.00  0.00     0.139 A 
HETATM    2  N   UNL     1     -43.491  56.005 -55.102  1.00  0.00    -0.214 NA
HETATM    3  C   UNL     1     -43.556  56.808 -56.175  1.00  0.00     0.155 A 
HETATM    4  N   UNL     1     -44.004  58.068 -56.196  1.00  0.00    -0.224 NA
HETATM    5  C   UNL     1     -44.425  58.494 -54.995  1.00  0.00     0.115 A 
HETATM    6  C   UNL     1     -44.415  57.782 -53.807  1.00  0.00     0.053 A 
HETATM    7  S   UNL     1     -45.044  60.058 -54.837  1.00  0.00    -0.063 SA
HETATM    8  C   UNL     1     -45.395  59.843 -53.173  1.00  0.00     0.089 A 
HETATM    9  C   UNL     1     -45.013  58.572 -52.734  1.00  0.00    -0.022 A 
HETATM   10  C   UNL     1     -45.221  58.059 -51.338  1.00  0.00     0.051 C 
ENDROOT
BRANCH   1  11
HETATM   11  N   UNL     1     -43.817  55.624 -52.790  1.00  0.00    -0.372 N 
HETATM   12  H   UNL     1     -43.550  56.084 -51.924  1.00  0.00     0.161 HD
BRANCH  11  13
HETATM   13  C   UNL     1     -43.310  54.275 -52.979  1.00  0.00     0.156 C 
BRANCH  13  14
HETATM   14  C   UNL     1     -42.369  53.838 -51.803  1.00  0.00     0.236 C 
HETATM   15  C   UNL     1     -42.904  54.457 -50.496  1.00  0.00     0.044 C 
BRANCH  14  16
HETATM   16  N   UNL     1     -40.925  54.147 -52.050  1.00  0.00     0.097 N 
HETATM   17  C   UNL     1     -40.505  53.874 -53.446  1.00  0.00     0.300 C 
HETATM   18  C   UNL     1     -40.419  52.377 -53.829  1.00  0.00     0.265 C 
HETATM   19  N   UNL     1     -39.539  51.607 -52.854  1.00  0.00    -0.068 N 
HETATM   20  H   UNL     1     -38.576  51.945 -52.988  1.00  0.00     0.280 HD
HETATM   21  C   UNL     1     -39.898  51.909 -51.399  1.00  0.00     0.265 C 
HETATM   22  C   UNL     1     -39.982  53.430 -51.158  1.00  0.00     0.300 C 
BRANCH  19  23
HETATM   23  C   UNL     1     -39.535  50.110 -53.095  1.00  0.00     0.230 C 
HETATM   24  C   UNL     1     -39.774  49.780 -54.556  1.00  0.00     0.034 C 
ENDBRANCH  19  23
ENDBRANCH  14  16
ENDBRANCH  13  14
ENDBRANCH  11  13
ENDBRANCH   1  11
BRANCH   3  25
HETATM   25  C   UNL     1     -43.092  56.255 -57.514  1.00  0.00     0.314 C 
BRANCH  25  26
HETATM   26  N   UNL     1     -43.569  57.066 -58.721  1.00  0.00    -0.072 N 
HETATM   27  H   UNL     1     -44.040  57.886 -58.301  1.00  0.00     0.279 HD
HETATM   28  C   UNL     1     -42.435  57.616 -59.536  1.00  0.00     0.269 C 
HETATM   29  C   UNL     1     -44.568  56.329 -59.553  1.00  0.00     0.269 C 
ENDBRANCH  25  26
ENDBRANCH   3  25
BRANCH   8  30
HETATM   30  C   UNL     1     -46.014  60.923 -52.405  1.00  0.00     0.300 C 
HETATM   31  O   UNL     1     -47.217  61.151 -52.365  1.00  0.00    -0.259 OA
BRANCH  30  32
HETATM   32  O   UNL     1     -45.073  61.671 -51.759  1.00  0.00    -0.317 OA
BRANCH  32  33
HETATM   33  C   UNL     1     -45.288  61.910 -50.360  1.00  0.00     0.174 C 
HETATM   34  C   UNL     1     -44.216  61.206 -49.550  1.00  0.00     0.034 C 
ENDBRANCH  32  33
ENDBRANCH  30  32
ENDBRANCH   8  30
TORSDOF 10
ENDMDL
MODEL 5
REMARK VINA RESULT:      -6.6      1.481      2.083
REMARK  10 active torsions:
REMARK  status: ('A' for Active; 'I' for Inactive)
REMARK    1  A    between atoms: C_2  and  N_3 
REMARK    2  A    between atoms: N_7  and  C_8 
REMARK    3  A    between atoms: C_8  and  C_9 
REMARK    4  A    between atoms: C_9  and  N_10 
REMARK    5  A    between atoms: N_10  and  C_11 
REMARK    6  A    between atoms: C_13  and  C_14 
REMARK    7  A    between atoms: C_14  and  N_15 
REMARK    8  A    between atoms: C_23  and  C_24 
REMARK    9  A    between atoms: C_24  and  O_25 
REMARK   10  A    between atoms: O_25  and  C_26 
ROOT
HETATM    1  C   UNL     1     -43.797  56.119 -54.356  1.00  0.00     0.139 A 
HETATM    2  N   UNL     1     -43.800  56.358 -55.693  1.00  0.00    -0.214 NA
HETATM    3  C   UNL     1     -42.879  55.775 -56.476  1.00  0.00     0.155 A 
HETATM    4  N   UNL     1     -41.904  54.952 -56.074  1.00  0.00    -0.224 NA
HETATM    5  C   UNL     1     -41.902  54.751 -54.746  1.00  0.00     0.115 A 
HETATM    6  C   UNL     1     -42.787  55.281 -53.822  1.00  0.00     0.053 A 
HETATM    7  S   UNL     1     -40.725  53.754 -54.057  1.00  0.00    -0.063 SA
HETATM    8  C   UNL     1     -41.299  54.031 -52.467  1.00  0.00     0.089 A 
HETATM    9  C   UNL     1     -42.415  54.874 -52.469  1.00  0.00    -0.022 A 
HETATM   10  C   UNL     1     -43.128  55.340 -51.233  1.00  0.00     0.051 C 
ENDROOT
BRANCH   1  11
HETATM   11  N   UNL     1     -44.761  56.724 -53.563  1.00  0.00    -0.372 N 
HETATM   12  H   UNL     1     -45.536  56.120 -53.303  1.00  0.00     0.161 HD
BRANCH  11  13
HETATM   13  C   UNL     1     -45.092  58.118 -53.807  1.00  0.00     0.156 C 
BRANCH  13  14
HETATM   14  C   UNL     1     -44.565  59.049 -52.661  1.00  0.00     0.236 C 
HETATM   15  C   UNL     1     -45.777  59.589 -51.875  1.00  0.00     0.044 C 
BRANCH  14  16
HETATM   16  N   UNL     1     -43.652  60.133 -53.148  1.00  0.00     0.097 N 
HETATM   17  C   UNL     1     -42.530  59.620 -53.969  1.00  0.00     0.300 C 
HETATM   18  C   UNL     1     -41.448  58.832 -53.192  1.00  0.00     0.265 C 
HETATM   19  N   UNL     1     -40.914  59.639 -52.018  1.00  0.00    -0.068 N 
HETATM   20  H   UNL     1     -40.394  60.435 -52.412  1.00  0.00     0.280 HD
HETATM   21  C   UNL     1     -42.041  60.241 -51.177  1.00  0.00     0.265 C 
HETATM   22  C   UNL     1     -43.065  60.969 -52.072  1.00  0.00     0.300 C 
BRANCH  19  23
HETATM   23  C   UNL     1     -39.957  58.863 -51.134  1.00  0.00     0.230 C 
HETATM   24  C   UNL     1     -40.679  57.800 -50.329  1.00  0.00     0.034 C 
ENDBRANCH  19  23
ENDBRANCH  14  16
ENDBRANCH  13  14
ENDBRANCH  11  13
ENDBRANCH   1  11
BRANCH   3  25
HETATM   25  C   UNL     1     -42.916  56.067 -57.967  1.00  0.00     0.314 C 
BRANCH  25  26
HETATM   26  N   UNL     1     -44.036  57.022 -58.387  1.00  0.00    -0.072 N 
HETATM   27  H   UNL     1     -44.612  57.122 -57.534  1.00  0.00     0.279 HD
HETATM   28  C   UNL     1     -43.534  58.399 -58.709  1.00  0.00     0.269 C 
HETATM   29  C   UNL     1     -44.900  56.459 -59.469  1.00  0.00     0.269 C 
ENDBRANCH  25  26
ENDBRANCH   3  25
BRANCH   8  30
HETATM   30  C   UNL     1     -40.632  53.408 -51.324  1.00  0.00     0.300 C 
HETATM   31  O   UNL     1     -40.715  52.222 -51.028  1.00  0.00    -0.259 OA
BRANCH  30  32
HETATM   32  O   UNL     1     -39.926  54.327 -50.604  1.00  0.00    -0.317 OA
BRANCH  32  33
HETATM   33  C   UNL     1     -39.733  54.044 -49.210  1.00  0.00     0.174 C 
HETATM   34  C   UNL     1     -40.889  54.612 -48.407  1.00  0.00     0.034 C 
ENDBRANCH  32  33
ENDBRANCH  30  32
ENDBRANCH   8  30
TORSDOF 10
ENDMDL
MODEL 6
REMARK VINA RESULT:      -6.4      2.247      6.067
REMARK  10 active torsions:
REMARK  status: ('A' for Active; 'I' for Inactive)
REMARK    1  A    between atoms: C_2  and  N_3 
REMARK    2  A    between atoms: N_7  and  C_8 
REMARK    3  A    between atoms: C_8  and  C_9 
REMARK    4  A    between atoms: C_9  and  N_10 
REMARK    5  A    between atoms: N_10  and  C_11 
REMARK    6  A    between atoms: C_13  and  C_14 
REMARK    7  A    between atoms: C_14  and  N_15 
REMARK    8  A    between atoms: C_23  and  C_24 
REMARK    9  A    between atoms: C_24  and  O_25 
REMARK   10  A    between atoms: O_25  and  C_26 
ROOT
HETATM    1  C   UNL     1     -44.531  57.001 -54.323  1.00  0.00     0.139 A 
HETATM    2  N   UNL     1     -45.082  57.729 -53.317  1.00  0.00    -0.214 NA
HETATM    3  C   UNL     1     -44.572  57.648 -52.079  1.00  0.00     0.155 A 
HETATM    4  N   UNL     1     -43.538  56.890 -51.696  1.00  0.00    -0.224 NA
HETATM    5  C   UNL     1     -43.026  56.159 -52.698  1.00  0.00     0.115 A 
HETATM    6  C   UNL     1     -43.445  56.143 -54.018  1.00  0.00     0.053 A 
HETATM    7  S   UNL     1     -41.725  55.124 -52.393  1.00  0.00    -0.063 SA
HETATM    8  C   UNL     1     -41.695  54.547 -54.006  1.00  0.00     0.089 A 
HETATM    9  C   UNL     1     -42.674  55.170 -54.786  1.00  0.00    -0.022 A 
HETATM   10  C   UNL     1     -42.931  54.857 -56.232  1.00  0.00     0.051 C 
ENDROOT
BRANCH   1  11
HETATM   11  N   UNL     1     -45.066  57.103 -55.598  1.00  0.00    -0.372 N 
HETATM   12  H   UNL     1     -44.818  56.342 -56.224  1.00  0.00     0.161 HD
BRANCH  11  13
HETATM   13  C   UNL     1     -45.179  58.419 -56.205  1.00  0.00     0.156 C 
BRANCH  13  14
HETATM   14  C   UNL     1     -45.001  58.358 -57.762  1.00  0.00     0.236 C 
HETATM   15  C   UNL     1     -46.333  57.893 -58.386  1.00  0.00     0.044 C 
BRANCH  14  16
HETATM   16  N   UNL     1     -43.830  57.531 -58.195  1.00  0.00     0.097 N 
HETATM   17  C   UNL     1     -42.528  58.120 -57.803  1.00  0.00     0.300 C 
HETATM   18  C   UNL     1     -42.121  59.398 -58.577  1.00  0.00     0.265 C 
HETATM   19  N   UNL     1     -42.164  59.169 -60.081  1.00  0.00    -0.068 N 
HETATM   20  H   UNL     1     -41.411  58.503 -60.306  1.00  0.00     0.280 HD
HETATM   21  C   UNL     1     -43.468  58.503 -60.522  1.00  0.00     0.265 C 
HETATM   22  C   UNL     1     -43.774  57.265 -59.654  1.00  0.00     0.300 C 
BRANCH  19  23
HETATM   23  C   UNL     1     -41.916  60.426 -60.892  1.00  0.00     0.230 C 
HETATM   24  C   UNL     1     -41.397  61.557 -60.024  1.00  0.00     0.034 C 
ENDBRANCH  19  23
ENDBRANCH  14  16
ENDBRANCH  13  14
ENDBRANCH  11  13
ENDBRANCH   1  11
BRANCH   3  25
HETATM   25  C   UNL     1     -45.217  58.479 -50.981  1.00  0.00     0.314 C 
BRANCH  25  26
HETATM   26  N   UNL     1     -44.355  59.649 -50.498  1.00  0.00    -0.072 N 
HETATM   27  H   UNL     1     -43.608  59.197 -49.944  1.00  0.00     0.279 HD
HETATM   28  C   UNL     1     -43.661  60.361 -51.622  1.00  0.00     0.269 C 
HETATM   29  C   UNL     1     -45.100  60.584 -49.602  1.00  0.00     0.269 C 
ENDBRANCH  25  26
ENDBRANCH   3  25
BRANCH   8  30
HETATM   30  C   UNL     1     -40.722  53.532 -54.407  1.00  0.00     0.300 C 
HETATM   31  O   UNL     1     -39.792  53.723 -55.182  1.00  0.00    -0.259 OA
BRANCH  30  32
HETATM   32  O   UNL     1     -40.999  52.326 -53.830  1.00  0.00    -0.317 OA
BRANCH  32  33
HETATM   33  C   UNL     1     -39.881  51.467 -53.561  1.00  0.00     0.174 C 
HETATM   34  C   UNL     1     -40.045  50.162 -54.317  1.00  0.00     0.034 C 
ENDBRANCH  32  33
ENDBRANCH  30  32
ENDBRANCH   8  30
TORSDOF 10
ENDMDL
MODEL 7
REMARK VINA RESULT:      -6.1      2.252      3.582
REMARK  10 active torsions:
REMARK  status: ('A' for Active; 'I' for Inactive)
REMARK    1  A    between atoms: C_2  and  N_3 
REMARK    2  A    between atoms: N_7  and  C_8 
REMARK    3  A    between atoms: C_8  and  C_9 
REMARK    4  A    between atoms: C_9  and  N_10 
REMARK    5  A    between atoms: N_10  and  C_11 
REMARK    6  A    between atoms: C_13  and  C_14 
REMARK    7  A    between atoms: C_14  and  N_15 
REMARK    8  A    between atoms: C_23  and  C_24 
REMARK    9  A    between atoms: C_24  and  O_25 
REMARK   10  A    between atoms: O_25  and  C_26 
ROOT
HETATM    1  C   UNL     1     -42.439  58.189 -56.983  1.00  0.00     0.139 A 
HETATM    2  N   UNL     1     -42.685  58.032 -58.310  1.00  0.00    -0.214 NA
HETATM    3  C   UNL     1     -42.996  56.818 -58.790  1.00  0.00     0.155 A 
HETATM    4  N   UNL     1     -43.089  55.686 -58.082  1.00  0.00    -0.224 NA
HETATM    5  C   UNL     1     -42.816  55.859 -56.780  1.00  0.00     0.115 A 
HETATM    6  C   UNL     1     -42.485  57.046 -56.147  1.00  0.00     0.053 A 
HETATM    7  S   UNL     1     -42.864  54.531 -55.736  1.00  0.00    -0.063 SA
HETATM    8  C   UNL     1     -42.379  55.466 -54.385  1.00  0.00     0.089 A 
HETATM    9  C   UNL     1     -42.201  56.809 -54.735  1.00  0.00    -0.022 A 
HETATM   10  C   UNL     1     -41.741  57.878 -53.786  1.00  0.00     0.051 C 
ENDROOT
BRANCH   1  11
HETATM   11  N   UNL     1     -42.126  59.452 -56.503  1.00  0.00    -0.372 N 
HETATM   12  H   UNL     1     -41.585  59.457 -55.642  1.00  0.00     0.161 HD
BRANCH  11  13
HETATM   13  C   UNL     1     -43.106  60.517 -56.647  1.00  0.00     0.156 C 
BRANCH  13  14
HETATM   14  C   UNL     1     -44.312  60.333 -55.662  1.00  0.00     0.236 C 
HETATM   15  C   UNL     1     -45.519  59.802 -56.462  1.00  0.00     0.044 C 
BRANCH  14  16
HETATM   16  N   UNL     1     -44.629  61.566 -54.873  1.00  0.00     0.097 N 
HETATM   17  C   UNL     1     -43.440  62.150 -54.208  1.00  0.00     0.300 C 
HETATM   18  C   UNL     1     -42.880  61.334 -53.018  1.00  0.00     0.265 C 
HETATM   19  N   UNL     1     -43.966  61.039 -51.992  1.00  0.00    -0.068 N 
HETATM   20  H   UNL     1     -44.226  61.939 -51.564  1.00  0.00     0.280 HD
HETATM   21  C   UNL     1     -45.236  60.493 -52.643  1.00  0.00     0.265 C 
HETATM   22  C   UNL     1     -45.668  61.377 -53.831  1.00  0.00     0.300 C 
BRANCH  19  23
HETATM   23  C   UNL     1     -43.510  60.120 -50.875  1.00  0.00     0.230 C 
HETATM   24  C   UNL     1     -42.019  60.239 -50.628  1.00  0.00     0.034 C 
ENDBRANCH  19  23
ENDBRANCH  14  16
ENDBRANCH  13  14
ENDBRANCH  11  13
ENDBRANCH   1  11
BRANCH   3  25
HETATM   25  C   UNL     1     -43.264  56.683 -60.280  1.00  0.00     0.314 C 
BRANCH  25  26
HETATM   26  N   UNL     1     -44.750  56.626 -60.643  1.00  0.00    -0.072 N 
HETATM   27  H   UNL     1     -44.826  57.229 -61.480  1.00  0.00     0.279 HD
HETATM   28  C   UNL     1     -45.189  55.259 -61.079  1.00  0.00     0.269 C 
HETATM   29  C   UNL     1     -45.627  57.196 -59.576  1.00  0.00     0.269 C 
ENDBRANCH  25  26
ENDBRANCH   3  25
BRANCH   8  30
HETATM   30  C   UNL     1     -42.206  54.837 -53.077  1.00  0.00     0.300 C 
HETATM   31  O   UNL     1     -43.103  54.661 -52.262  1.00  0.00    -0.259 OA
BRANCH  30  32
HETATM   32  O   UNL     1     -40.902  54.494 -52.862  1.00  0.00    -0.317 OA
BRANCH  32  33
HETATM   33  C   UNL     1     -40.623  53.097 -52.687  1.00  0.00     0.174 C 
HETATM   34  C   UNL     1     -40.125  52.507 -53.993  1.00  0.00     0.034 C 
ENDBRANCH  32  33
ENDBRANCH  30  32
ENDBRANCH   8  30
TORSDOF 10
ENDMDL
MODEL 8
REMARK VINA RESULT:      -6.1      2.283      3.940
REMARK  10 active torsions:
REMARK  status: ('A' for Active; 'I' for Inactive)
REMARK    1  A    between atoms: C_2  and  N_3 
REMARK    2  A    between atoms: N_7  and  C_8 
REMARK    3  A    between atoms: C_8  and  C_9 
REMARK    4  A    between atoms: C_9  and  N_10 
REMARK    5  A    between atoms: N_10  and  C_11 
REMARK    6  A    between atoms: C_13  and  C_14 
REMARK    7  A    between atoms: C_14  and  N_15 
REMARK    8  A    between atoms: C_23  and  C_24 
REMARK    9  A    between atoms: C_24  and  O_25 
REMARK   10  A    between atoms: O_25  and  C_26 
ROOT
HETATM    1  C   UNL     1     -41.824  58.735 -54.418  1.00  0.00     0.139 A 
HETATM    2  N   UNL     1     -42.015  59.111 -55.709  1.00  0.00    -0.214 NA
HETATM    3  C   UNL     1     -42.311  58.186 -56.636  1.00  0.00     0.155 A 
HETATM    4  N   UNL     1     -42.437  56.870 -56.430  1.00  0.00    -0.224 NA
HETATM    5  C   UNL     1     -42.218  56.517 -55.153  1.00  0.00     0.115 A 
HETATM    6  C   UNL     1     -41.909  57.357 -54.097  1.00  0.00     0.053 A 
HETATM    7  S   UNL     1     -42.315  54.889 -54.713  1.00  0.00    -0.063 SA
HETATM    8  C   UNL     1     -41.882  55.215 -53.087  1.00  0.00     0.089 A 
HETATM    9  C   UNL     1     -41.685  56.583 -52.879  1.00  0.00    -0.022 A 
HETATM   10  C   UNL     1     -41.261  57.190 -51.572  1.00  0.00     0.051 C 
ENDROOT
BRANCH   1  11
HETATM   11  N   UNL     1     -41.527  59.705 -53.472  1.00  0.00    -0.372 N 
HETATM   12  H   UNL     1     -41.130  59.346 -52.608  1.00  0.00     0.161 HD
BRANCH  11  13
HETATM   13  C   UNL     1     -42.415  60.848 -53.342  1.00  0.00     0.156 C 
BRANCH  13  14
HETATM   14  C   UNL     1     -43.273  60.770 -52.032  1.00  0.00     0.236 C 
HETATM   15  C   UNL     1     -42.320  60.580 -50.835  1.00  0.00     0.044 C 
BRANCH  14  16
HETATM   16  N   UNL     1     -44.355  59.735 -52.090  1.00  0.00     0.097 N 
HETATM   17  C   UNL     1     -45.137  59.785 -53.349  1.00  0.00     0.300 C 
HETATM   18  C   UNL     1     -46.074  61.009 -53.496  1.00  0.00     0.265 C 
HETATM   19  N   UNL     1     -46.999  61.144 -52.295  1.00  0.00    -0.068 N 
HETATM   20  H   UNL     1     -47.645  60.343 -52.322  1.00  0.00     0.280 HD
HETATM   21  C   UNL     1     -46.240  61.034 -50.972  1.00  0.00     0.265 C 
HETATM   22  C   UNL     1     -45.321  59.795 -50.967  1.00  0.00     0.300 C 
BRANCH  19  23
HETATM   23  C   UNL     1     -47.839  62.406 -52.316  1.00  0.00     0.230 C 
HETATM   24  C   UNL     1     -49.201  62.160 -52.935  1.00  0.00     0.034 C 
ENDBRANCH  19  23
ENDBRANCH  14  16
ENDBRANCH  13  14
ENDBRANCH  11  13
ENDBRANCH   1  11
BRANCH   3  25
HETATM   25  C   UNL     1     -42.518  58.648 -58.070  1.00  0.00     0.314 C 
BRANCH  25  26
HETATM   26  N   UNL     1     -42.961  57.536 -59.023  1.00  0.00    -0.072 N 
HETATM   27  H   UNL     1     -42.951  56.684 -58.436  1.00  0.00     0.279 HD
HETATM   28  C   UNL     1     -44.379  57.700 -59.486  1.00  0.00     0.269 C 
HETATM   29  C   UNL     1     -42.009  57.332 -60.157  1.00  0.00     0.269 C 
ENDBRANCH  25  26
ENDBRANCH   3  25
BRANCH   8  30
HETATM   30  C   UNL     1     -41.766  54.122 -52.122  1.00  0.00     0.300 C 
HETATM   31  O   UNL     1     -42.688  53.691 -51.441  1.00  0.00    -0.259 OA
BRANCH  30  32
HETATM   32  O   UNL     1     -40.484  53.659 -52.053  1.00  0.00    -0.317 OA
BRANCH  32  33
HETATM   33  C   UNL     1     -40.182  52.478 -52.811  1.00  0.00     0.174 C 
HETATM   34  C   UNL     1     -39.530  51.445 -51.911  1.00  0.00     0.034 C 
ENDBRANCH  32  33
ENDBRANCH  30  32
ENDBRANCH   8  30
TORSDOF 10
ENDMDL
MODEL 9
REMARK VINA RESULT:      -6.0     16.353     19.657
REMARK  10 active torsions:
REMARK  status: ('A' for Active; 'I' for Inactive)
REMARK    1  A    between atoms: C_2  and  N_3 
REMARK    2  A    between atoms: N_7  and  C_8 
REMARK    3  A    between atoms: C_8  and  C_9 
REMARK    4  A    between atoms: C_9  and  N_10 
REMARK    5  A    between atoms: N_10  and  C_11 
REMARK    6  A    between atoms: C_13  and  C_14 
REMARK    7  A    between atoms: C_14  and  N_15 
REMARK    8  A    between atoms: C_23  and  C_24 
REMARK    9  A    between atoms: C_24  and  O_25 
REMARK   10  A    between atoms: O_25  and  C_26 
ROOT
HETATM    1  C   UNL     1     -33.037  40.681 -55.094  1.00  0.00     0.139 A 
HETATM    2  N   UNL     1     -32.075  40.336 -55.988  1.00  0.00    -0.214 NA
HETATM    3  C   UNL     1     -31.128  39.452 -55.639  1.00  0.00     0.155 A 
HETATM    4  N   UNL     1     -31.007  38.847 -54.452  1.00  0.00    -0.224 NA
HETATM    5  C   UNL     1     -31.951  39.223 -53.575  1.00  0.00     0.115 A 
HETATM    6  C   UNL     1     -32.986  40.116 -53.795  1.00  0.00     0.053 A 
HETATM    7  S   UNL     1     -31.942  38.575 -52.014  1.00  0.00    -0.063 SA
HETATM    8  C   UNL     1     -33.292  39.510 -51.526  1.00  0.00     0.089 A 
HETATM    9  C   UNL     1     -33.764  40.306 -52.574  1.00  0.00    -0.022 A 
HETATM   10  C   UNL     1     -34.911  41.268 -52.458  1.00  0.00     0.051 C 
ENDROOT
BRANCH   1  11
HETATM   11  N   UNL     1     -34.014  41.590 -55.474  1.00  0.00    -0.372 N 
HETATM   12  H   UNL     1     -34.705  41.794 -54.757  1.00  0.00     0.161 HD
BRANCH  11  13
HETATM   13  C   UNL     1     -34.503  41.558 -56.843  1.00  0.00     0.156 C 
BRANCH  13  14
HETATM   14  C   UNL     1     -36.061  41.401 -56.899  1.00  0.00     0.236 C 
HETATM   15  C   UNL     1     -36.678  42.247 -55.767  1.00  0.00     0.044 C 
BRANCH  14  16
HETATM   16  N   UNL     1     -36.517  39.974 -56.878  1.00  0.00     0.097 N 
HETATM   17  C   UNL     1     -35.720  39.099 -57.770  1.00  0.00     0.300 C 
HETATM   18  C   UNL     1     -35.943  39.320 -59.286  1.00  0.00     0.265 C 
HETATM   19  N   UNL     1     -37.420  39.232 -59.644  1.00  0.00    -0.068 N 
HETATM   20  H   UNL     1     -37.706  38.253 -59.500  1.00  0.00     0.280 HD
HETATM   21  C   UNL     1     -38.288  40.072 -58.707  1.00  0.00     0.265 C 
HETATM   22  C   UNL     1     -37.944  39.781 -57.232  1.00  0.00     0.300 C 
BRANCH  19  23
HETATM   23  C   UNL     1     -37.714  39.583 -61.090  1.00  0.00     0.230 C 
HETATM   24  C   UNL     1     -37.269  38.482 -62.033  1.00  0.00     0.034 C 
ENDBRANCH  19  23
ENDBRANCH  14  16
ENDBRANCH  13  14
ENDBRANCH  11  13
ENDBRANCH   1  11
BRANCH   3  25
HETATM   25  C   UNL     1     -30.069  39.091 -56.669  1.00  0.00     0.314 C 
BRANCH  25  26
HETATM   26  N   UNL     1     -29.415  37.727 -56.437  1.00  0.00    -0.072 N 
HETATM   27  H   UNL     1     -29.889  37.362 -55.594  1.00  0.00     0.279 HD
HETATM   28  C   UNL     1     -29.715  36.747 -57.534  1.00  0.00     0.269 C 
HETATM   29  C   UNL     1     -27.953  37.829 -56.144  1.00  0.00     0.269 C 
ENDBRANCH  25  26
ENDBRANCH   3  25
BRANCH   8  30
HETATM   30  C   UNL     1     -33.804  39.406 -50.160  1.00  0.00     0.300 C 
HETATM   31  O   UNL     1     -34.902  38.954 -49.858  1.00  0.00    -0.259 OA
BRANCH  30  32
HETATM   32  O   UNL     1     -32.911  39.911 -49.258  1.00  0.00    -0.317 OA
BRANCH  32  33
HETATM   33  C   UNL     1     -32.311  38.973 -48.353  1.00  0.00     0.174 C 
HETATM   34  C   UNL     1     -31.165  39.638 -47.612  1.00  0.00     0.034 C 
ENDBRANCH  32  33
ENDBRANCH  30  32
ENDBRANCH   8  30
TORSDOF 10
ENDMDL
MODEL 10
REMARK VINA RESULT:      -5.9      3.787      8.003
REMARK  10 active torsions:
REMARK  status: ('A' for Active; 'I' for Inactive)
REMARK    1  A    between atoms: C_2  and  N_3 
REMARK    2  A    between atoms: N_7  and  C_8 
REMARK    3  A    between atoms: C_8  and  C_9 
REMARK    4  A    between atoms: C_9  and  N_10 
REMARK    5  A    between atoms: N_10  and  C_11 
REMARK    6  A    between atoms: C_13  and  C_14 
REMARK    7  A    between atoms: C_14  and  N_15 
REMARK    8  A    between atoms: C_23  and  C_24 
REMARK    9  A    between atoms: C_24  and  O_25 
REMARK   10  A    between atoms: O_25  and  C_26 
ROOT
HETATM    1  C   UNL     1     -43.762  56.127 -54.458  1.00  0.00     0.139 A 
HETATM    2  N   UNL     1     -43.157  55.046 -53.901  1.00  0.00    -0.214 NA
HETATM    3  C   UNL     1     -43.043  54.961 -52.566  1.00  0.00     0.155 A 
HETATM    4  N   UNL     1     -43.467  55.865 -51.676  1.00  0.00    -0.224 NA
HETATM    5  C   UNL     1     -44.037  56.936 -52.249  1.00  0.00     0.115 A 
HETATM    6  C   UNL     1     -44.224  57.158 -53.603  1.00  0.00     0.053 A 
HETATM    7  S   UNL     1     -44.613  58.192 -51.275  1.00  0.00    -0.063 SA
HETATM    8  C   UNL     1     -45.090  59.134 -52.625  1.00  0.00     0.089 A 
HETATM    9  C   UNL     1     -44.825  58.470 -53.827  1.00  0.00    -0.022 A 
HETATM   10  C   UNL     1     -45.090  59.043 -55.189  1.00  0.00     0.051 C 
ENDROOT
BRANCH   1  11
HETATM   11  N   UNL     1     -43.878  56.195 -55.839  1.00  0.00    -0.372 N 
HETATM   12  H   UNL     1     -44.484  55.489 -56.248  1.00  0.00     0.161 HD
BRANCH  11  13
HETATM   13  C   UNL     1     -42.709  56.565 -56.620  1.00  0.00     0.156 C 
BRANCH  13  14
HETATM   14  C   UNL     1     -43.092  56.944 -58.093  1.00  0.00     0.236 C 
HETATM   15  C   UNL     1     -43.376  55.644 -58.872  1.00  0.00     0.044 C 
BRANCH  14  16
HETATM   16  N   UNL     1     -42.079  57.820 -58.764  1.00  0.00     0.097 N 
HETATM   17  C   UNL     1     -41.978  59.165 -58.148  1.00  0.00     0.300 C 
HETATM   18  C   UNL     1     -43.189  60.097 -58.394  1.00  0.00     0.265 C 
HETATM   19  N   UNL     1     -43.498  60.220 -59.879  1.00  0.00    -0.068 N 
HETATM   20  H   UNL     1     -42.713  60.729 -60.309  1.00  0.00     0.280 HD
HETATM   21  C   UNL     1     -43.549  58.856 -60.568  1.00  0.00     0.265 C 
HETATM   22  C   UNL     1     -42.304  58.016 -60.217  1.00  0.00     0.300 C 
BRANCH  19  23
HETATM   23  C   UNL     1     -44.763  61.004 -60.171  1.00  0.00     0.230 C 
HETATM   24  C   UNL     1     -45.880  60.100 -60.658  1.00  0.00     0.034 C 
ENDBRANCH  19  23
ENDBRANCH  14  16
ENDBRANCH  13  14
ENDBRANCH  11  13
ENDBRANCH   1  11
BRANCH   3  25
HETATM   25  C   UNL     1     -42.360  53.735 -51.981  1.00  0.00     0.314 C 
BRANCH  25  26
HETATM   26  N   UNL     1     -40.852  53.682 -52.233  1.00  0.00    -0.072 N 
HETATM   27  H   UNL     1     -40.626  54.623 -52.599  1.00  0.00     0.279 HD
HETATM   28  C   UNL     1     -40.056  53.531 -50.970  1.00  0.00     0.269 C 
HETATM   29  C   UNL     1     -40.474  52.675 -53.271  1.00  0.00     0.269 C 
ENDBRANCH  25  26
ENDBRANCH   3  25
BRANCH   8  30
HETATM   30  C   UNL     1     -45.692  60.452 -52.428  1.00  0.00     0.300 C 
HETATM   31  O   UNL     1     -46.892  60.659 -52.296  1.00  0.00    -0.259 OA
BRANCH  30  32
HETATM   32  O   UNL     1     -44.744  61.434 -52.441  1.00  0.00    -0.317 OA
BRANCH  32  33
HETATM   33  C   UNL     1     -44.480  62.092 -51.193  1.00  0.00     0.174 C 
HETATM   34  C   UNL     1     -43.043  61.840 -50.775  1.00  0.00     0.034 C 
ENDBRANCH  32  33
ENDBRANCH  30  32
ENDBRANCH   8  30
TORSDOF 10
ENDMDL
