MODEL 1
REMARK VINA RESULT:      -7.6      0.000      0.000
REMARK  6 active torsions:
REMARK  status: ('A' for Active; 'I' for Inactive)
REMARK    1  A    between atoms: C_6  and  C_7 
REMARK    2  A    between atoms: C_7  and  N_8 
REMARK    3  A    between atoms: C_7  and  C_24 
REMARK       I    between atoms: N_8  and  C_9 
REMARK       I    between atoms: C_9  and  N_10 
REMARK    4  A    between atoms: N_10  and  C_11 
REMARK    5  A    between atoms: C_14  and  C_15 
REMARK    6  A    between atoms: C_24  and  O_25 
ROOT
HETATM    1  N   UNL     1     -42.469  56.295 -58.488  1.00  0.00    -0.331 N 
HETATM    2  C   UNL     1     -42.864  56.125 -57.179  1.00  0.00     0.321 C 
HETATM    3  N   UNL     1     -42.226  55.043 -56.619  1.00  0.00    -0.309 N 
HETATM    4  O   UNL     1     -43.675  56.864 -56.639  1.00  0.00    -0.247 OA
HETATM    5  H   UNL     1     -41.562  55.931 -58.734  1.00  0.00     0.165 HD
HETATM    6  H   UNL     1     -41.821  54.391 -57.276  1.00  0.00     0.170 HD
ENDROOT
BRANCH   1   7
HETATM    7  C   UNL     1     -42.955  57.414 -59.279  1.00  0.00     0.161 C 
BRANCH   7   8
HETATM    8  C   UNL     1     -44.249  56.943 -59.878  1.00  0.00     0.056 A 
HETATM    9  N   UNL     1     -45.428  57.643 -59.778  1.00  0.00    -0.277 N 
HETATM   10  C   UNL     1     -45.649  58.908 -59.115  1.00  0.00     0.179 C 
HETATM   11  N   UNL     1     -46.471  57.020 -60.363  1.00  0.00    -0.185 NA
HETATM   12  C   UNL     1     -45.937  55.915 -60.879  1.00  0.00     0.141 A 
HETATM   13  C   UNL     1     -44.565  55.808 -60.604  1.00  0.00     0.050 A 
ENDBRANCH   7   8
BRANCH   7  14
HETATM   14  C   UNL     1     -41.941  57.878 -60.352  1.00  0.00     0.198 C 
BRANCH  14  15
HETATM   15  O   UNL     1     -42.222  59.226 -60.750  1.00  0.00    -0.394 OA
HETATM   16  C   UNL     1     -42.064  60.132 -59.666  1.00  0.00     0.201 C 
ENDBRANCH  14  15
ENDBRANCH   7  14
ENDBRANCH   1   7
BRANCH   3  17
HETATM   17  C   UNL     1     -42.226  54.652 -55.267  1.00  0.00     0.036 A 
HETATM   18  C   UNL     1     -43.333  54.749 -54.430  1.00  0.00     0.030 A 
HETATM   19  C   UNL     1     -43.239  54.376 -53.084  1.00  0.00     0.010 A 
HETATM   20  C   UNL     1     -42.042  53.882 -52.534  1.00  0.00    -0.054 A 
HETATM   21  C   UNL     1     -40.933  53.809 -53.384  1.00  0.00     0.010 A 
HETATM   22  C   UNL     1     -41.024  54.185 -54.731  1.00  0.00     0.030 A 
BRANCH  20  23
HETATM   23  C   UNL     1     -42.002  53.520 -51.049  1.00  0.00     0.018 C 
HETATM   24  C   UNL     1     -40.764  52.676 -50.674  1.00  0.00     0.009 C 
HETATM   25  C   UNL     1     -39.494  53.515 -50.552  1.00  0.00     0.001 C 
HETATM   26  C   UNL     1     -39.666  54.627 -49.525  1.00  0.00     0.000 C 
HETATM   27  C   UNL     1     -40.869  55.504 -49.849  1.00  0.00     0.001 C 
HETATM   28  C   UNL     1     -42.148  54.684 -50.043  1.00  0.00     0.009 C 
ENDBRANCH  20  23
ENDBRANCH   3  17
TORSDOF 6
ENDMDL
MODEL 2
REMARK VINA RESULT:      -7.3      3.358      9.239
REMARK  6 active torsions:
REMARK  status: ('A' for Active; 'I' for Inactive)
REMARK    1  A    between atoms: C_6  and  C_7 
REMARK    2  A    between atoms: C_7  and  N_8 
REMARK    3  A    between atoms: C_7  and  C_24 
REMARK       I    between atoms: N_8  and  C_9 
REMARK       I    between atoms: C_9  and  N_10 
REMARK    4  A    between atoms: N_10  and  C_11 
REMARK    5  A    between atoms: C_14  and  C_15 
REMARK    6  A    between atoms: C_24  and  O_25 
ROOT
HETATM    1  N   UNL     1     -41.262  53.408 -52.289  1.00  0.00    -0.331 N 
HETATM    2  C   UNL     1     -41.263  54.193 -53.421  1.00  0.00     0.321 C 
HETATM    3  N   UNL     1     -42.541  54.326 -53.914  1.00  0.00    -0.309 N 
HETATM    4  O   UNL     1     -40.241  54.680 -53.881  1.00  0.00    -0.247 OA
HETATM    5  H   UNL     1     -42.121  53.375 -51.764  1.00  0.00     0.165 HD
HETATM    6  H   UNL     1     -43.205  53.640 -53.586  1.00  0.00     0.170 HD
ENDROOT
BRANCH   1   7
HETATM    7  C   UNL     1     -40.037  53.171 -51.542  1.00  0.00     0.161 C 
BRANCH   7   8
HETATM    8  C   UNL     1     -39.938  51.678 -51.407  1.00  0.00     0.056 A 
HETATM    9  N   UNL     1     -39.599  50.845 -52.446  1.00  0.00    -0.277 N 
HETATM   10  C   UNL     1     -39.283  51.216 -53.807  1.00  0.00     0.179 C 
HETATM   11  N   UNL     1     -39.602  49.540 -52.107  1.00  0.00    -0.185 NA
HETATM   12  C   UNL     1     -39.914  49.544 -50.813  1.00  0.00     0.141 A 
HETATM   13  C   UNL     1     -40.143  50.840 -50.325  1.00  0.00     0.050 A 
ENDBRANCH   7   8
BRANCH   7  14
HETATM   14  C   UNL     1     -40.017  53.891 -50.174  1.00  0.00     0.198 C 
BRANCH  14  15
HETATM   15  O   UNL     1     -41.338  54.320 -49.820  1.00  0.00    -0.394 OA
HETATM   16  C   UNL     1     -41.376  55.713 -49.542  1.00  0.00     0.201 C 
ENDBRANCH  14  15
ENDBRANCH   7  14
ENDBRANCH   1   7
BRANCH   3  17
HETATM   17  C   UNL     1     -42.980  55.184 -54.941  1.00  0.00     0.036 A 
HETATM   18  C   UNL     1     -42.712  54.978 -56.291  1.00  0.00     0.030 A 
HETATM   19  C   UNL     1     -43.151  55.901 -57.248  1.00  0.00     0.010 A 
HETATM   20  C   UNL     1     -43.881  57.050 -56.890  1.00  0.00    -0.054 A 
HETATM   21  C   UNL     1     -44.123  57.251 -55.527  1.00  0.00     0.010 A 
HETATM   22  C   UNL     1     -43.683  56.330 -54.567  1.00  0.00     0.030 A 
BRANCH  20  23
HETATM   23  C   UNL     1     -44.304  58.030 -57.984  1.00  0.00     0.018 C 
HETATM   24  C   UNL     1     -44.309  57.390 -59.390  1.00  0.00     0.009 C 
HETATM   25  C   UNL     1     -45.535  56.514 -59.635  1.00  0.00     0.001 C 
HETATM   26  C   UNL     1     -46.823  57.307 -59.446  1.00  0.00     0.000 C 
HETATM   27  C   UNL     1     -46.882  57.956 -58.069  1.00  0.00     0.001 C 
HETATM   28  C   UNL     1     -45.633  58.789 -57.766  1.00  0.00     0.009 C 
ENDBRANCH  20  23
ENDBRANCH   3  17
TORSDOF 6
ENDMDL
MODEL 3
REMARK VINA RESULT:      -7.2      3.144      9.129
REMARK  6 active torsions:
REMARK  status: ('A' for Active; 'I' for Inactive)
REMARK    1  A    between atoms: C_6  and  C_7 
REMARK    2  A    between atoms: C_7  and  N_8 
REMARK    3  A    between atoms: C_7  and  C_24 
REMARK       I    between atoms: N_8  and  C_9 
REMARK       I    between atoms: C_9  and  N_10 
REMARK    4  A    between atoms: N_10  and  C_11 
REMARK    5  A    between atoms: C_14  and  C_15 
REMARK    6  A    between atoms: C_24  and  O_25 
ROOT
HETATM    1  N   UNL     1     -40.816  54.255 -53.069  1.00  0.00    -0.331 N 
HETATM    2  C   UNL     1     -41.853  54.568 -53.921  1.00  0.00     0.321 C 
HETATM    3  N   UNL     1     -41.512  55.634 -54.723  1.00  0.00    -0.309 N 
HETATM    4  O   UNL     1     -42.908  53.952 -53.922  1.00  0.00    -0.247 OA
HETATM    5  H   UNL     1     -39.891  54.515 -53.372  1.00  0.00     0.165 HD
HETATM    6  H   UNL     1     -40.734  56.189 -54.398  1.00  0.00     0.170 HD
ENDROOT
BRANCH   1   7
HETATM    7  C   UNL     1     -40.907  53.120 -52.164  1.00  0.00     0.161 C 
BRANCH   7   8
HETATM    8  C   UNL     1     -40.781  53.703 -50.785  1.00  0.00     0.056 A 
HETATM    9  N   UNL     1     -41.838  54.251 -50.097  1.00  0.00    -0.277 N 
HETATM   10  C   UNL     1     -43.210  54.369 -50.534  1.00  0.00     0.179 C 
HETATM   11  N   UNL     1     -41.491  54.742 -48.890  1.00  0.00    -0.185 NA
HETATM   12  C   UNL     1     -40.192  54.468 -48.791  1.00  0.00     0.141 A 
HETATM   13  C   UNL     1     -39.694  53.832 -49.940  1.00  0.00     0.050 A 
ENDBRANCH   7   8
BRANCH   7  14
HETATM   14  C   UNL     1     -39.839  52.038 -52.447  1.00  0.00     0.198 C 
BRANCH  14  15
HETATM   15  O   UNL     1     -39.734  51.801 -53.857  1.00  0.00    -0.394 OA
HETATM   16  C   UNL     1     -40.050  50.455 -54.184  1.00  0.00     0.201 C 
ENDBRANCH  14  15
ENDBRANCH   7  14
ENDBRANCH   1   7
BRANCH   3  17
HETATM   17  C   UNL     1     -42.222  56.135 -55.830  1.00  0.00     0.036 A 
HETATM   18  C   UNL     1     -42.552  55.377 -56.949  1.00  0.00     0.030 A 
HETATM   19  C   UNL     1     -43.226  55.963 -58.029  1.00  0.00     0.010 A 
HETATM   20  C   UNL     1     -43.602  57.319 -58.019  1.00  0.00    -0.054 A 
HETATM   21  C   UNL     1     -43.244  58.072 -56.895  1.00  0.00     0.010 A 
HETATM   22  C   UNL     1     -42.568  57.488 -55.815  1.00  0.00     0.030 A 
BRANCH  20  23
HETATM   23  C   UNL     1     -44.310  57.901 -59.243  1.00  0.00     0.018 C 
HETATM   24  C   UNL     1     -44.473  56.871 -60.383  1.00  0.00     0.009 C 
HETATM   25  C   UNL     1     -45.614  55.888 -60.131  1.00  0.00     0.001 C 
HETATM   26  C   UNL     1     -46.935  56.621 -59.931  1.00  0.00     0.000 C 
HETATM   27  C   UNL     1     -46.841  57.645 -58.808  1.00  0.00     0.001 C 
HETATM   28  C   UNL     1     -45.663  58.606 -58.997  1.00  0.00     0.009 C 
ENDBRANCH  20  23
ENDBRANCH   3  17
TORSDOF 6
ENDMDL
MODEL 4
REMARK VINA RESULT:      -7.1      3.128      9.169
REMARK  6 active torsions:
REMARK  status: ('A' for Active; 'I' for Inactive)
REMARK    1  A    between atoms: C_6  and  C_7 
REMARK    2  A    between atoms: C_7  and  N_8 
REMARK    3  A    between atoms: C_7  and  C_24 
REMARK       I    between atoms: N_8  and  C_9 
REMARK       I    between atoms: C_9  and  N_10 
REMARK    4  A    between atoms: N_10  and  C_11 
REMARK    5  A    between atoms: C_14  and  C_15 
REMARK    6  A    between atoms: C_24  and  O_25 
ROOT
HETATM    1  N   UNL     1     -41.895  55.795 -52.111  1.00  0.00    -0.331 N 
HETATM    2  C   UNL     1     -41.761  56.108 -53.446  1.00  0.00     0.321 C 
HETATM    3  N   UNL     1     -42.893  55.749 -54.142  1.00  0.00    -0.309 N 
HETATM    4  O   UNL     1     -40.753  56.632 -53.897  1.00  0.00    -0.247 OA
HETATM    5  H   UNL     1     -42.836  55.744 -51.754  1.00  0.00     0.165 HD
HETATM    6  H   UNL     1     -43.494  55.084 -53.677  1.00  0.00     0.170 HD
ENDROOT
BRANCH   1   7
HETATM    7  C   UNL     1     -40.856  56.136 -51.152  1.00  0.00     0.161 C 
BRANCH   7   8
HETATM    8  C   UNL     1     -40.767  54.955 -50.229  1.00  0.00     0.056 A 
HETATM    9  N   UNL     1     -40.405  53.695 -50.645  1.00  0.00    -0.277 N 
HETATM   10  C   UNL     1     -40.054  53.275 -51.982  1.00  0.00     0.179 C 
HETATM   11  N   UNL     1     -40.421  52.781 -49.654  1.00  0.00    -0.185 NA
HETATM   12  C   UNL     1     -40.765  53.481 -48.575  1.00  0.00     0.141 A 
HETATM   13  C   UNL     1     -41.000  54.833 -48.870  1.00  0.00     0.050 A 
ENDBRANCH   7   8
BRANCH   7  14
HETATM   14  C   UNL     1     -41.143  57.456 -50.398  1.00  0.00     0.198 C 
BRANCH  14  15
HETATM   15  O   UNL     1     -40.268  58.492 -50.862  1.00  0.00    -0.394 OA
HETATM   16  C   UNL     1     -40.941  59.391 -51.733  1.00  0.00     0.201 C 
ENDBRANCH  14  15
ENDBRANCH   7  14
ENDBRANCH   1   7
BRANCH   3  17
HETATM   17  C   UNL     1     -43.214  56.059 -55.477  1.00  0.00     0.036 A 
HETATM   18  C   UNL     1     -42.794  55.308 -56.571  1.00  0.00     0.030 A 
HETATM   19  C   UNL     1     -43.122  55.707 -57.872  1.00  0.00     0.010 A 
HETATM   20  C   UNL     1     -43.891  56.859 -58.122  1.00  0.00    -0.054 A 
HETATM   21  C   UNL     1     -44.287  57.614 -57.012  1.00  0.00     0.010 A 
HETATM   22  C   UNL     1     -43.957  57.218 -55.709  1.00  0.00     0.030 A 
BRANCH  20  23
HETATM   23  C   UNL     1     -44.189  57.252 -59.569  1.00  0.00     0.018 C 
HETATM   24  C   UNL     1     -44.289  56.031 -60.510  1.00  0.00     0.009 C 
HETATM   25  C   UNL     1     -45.623  55.299 -60.385  1.00  0.00     0.001 C 
HETATM   26  C   UNL     1     -46.793  56.237 -60.661  1.00  0.00     0.000 C 
HETATM   27  C   UNL     1     -46.754  57.459 -59.752  1.00  0.00     0.001 C 
HETATM   28  C   UNL     1     -45.403  58.178 -59.805  1.00  0.00     0.009 C 
ENDBRANCH  20  23
ENDBRANCH   3  17
TORSDOF 6
ENDMDL
MODEL 5
REMARK VINA RESULT:      -7.0      1.680      2.422
REMARK  6 active torsions:
REMARK  status: ('A' for Active; 'I' for Inactive)
REMARK    1  A    between atoms: C_6  and  C_7 
REMARK    2  A    between atoms: C_7  and  N_8 
REMARK    3  A    between atoms: C_7  and  C_24 
REMARK       I    between atoms: N_8  and  C_9 
REMARK       I    between atoms: C_9  and  N_10 
REMARK    4  A    between atoms: N_10  and  C_11 
REMARK    5  A    between atoms: C_14  and  C_15 
REMARK    6  A    between atoms: C_24  and  O_25 
ROOT
HETATM    1  N   UNL     1     -44.223  57.093 -57.708  1.00  0.00    -0.331 N 
HETATM    2  C   UNL     1     -43.448  56.795 -56.609  1.00  0.00     0.321 C 
HETATM    3  N   UNL     1     -44.241  56.480 -55.530  1.00  0.00    -0.309 N 
HETATM    4  O   UNL     1     -42.226  56.821 -56.643  1.00  0.00    -0.247 OA
HETATM    5  H   UNL     1     -45.146  56.687 -57.731  1.00  0.00     0.165 HD
HETATM    6  H   UNL     1     -45.202  56.782 -55.596  1.00  0.00     0.170 HD
ENDROOT
BRANCH   1   7
HETATM    7  C   UNL     1     -43.616  57.395 -58.995  1.00  0.00     0.161 C 
BRANCH   7   8
HETATM    8  C   UNL     1     -44.601  58.285 -59.698  1.00  0.00     0.056 A 
HETATM    9  N   UNL     1     -44.230  59.315 -60.530  1.00  0.00    -0.277 N 
HETATM   10  C   UNL     1     -42.890  59.726 -60.881  1.00  0.00     0.179 C 
HETATM   11  N   UNL     1     -45.277  60.001 -61.029  1.00  0.00    -0.185 NA
HETATM   12  C   UNL     1     -46.341  59.373 -60.532  1.00  0.00     0.141 A 
HETATM   13  C   UNL     1     -45.985  58.306 -59.693  1.00  0.00     0.050 A 
ENDBRANCH   7   8
BRANCH   7  14
HETATM   14  C   UNL     1     -43.277  56.127 -59.812  1.00  0.00     0.198 C 
BRANCH  14  15
HETATM   15  O   UNL     1     -44.110  56.049 -60.976  1.00  0.00    -0.394 OA
HETATM   16  C   UNL     1     -44.940  54.896 -60.947  1.00  0.00     0.201 C 
ENDBRANCH  14  15
ENDBRANCH   7  14
ENDBRANCH   1   7
BRANCH   3  17
HETATM   17  C   UNL     1     -43.834  55.954 -54.289  1.00  0.00     0.036 A 
HETATM   18  C   UNL     1     -43.800  56.688 -53.108  1.00  0.00     0.030 A 
HETATM   19  C   UNL     1     -43.342  56.101 -51.921  1.00  0.00     0.010 A 
HETATM   20  C   UNL     1     -42.917  54.761 -51.874  1.00  0.00    -0.054 A 
HETATM   21  C   UNL     1     -42.938  54.043 -53.076  1.00  0.00     0.010 A 
HETATM   22  C   UNL     1     -43.393  54.629 -54.264  1.00  0.00     0.030 A 
BRANCH  20  23
HETATM   23  C   UNL     1     -42.403  54.192 -50.552  1.00  0.00     0.018 C 
HETATM   24  C   UNL     1     -41.397  53.036 -50.750  1.00  0.00     0.009 C 
HETATM   25  C   UNL     1     -40.004  53.527 -51.136  1.00  0.00     0.001 C 
HETATM   26  C   UNL     1     -39.452  54.491 -50.093  1.00  0.00     0.000 C 
HETATM   27  C   UNL     1     -40.397  55.663 -49.861  1.00  0.00     0.001 C 
HETATM   28  C   UNL     1     -41.822  55.203 -49.537  1.00  0.00     0.009 C 
ENDBRANCH  20  23
ENDBRANCH   3  17
TORSDOF 6
ENDMDL
MODEL 6
REMARK VINA RESULT:      -6.8      3.106      9.031
REMARK  6 active torsions:
REMARK  status: ('A' for Active; 'I' for Inactive)
REMARK    1  A    between atoms: C_6  and  C_7 
REMARK    2  A    between atoms: C_7  and  N_8 
REMARK    3  A    between atoms: C_7  and  C_24 
REMARK       I    between atoms: N_8  and  C_9 
REMARK       I    between atoms: C_9  and  N_10 
REMARK    4  A    between atoms: N_10  and  C_11 
REMARK    5  A    between atoms: C_14  and  C_15 
REMARK    6  A    between atoms: C_24  and  O_25 
ROOT
HETATM    1  N   UNL     1     -41.527  53.825 -52.661  1.00  0.00    -0.331 N 
HETATM    2  C   UNL     1     -41.479  54.660 -53.756  1.00  0.00     0.321 C 
HETATM    3  N   UNL     1     -42.639  54.558 -54.491  1.00  0.00    -0.309 N 
HETATM    4  O   UNL     1     -40.515  55.372 -53.995  1.00  0.00    -0.247 OA
HETATM    5  H   UNL     1     -42.444  53.586 -52.318  1.00  0.00     0.165 HD
HETATM    6  H   UNL     1     -43.192  53.732 -54.315  1.00  0.00     0.170 HD
ENDROOT
BRANCH   1   7
HETATM    7  C   UNL     1     -40.445  53.799 -51.690  1.00  0.00     0.161 C 
BRANCH   7   8
HETATM    8  C   UNL     1     -40.183  52.344 -51.428  1.00  0.00     0.056 A 
HETATM    9  N   UNL     1     -39.718  51.474 -52.386  1.00  0.00    -0.277 N 
HETATM   10  C   UNL     1     -39.400  51.769 -53.764  1.00  0.00     0.179 C 
HETATM   11  N   UNL     1     -39.584  50.210 -51.939  1.00  0.00    -0.185 NA
HETATM   12  C   UNL     1     -39.938  50.281 -50.658  1.00  0.00     0.141 A 
HETATM   13  C   UNL     1     -40.327  51.578 -50.285  1.00  0.00     0.050 A 
ENDBRANCH   7   8
BRANCH   7  14
HETATM   14  C   UNL     1     -40.777  54.582 -50.398  1.00  0.00     0.198 C 
BRANCH  14  15
HETATM   15  O   UNL     1     -40.573  55.986 -50.602  1.00  0.00    -0.394 OA
HETATM   16  C   UNL     1     -41.802  56.699 -50.587  1.00  0.00     0.201 C 
ENDBRANCH  14  15
ENDBRANCH   7  14
ENDBRANCH   1   7
BRANCH   3  17
HETATM   17  C   UNL     1     -43.045  55.367 -55.569  1.00  0.00     0.036 A 
HETATM   18  C   UNL     1     -42.877  55.021 -56.906  1.00  0.00     0.030 A 
HETATM   19  C   UNL     1     -43.272  55.902 -57.921  1.00  0.00     0.010 A 
HETATM   20  C   UNL     1     -43.860  57.147 -57.633  1.00  0.00    -0.054 A 
HETATM   21  C   UNL     1     -44.003  57.488 -56.283  1.00  0.00     0.010 A 
HETATM   22  C   UNL     1     -43.605  56.610 -55.266  1.00  0.00     0.030 A 
BRANCH  20  23
HETATM   23  C   UNL     1     -44.242  58.071 -58.790  1.00  0.00     0.018 C 
HETATM   24  C   UNL     1     -44.036  59.565 -58.453  1.00  0.00     0.009 C 
HETATM   25  C   UNL     1     -42.571  59.991 -58.534  1.00  0.00     0.001 C 
HETATM   26  C   UNL     1     -41.993  59.708 -59.915  1.00  0.00     0.000 C 
HETATM   27  C   UNL     1     -42.157  58.244 -60.300  1.00  0.00     0.001 C 
HETATM   28  C   UNL     1     -43.606  57.767 -60.165  1.00  0.00     0.009 C 
ENDBRANCH  20  23
ENDBRANCH   3  17
TORSDOF 6
ENDMDL
MODEL 7
REMARK VINA RESULT:      -6.8      3.214      9.197
REMARK  6 active torsions:
REMARK  status: ('A' for Active; 'I' for Inactive)
REMARK    1  A    between atoms: C_6  and  C_7 
REMARK    2  A    between atoms: C_7  and  N_8 
REMARK    3  A    between atoms: C_7  and  C_24 
REMARK       I    between atoms: N_8  and  C_9 
REMARK       I    between atoms: C_9  and  N_10 
REMARK    4  A    between atoms: N_10  and  C_11 
REMARK    5  A    between atoms: C_14  and  C_15 
REMARK    6  A    between atoms: C_24  and  O_25 
ROOT
HETATM    1  N   UNL     1     -40.732  54.365 -52.959  1.00  0.00    -0.331 N 
HETATM    2  C   UNL     1     -41.751  54.791 -53.782  1.00  0.00     0.321 C 
HETATM    3  N   UNL     1     -41.348  55.875 -54.528  1.00  0.00    -0.309 N 
HETATM    4  O   UNL     1     -42.844  54.244 -53.807  1.00  0.00    -0.247 OA
HETATM    5  H   UNL     1     -39.793  54.581 -53.257  1.00  0.00     0.165 HD
HETATM    6  H   UNL     1     -40.534  56.360 -54.180  1.00  0.00     0.170 HD
ENDROOT
BRANCH   1   7
HETATM    7  C   UNL     1     -40.889  53.190 -52.117  1.00  0.00     0.161 C 
BRANCH   7   8
HETATM    8  C   UNL     1     -40.767  53.694 -50.707  1.00  0.00     0.056 A 
HETATM    9  N   UNL     1     -41.816  54.236 -50.004  1.00  0.00    -0.277 N 
HETATM   10  C   UNL     1     -43.178  54.419 -50.453  1.00  0.00     0.179 C 
HETATM   11  N   UNL     1     -41.473  54.651 -48.768  1.00  0.00    -0.185 NA
HETATM   12  C   UNL     1     -40.185  54.333 -48.668  1.00  0.00     0.141 A 
HETATM   13  C   UNL     1     -39.688  53.744 -49.842  1.00  0.00     0.050 A 
ENDBRANCH   7   8
BRANCH   7  14
HETATM   14  C   UNL     1     -39.864  52.077 -52.438  1.00  0.00     0.198 C 
BRANCH  14  15
HETATM   15  O   UNL     1     -39.714  51.935 -53.856  1.00  0.00    -0.394 OA
HETATM   16  C   UNL     1     -40.289  50.721 -54.321  1.00  0.00     0.201 C 
ENDBRANCH  14  15
ENDBRANCH   7  14
ENDBRANCH   1   7
BRANCH   3  17
HETATM   17  C   UNL     1     -42.031  56.482 -55.599  1.00  0.00     0.036 A 
HETATM   18  C   UNL     1     -42.370  55.823 -56.777  1.00  0.00     0.030 A 
HETATM   19  C   UNL     1     -43.015  56.510 -57.813  1.00  0.00     0.010 A 
HETATM   20  C   UNL     1     -43.353  57.872 -57.700  1.00  0.00    -0.054 A 
HETATM   21  C   UNL     1     -42.986  58.524 -56.517  1.00  0.00     0.010 A 
HETATM   22  C   UNL     1     -42.339  57.839 -55.481  1.00  0.00     0.030 A 
BRANCH  20  23
HETATM   23  C   UNL     1     -44.030  58.567 -58.881  1.00  0.00     0.018 C 
HETATM   24  C   UNL     1     -43.914  60.106 -58.813  1.00  0.00     0.009 C 
HETATM   25  C   UNL     1     -42.539  60.613 -59.243  1.00  0.00     0.001 C 
HETATM   26  C   UNL     1     -42.199  60.151 -60.654  1.00  0.00     0.000 C 
HETATM   27  C   UNL     1     -42.286  58.635 -60.781  1.00  0.00     0.001 C 
HETATM   28  C   UNL     1     -43.631  58.088 -60.295  1.00  0.00     0.009 C 
ENDBRANCH  20  23
ENDBRANCH   3  17
TORSDOF 6
ENDMDL
MODEL 8
REMARK VINA RESULT:      -6.6      2.446      9.045
REMARK  6 active torsions:
REMARK  status: ('A' for Active; 'I' for Inactive)
REMARK    1  A    between atoms: C_6  and  C_7 
REMARK    2  A    between atoms: C_7  and  N_8 
REMARK    3  A    between atoms: C_7  and  C_24 
REMARK       I    between atoms: N_8  and  C_9 
REMARK       I    between atoms: C_9  and  N_10 
REMARK    4  A    between atoms: N_10  and  C_11 
REMARK    5  A    between atoms: C_14  and  C_15 
REMARK    6  A    between atoms: C_24  and  O_25 
ROOT
HETATM    1  N   UNL     1     -42.240  54.374 -55.069  1.00  0.00    -0.331 N 
HETATM    2  C   UNL     1     -42.200  55.565 -55.759  1.00  0.00     0.321 C 
HETATM    3  N   UNL     1     -42.667  55.395 -57.043  1.00  0.00    -0.309 N 
HETATM    4  O   UNL     1     -41.797  56.602 -55.253  1.00  0.00    -0.247 OA
HETATM    5  H   UNL     1     -42.914  53.694 -55.385  1.00  0.00     0.165 HD
HETATM    6  H   UNL     1     -42.686  54.441 -57.374  1.00  0.00     0.170 HD
ENDROOT
BRANCH   1   7
HETATM    7  C   UNL     1     -41.859  54.306 -53.667  1.00  0.00     0.161 C 
BRANCH   7   8
HETATM    8  C   UNL     1     -41.012  53.071 -53.547  1.00  0.00     0.056 A 
HETATM    9  N   UNL     1     -40.239  52.790 -52.445  1.00  0.00    -0.277 N 
HETATM   10  C   UNL     1     -40.093  53.580 -51.244  1.00  0.00     0.179 C 
HETATM   11  N   UNL     1     -39.538  51.645 -52.564  1.00  0.00    -0.185 NA
HETATM   12  C   UNL     1     -39.900  51.167 -53.753  1.00  0.00     0.141 A 
HETATM   13  C   UNL     1     -40.806  52.012 -54.413  1.00  0.00     0.050 A 
ENDBRANCH   7   8
BRANCH   7  14
HETATM   14  C   UNL     1     -43.077  54.284 -52.713  1.00  0.00     0.198 C 
BRANCH  14  15
HETATM   15  O   UNL     1     -43.500  55.621 -52.418  1.00  0.00    -0.394 OA
HETATM   16  C   UNL     1     -42.485  56.352 -51.745  1.00  0.00     0.201 C 
ENDBRANCH  14  15
ENDBRANCH   7  14
ENDBRANCH   1   7
BRANCH   3  17
HETATM   17  C   UNL     1     -42.947  56.395 -57.994  1.00  0.00     0.036 A 
HETATM   18  C   UNL     1     -42.265  56.532 -59.199  1.00  0.00     0.030 A 
HETATM   19  C   UNL     1     -42.578  57.580 -60.074  1.00  0.00     0.010 A 
HETATM   20  C   UNL     1     -43.589  58.514 -59.780  1.00  0.00    -0.054 A 
HETATM   21  C   UNL     1     -44.250  58.373 -58.555  1.00  0.00     0.010 A 
HETATM   22  C   UNL     1     -43.937  57.327 -57.677  1.00  0.00     0.030 A 
BRANCH  20  23
HETATM   23  C   UNL     1     -43.858  59.649 -60.768  1.00  0.00     0.018 C 
HETATM   24  C   UNL     1     -44.564  60.856 -60.110  1.00  0.00     0.009 C 
HETATM   25  C   UNL     1     -43.609  61.727 -59.297  1.00  0.00     0.001 C 
HETATM   26  C   UNL     1     -42.459  62.233 -60.158  1.00  0.00     0.000 C 
HETATM   27  C   UNL     1     -41.714  61.085 -60.826  1.00  0.00     0.001 C 
HETATM   28  C   UNL     1     -42.655  60.154 -61.597  1.00  0.00     0.009 C 
ENDBRANCH  20  23
ENDBRANCH   3  17
TORSDOF 6
ENDMDL
MODEL 9
REMARK VINA RESULT:      -6.5      2.931      9.025
REMARK  6 active torsions:
REMARK  status: ('A' for Active; 'I' for Inactive)
REMARK    1  A    between atoms: C_6  and  C_7 
REMARK    2  A    between atoms: C_7  and  N_8 
REMARK    3  A    between atoms: C_7  and  C_24 
REMARK       I    between atoms: N_8  and  C_9 
REMARK       I    between atoms: C_9  and  N_10 
REMARK    4  A    between atoms: N_10  and  C_11 
REMARK    5  A    between atoms: C_14  and  C_15 
REMARK    6  A    between atoms: C_24  and  O_25 
ROOT
HETATM    1  N   UNL     1     -41.305  55.373 -53.095  1.00  0.00    -0.331 N 
HETATM    2  C   UNL     1     -42.235  55.467 -54.107  1.00  0.00     0.321 C 
HETATM    3  N   UNL     1     -41.861  56.430 -55.017  1.00  0.00    -0.309 N 
HETATM    4  O   UNL     1     -43.237  54.768 -54.144  1.00  0.00    -0.247 OA
HETATM    5  H   UNL     1     -40.367  55.666 -53.317  1.00  0.00     0.165 HD
HETATM    6  H   UNL     1     -41.174  57.092 -54.689  1.00  0.00     0.170 HD
ENDROOT
BRANCH   1   7
HETATM    7  C   UNL     1     -41.441  54.379 -52.042  1.00  0.00     0.161 C 
BRANCH   7   8
HETATM    8  C   UNL     1     -40.688  53.177 -52.533  1.00  0.00     0.056 A 
HETATM    9  N   UNL     1     -40.174  52.213 -51.697  1.00  0.00    -0.277 N 
HETATM   10  C   UNL     1     -40.254  52.162 -50.255  1.00  0.00     0.179 C 
HETATM   11  N   UNL     1     -39.509  51.239 -52.350  1.00  0.00    -0.185 NA
HETATM   12  C   UNL     1     -39.632  51.570 -53.634  1.00  0.00     0.141 A 
HETATM   13  C   UNL     1     -40.346  52.767 -53.809  1.00  0.00     0.050 A 
ENDBRANCH   7   8
BRANCH   7  14
HETATM   14  C   UNL     1     -42.916  54.056 -51.706  1.00  0.00     0.198 C 
BRANCH  14  15
HETATM   15  O   UNL     1     -43.237  54.516 -50.387  1.00  0.00    -0.394 OA
HETATM   16  C   UNL     1     -42.157  55.239 -49.811  1.00  0.00     0.201 C 
ENDBRANCH  14  15
ENDBRANCH   7  14
ENDBRANCH   1   7
BRANCH   3  17
HETATM   17  C   UNL     1     -42.446  56.701 -56.269  1.00  0.00     0.036 A 
HETATM   18  C   UNL     1     -42.956  57.943 -56.635  1.00  0.00     0.030 A 
HETATM   19  C   UNL     1     -43.559  58.120 -57.886  1.00  0.00     0.010 A 
HETATM   20  C   UNL     1     -43.660  57.068 -58.815  1.00  0.00    -0.054 A 
HETATM   21  C   UNL     1     -43.162  55.820 -58.423  1.00  0.00     0.010 A 
HETATM   22  C   UNL     1     -42.560  55.640 -57.170  1.00  0.00     0.030 A 
BRANCH  20  23
HETATM   23  C   UNL     1     -44.357  57.323 -60.151  1.00  0.00     0.018 C 
HETATM   24  C   UNL     1     -44.769  56.019 -60.869  1.00  0.00     0.009 C 
HETATM   25  C   UNL     1     -46.030  55.393 -60.278  1.00  0.00     0.001 C 
HETATM   26  C   UNL     1     -47.198  56.370 -60.316  1.00  0.00     0.000 C 
HETATM   27  C   UNL     1     -46.856  57.677 -59.611  1.00  0.00     0.001 C 
HETATM   28  C   UNL     1     -45.558  58.297 -60.138  1.00  0.00     0.009 C 
ENDBRANCH  20  23
ENDBRANCH   3  17
TORSDOF 6
ENDMDL
MODEL 10
REMARK VINA RESULT:      -6.5     16.577     19.547
REMARK  6 active torsions:
REMARK  status: ('A' for Active; 'I' for Inactive)
REMARK    1  A    between atoms: C_6  and  C_7 
REMARK    2  A    between atoms: C_7  and  N_8 
REMARK    3  A    between atoms: C_7  and  C_24 
REMARK       I    between atoms: N_8  and  C_9 
REMARK       I    between atoms: C_9  and  N_10 
REMARK    4  A    between atoms: N_10  and  C_11 
REMARK    5  A    between atoms: C_14  and  C_15 
REMARK    6  A    between atoms: C_24  and  O_25 
ROOT
HETATM    1  N   UNL     1     -38.258  38.907 -48.967  1.00  0.00    -0.331 N 
HETATM    2  C   UNL     1     -37.877  38.915 -50.291  1.00  0.00     0.321 C 
HETATM    3  N   UNL     1     -37.298  40.120 -50.619  1.00  0.00    -0.309 N 
HETATM    4  O   UNL     1     -38.054  37.957 -51.029  1.00  0.00    -0.247 OA
HETATM    5  H   UNL     1     -37.754  39.526 -48.351  1.00  0.00     0.165 HD
HETATM    6  H   UNL     1     -37.490  40.880 -49.983  1.00  0.00     0.170 HD
ENDROOT
BRANCH   1   7
HETATM    7  C   UNL     1     -38.837  37.719 -48.360  1.00  0.00     0.161 C 
BRANCH   7   8
HETATM    8  C   UNL     1     -40.193  38.144 -47.875  1.00  0.00     0.056 A 
HETATM    9  N   UNL     1     -41.330  38.070 -48.646  1.00  0.00    -0.277 N 
HETATM   10  C   UNL     1     -41.444  37.592 -50.005  1.00  0.00     0.179 C 
HETATM   11  N   UNL     1     -42.430  38.533 -48.020  1.00  0.00    -0.185 NA
HETATM   12  C   UNL     1     -41.993  38.876 -46.810  1.00  0.00     0.141 A 
HETATM   13  C   UNL     1     -40.612  38.665 -46.664  1.00  0.00     0.050 A 
ENDBRANCH   7   8
BRANCH   7  14
HETATM   14  C   UNL     1     -37.960  37.134 -47.228  1.00  0.00     0.198 C 
BRANCH  14  15
HETATM   15  O   UNL     1     -37.139  38.160 -46.656  1.00  0.00    -0.394 OA
HETATM   16  C   UNL     1     -35.789  37.734 -46.527  1.00  0.00     0.201 C 
ENDBRANCH  14  15
ENDBRANCH   7  14
ENDBRANCH   1   7
BRANCH   3  17
HETATM   17  C   UNL     1     -36.628  40.453 -51.811  1.00  0.00     0.036 A 
HETATM   18  C   UNL     1     -35.452  39.843 -52.238  1.00  0.00     0.030 A 
HETATM   19  C   UNL     1     -34.825  40.261 -53.418  1.00  0.00     0.010 A 
HETATM   20  C   UNL     1     -35.358  41.291 -54.215  1.00  0.00    -0.054 A 
HETATM   21  C   UNL     1     -36.529  41.908 -53.761  1.00  0.00     0.010 A 
HETATM   22  C   UNL     1     -37.157  41.493 -52.579  1.00  0.00     0.030 A 
BRANCH  20  23
HETATM   23  C   UNL     1     -34.605  41.717 -55.476  1.00  0.00     0.018 C 
HETATM   24  C   UNL     1     -34.015  40.519 -56.252  1.00  0.00     0.009 C 
HETATM   25  C   UNL     1     -35.064  39.773 -57.073  1.00  0.00     0.001 C 
HETATM   26  C   UNL     1     -35.759  40.707 -58.056  1.00  0.00     0.000 C 
HETATM   27  C   UNL     1     -36.373  41.907 -57.347  1.00  0.00     0.001 C 
HETATM   28  C   UNL     1     -35.360  42.639 -56.461  1.00  0.00     0.009 C 
ENDBRANCH  20  23
ENDBRANCH   3  17
TORSDOF 6
ENDMDL
