MODEL 1
REMARK VINA RESULT:      -9.1      0.000      0.000
REMARK  5 active torsions:
REMARK  status: ('A' for Active; 'I' for Inactive)
REMARK    1  A    between atoms: O_2  and  C_3 
REMARK    2  A    between atoms: C_7  and  C_8 
REMARK    3  A    between atoms: C_8  and  N_9 
REMARK       I    between atoms: N_9  and  C_10 
REMARK    4  A    between atoms: C_10  and  C_12 
REMARK    5  A    between atoms: C_18  and  C_22 
ROOT
HETATM    1  C   UNL     1     -41.520  57.443 -53.330  1.00  0.00     0.061 A 
HETATM    2  C   UNL     1     -41.977  57.394 -52.017  1.00  0.00     0.108 A 
HETATM    3  N   UNL     1     -41.808  56.117 -51.544  1.00  0.00    -0.349 N 
HETATM    4  H   UNL     1     -42.052  55.776 -50.626  1.00  0.00     0.167 HD
HETATM    5  C   UNL     1     -41.255  55.333 -52.515  1.00  0.00     0.139 A 
HETATM    6  N   UNL     1     -40.966  54.031 -52.356  1.00  0.00    -0.230 NA
HETATM    7  C   UNL     1     -40.433  53.439 -53.456  1.00  0.00     0.069 A 
HETATM    8  C   UNL     1     -40.186  54.125 -54.651  1.00  0.00     0.033 A 
HETATM    9  C   UNL     1     -40.502  55.483 -54.761  1.00  0.00     0.018 A 
HETATM   10  C   UNL     1     -41.065  56.118 -53.643  1.00  0.00     0.027 A 
ENDROOT
BRANCH   1  11
HETATM   11  C   UNL     1     -41.516  58.598 -54.228  1.00  0.00     0.254 C 
HETATM   12  N   UNL     1     -42.251  58.448 -55.380  1.00  0.00    -0.353 N 
HETATM   13  H   UNL     1     -42.850  57.644 -55.491  1.00  0.00     0.163 HD
HETATM   14  O   UNL     1     -40.909  59.632 -53.969  1.00  0.00    -0.268 OA
BRANCH  12  15
HETATM   15  C   UNL     1     -42.369  59.525 -56.331  1.00  0.00     0.161 C 
BRANCH  15  16
HETATM   16  C   UNL     1     -42.331  58.996 -57.739  1.00  0.00    -0.038 A 
HETATM   17  C   UNL     1     -42.096  59.870 -58.812  1.00  0.00     0.009 A 
HETATM   18  C   UNL     1     -42.029  59.383 -60.114  1.00  0.00     0.003 A 
HETATM   19  C   UNL     1     -42.195  58.019 -60.355  1.00  0.00     0.037 A 
HETATM   20  C   UNL     1     -42.425  57.131 -59.301  1.00  0.00     0.068 A 
HETATM   21  C   UNL     1     -42.489  57.623 -57.995  1.00  0.00     0.045 A 
BRANCH  20  22
HETATM   22  O   UNL     1     -42.565  55.824 -59.678  1.00  0.00    -0.356 OA
HETATM   23  C   UNL     1     -43.856  55.245 -59.533  1.00  0.00     0.210 C 
ENDBRANCH  20  22
ENDBRANCH  15  16
ENDBRANCH  12  15
ENDBRANCH   1  11
BRANCH   7  24
HETATM   24  C   UNL     1     -40.118  52.001 -53.293  1.00  0.00    -0.005 A 
HETATM   25  C   UNL     1     -39.718  51.454 -52.066  1.00  0.00     0.033 A 
HETATM   26  C   UNL     1     -39.439  50.097 -51.984  1.00  0.00     0.117 A 
HETATM   27  N   UNL     1     -39.526  49.246 -53.026  1.00  0.00    -0.273 NA
HETATM   28  C   UNL     1     -39.899  49.781 -54.206  1.00  0.00     0.117 A 
HETATM   29  C   UNL     1     -40.198  51.123 -54.384  1.00  0.00     0.033 A 
ENDBRANCH   7  24
TORSDOF 5
ENDMDL
MODEL 2
REMARK VINA RESULT:      -8.7      0.992      2.017
REMARK  5 active torsions:
REMARK  status: ('A' for Active; 'I' for Inactive)
REMARK    1  A    between atoms: O_2  and  C_3 
REMARK    2  A    between atoms: C_7  and  C_8 
REMARK    3  A    between atoms: C_8  and  N_9 
REMARK       I    between atoms: N_9  and  C_10 
REMARK    4  A    between atoms: C_10  and  C_12 
REMARK    5  A    between atoms: C_18  and  C_22 
ROOT
HETATM    1  C   UNL     1     -41.492  57.441 -53.341  1.00  0.00     0.061 A 
HETATM    2  C   UNL     1     -41.905  57.407 -52.013  1.00  0.00     0.108 A 
HETATM    3  N   UNL     1     -41.727  56.134 -51.533  1.00  0.00    -0.349 N 
HETATM    4  H   UNL     1     -41.942  55.803 -50.604  1.00  0.00     0.167 HD
HETATM    5  C   UNL     1     -41.210  55.338 -52.514  1.00  0.00     0.139 A 
HETATM    6  N   UNL     1     -40.923  54.035 -52.352  1.00  0.00    -0.230 NA
HETATM    7  C   UNL     1     -40.429  53.430 -53.463  1.00  0.00     0.069 A 
HETATM    8  C   UNL     1     -40.219  54.103 -54.672  1.00  0.00     0.033 A 
HETATM    9  C   UNL     1     -40.532  55.461 -54.785  1.00  0.00     0.018 A 
HETATM   10  C   UNL     1     -41.054  56.110 -53.655  1.00  0.00     0.027 A 
ENDROOT
BRANCH   1  11
HETATM   11  C   UNL     1     -41.512  58.587 -54.250  1.00  0.00     0.254 C 
HETATM   12  N   UNL     1     -42.242  58.410 -55.401  1.00  0.00    -0.353 N 
HETATM   13  H   UNL     1     -42.823  57.591 -55.505  1.00  0.00     0.163 HD
HETATM   14  O   UNL     1     -40.928  59.637 -54.000  1.00  0.00    -0.268 OA
BRANCH  12  15
HETATM   15  C   UNL     1     -42.383  59.474 -56.363  1.00  0.00     0.161 C 
BRANCH  15  16
HETATM   16  C   UNL     1     -42.290  58.939 -57.766  1.00  0.00    -0.038 A 
HETATM   17  C   UNL     1     -42.478  57.571 -58.010  1.00  0.00     0.009 A 
HETATM   18  C   UNL     1     -42.423  57.073 -59.309  1.00  0.00     0.003 A 
HETATM   19  C   UNL     1     -42.182  57.941 -60.374  1.00  0.00     0.037 A 
HETATM   20  C   UNL     1     -41.996  59.307 -60.154  1.00  0.00     0.068 A 
HETATM   21  C   UNL     1     -42.054  59.803 -58.849  1.00  0.00     0.045 A 
BRANCH  20  22
HETATM   22  O   UNL     1     -41.772  60.042 -61.286  1.00  0.00    -0.356 OA
HETATM   23  C   UNL     1     -42.252  61.380 -61.293  1.00  0.00     0.210 C 
ENDBRANCH  20  22
ENDBRANCH  15  16
ENDBRANCH  12  15
ENDBRANCH   1  11
BRANCH   7  24
HETATM   24  C   UNL     1     -40.116  51.992 -53.296  1.00  0.00    -0.005 A 
HETATM   25  C   UNL     1     -40.196  51.079 -54.357  1.00  0.00     0.033 A 
HETATM   26  C   UNL     1     -39.887  49.744 -54.130  1.00  0.00     0.117 A 
HETATM   27  N   UNL     1     -39.509  49.252 -52.934  1.00  0.00    -0.273 NA
HETATM   28  C   UNL     1     -39.447  50.133 -51.916  1.00  0.00     0.117 A 
HETATM   29  C   UNL     1     -39.735  51.483 -52.047  1.00  0.00     0.033 A 
ENDBRANCH   7  24
TORSDOF 5
ENDMDL
MODEL 3
REMARK VINA RESULT:      -7.8      2.171      2.432
REMARK  5 active torsions:
REMARK  status: ('A' for Active; 'I' for Inactive)
REMARK    1  A    between atoms: O_2  and  C_3 
REMARK    2  A    between atoms: C_7  and  C_8 
REMARK    3  A    between atoms: C_8  and  N_9 
REMARK       I    between atoms: N_9  and  C_10 
REMARK    4  A    between atoms: C_10  and  C_12 
REMARK    5  A    between atoms: C_18  and  C_22 
ROOT
HETATM    1  C   UNL     1     -41.540  57.447 -53.343  1.00  0.00     0.061 A 
HETATM    2  C   UNL     1     -42.036  57.393 -52.044  1.00  0.00     0.108 A 
HETATM    3  N   UNL     1     -41.878  56.115 -51.569  1.00  0.00    -0.349 N 
HETATM    4  H   UNL     1     -42.149  55.771 -50.659  1.00  0.00     0.167 HD
HETATM    5  C   UNL     1     -41.293  55.335 -52.525  1.00  0.00     0.139 A 
HETATM    6  N   UNL     1     -41.006  54.033 -52.360  1.00  0.00    -0.230 NA
HETATM    7  C   UNL     1     -40.438  53.445 -53.445  1.00  0.00     0.069 A 
HETATM    8  C   UNL     1     -40.157  54.135 -54.630  1.00  0.00     0.033 A 
HETATM    9  C   UNL     1     -40.474  55.492 -54.747  1.00  0.00     0.018 A 
HETATM   10  C   UNL     1     -41.071  56.123 -53.644  1.00  0.00     0.027 A 
ENDROOT
BRANCH   1  11
HETATM   11  C   UNL     1     -41.512  58.603 -54.238  1.00  0.00     0.254 C 
HETATM   12  N   UNL     1     -42.178  58.440 -55.429  1.00  0.00    -0.353 N 
HETATM   13  H   UNL     1     -42.751  57.622 -55.574  1.00  0.00     0.163 HD
HETATM   14  O   UNL     1     -40.943  59.650 -53.944  1.00  0.00    -0.268 OA
BRANCH  12  15
HETATM   15  C   UNL     1     -42.267  59.516 -56.384  1.00  0.00     0.161 C 
BRANCH  15  16
HETATM   16  C   UNL     1     -43.524  59.396 -57.203  1.00  0.00    -0.038 A 
HETATM   17  C   UNL     1     -43.539  58.594 -58.353  1.00  0.00     0.009 A 
HETATM   18  C   UNL     1     -44.706  58.455 -59.099  1.00  0.00     0.003 A 
HETATM   19  C   UNL     1     -45.868  59.115 -58.699  1.00  0.00     0.037 A 
HETATM   20  C   UNL     1     -45.876  59.915 -57.554  1.00  0.00     0.068 A 
HETATM   21  C   UNL     1     -44.704  60.050 -56.807  1.00  0.00     0.045 A 
BRANCH  20  22
HETATM   22  O   UNL     1     -47.081  60.499 -57.275  1.00  0.00    -0.356 OA
HETATM   23  C   UNL     1     -48.195  60.087 -58.058  1.00  0.00     0.210 C 
ENDBRANCH  20  22
ENDBRANCH  15  16
ENDBRANCH  12  15
ENDBRANCH   1  11
BRANCH   7  24
HETATM   24  C   UNL     1     -40.124  52.008 -53.275  1.00  0.00    -0.005 A 
HETATM   25  C   UNL     1     -39.732  51.465 -52.044  1.00  0.00     0.033 A 
HETATM   26  C   UNL     1     -39.453  50.108 -51.956  1.00  0.00     0.117 A 
HETATM   27  N   UNL     1     -39.534  49.254 -52.996  1.00  0.00    -0.273 NA
HETATM   28  C   UNL     1     -39.900  49.785 -54.180  1.00  0.00     0.117 A 
HETATM   29  C   UNL     1     -40.198  51.126 -54.363  1.00  0.00     0.033 A 
ENDBRANCH   7  24
TORSDOF 5
ENDMDL
MODEL 4
REMARK VINA RESULT:      -7.8     15.118     18.197
REMARK  5 active torsions:
REMARK  status: ('A' for Active; 'I' for Inactive)
REMARK    1  A    between atoms: O_2  and  C_3 
REMARK    2  A    between atoms: C_7  and  C_8 
REMARK    3  A    between atoms: C_8  and  N_9 
REMARK       I    between atoms: N_9  and  C_10 
REMARK    4  A    between atoms: C_10  and  C_12 
REMARK    5  A    between atoms: C_18  and  C_22 
ROOT
HETATM    1  C   UNL     1     -35.727  41.999 -55.172  1.00  0.00     0.061 A 
HETATM    2  C   UNL     1     -34.789  42.686 -55.936  1.00  0.00     0.108 A 
HETATM    3  N   UNL     1     -34.953  42.330 -57.251  1.00  0.00    -0.349 N 
HETATM    4  H   UNL     1     -34.414  42.661 -58.038  1.00  0.00     0.167 HD
HETATM    5  C   UNL     1     -35.973  41.430 -57.363  1.00  0.00     0.139 A 
HETATM    6  N   UNL     1     -36.376  40.892 -58.527  1.00  0.00    -0.230 NA
HETATM    7  C   UNL     1     -37.399  40.007 -58.408  1.00  0.00     0.069 A 
HETATM    8  C   UNL     1     -37.998  39.689 -57.183  1.00  0.00     0.033 A 
HETATM    9  C   UNL     1     -37.540  40.281 -56.001  1.00  0.00     0.018 A 
HETATM   10  C   UNL     1     -36.477  41.193 -56.093  1.00  0.00     0.027 A 
ENDROOT
BRANCH   1  11
HETATM   11  C   UNL     1     -35.911  42.061 -53.722  1.00  0.00     0.254 C 
HETATM   12  N   UNL     1     -34.770  41.879 -52.977  1.00  0.00    -0.353 N 
HETATM   13  H   UNL     1     -33.871  41.854 -53.436  1.00  0.00     0.163 HD
HETATM   14  O   UNL     1     -37.004  42.270 -53.205  1.00  0.00    -0.268 OA
BRANCH  12  15
HETATM   15  C   UNL     1     -34.801  41.961 -51.539  1.00  0.00     0.161 C 
BRANCH  15  16
HETATM   16  C   UNL     1     -34.173  40.740 -50.924  1.00  0.00    -0.038 A 
HETATM   17  C   UNL     1     -34.820  39.498 -51.010  1.00  0.00     0.009 A 
HETATM   18  C   UNL     1     -34.230  38.358 -50.469  1.00  0.00     0.003 A 
HETATM   19  C   UNL     1     -32.988  38.451 -49.840  1.00  0.00     0.037 A 
HETATM   20  C   UNL     1     -32.325  39.677 -49.748  1.00  0.00     0.068 A 
HETATM   21  C   UNL     1     -32.918  40.818 -50.294  1.00  0.00     0.045 A 
BRANCH  20  22
HETATM   22  O   UNL     1     -31.116  39.624 -49.111  1.00  0.00    -0.356 OA
HETATM   23  C   UNL     1     -31.135  39.605 -47.690  1.00  0.00     0.210 C 
ENDBRANCH  20  22
ENDBRANCH  15  16
ENDBRANCH  12  15
ENDBRANCH   1  11
BRANCH   7  24
HETATM   24  C   UNL     1     -37.847  39.404 -59.683  1.00  0.00    -0.005 A 
HETATM   25  C   UNL     1     -37.144  39.578 -60.884  1.00  0.00     0.033 A 
HETATM   26  C   UNL     1     -37.621  38.984 -62.044  1.00  0.00     0.117 A 
HETATM   27  N   UNL     1     -38.739  38.233 -62.101  1.00  0.00    -0.273 NA
HETATM   28  C   UNL     1     -39.416  38.079 -60.946  1.00  0.00     0.117 A 
HETATM   29  C   UNL     1     -39.018  38.634 -59.739  1.00  0.00     0.033 A 
ENDBRANCH   7  24
TORSDOF 5
ENDMDL
MODEL 5
REMARK VINA RESULT:      -7.7      2.437      5.312
REMARK  5 active torsions:
REMARK  status: ('A' for Active; 'I' for Inactive)
REMARK    1  A    between atoms: O_2  and  C_3 
REMARK    2  A    between atoms: C_7  and  C_8 
REMARK    3  A    between atoms: C_8  and  N_9 
REMARK       I    between atoms: N_9  and  C_10 
REMARK    4  A    between atoms: C_10  and  C_12 
REMARK    5  A    between atoms: C_18  and  C_22 
ROOT
HETATM    1  C   UNL     1     -42.348  57.288 -55.808  1.00  0.00     0.061 A 
HETATM    2  C   UNL     1     -42.705  56.632 -56.981  1.00  0.00     0.108 A 
HETATM    3  N   UNL     1     -42.389  55.303 -56.851  1.00  0.00    -0.349 N 
HETATM    4  H   UNL     1     -42.526  54.580 -57.542  1.00  0.00     0.167 HD
HETATM    5  C   UNL     1     -41.834  55.077 -55.625  1.00  0.00     0.139 A 
HETATM    6  N   UNL     1     -41.419  53.873 -55.199  1.00  0.00    -0.230 NA
HETATM    7  C   UNL     1     -40.884  53.876 -53.950  1.00  0.00     0.069 A 
HETATM    8  C   UNL     1     -40.786  55.029 -53.163  1.00  0.00     0.033 A 
HETATM    9  C   UNL     1     -41.237  56.259 -53.655  1.00  0.00     0.018 A 
HETATM   10  C   UNL     1     -41.785  56.286 -54.947  1.00  0.00     0.027 A 
ENDROOT
BRANCH   1  11
HETATM   11  C   UNL     1     -42.492  58.712 -55.505  1.00  0.00     0.254 C 
HETATM   12  N   UNL     1     -43.452  59.019 -54.569  1.00  0.00    -0.353 N 
HETATM   13  H   UNL     1     -43.898  58.279 -54.049  1.00  0.00     0.163 HD
HETATM   14  O   UNL     1     -41.800  59.573 -56.039  1.00  0.00    -0.268 OA
BRANCH  12  15
HETATM   15  C   UNL     1     -43.667  60.379 -54.145  1.00  0.00     0.161 C 
BRANCH  15  16
HETATM   16  C   UNL     1     -43.146  60.589 -52.748  1.00  0.00    -0.038 A 
HETATM   17  C   UNL     1     -43.684  61.603 -51.943  1.00  0.00     0.009 A 
HETATM   18  C   UNL     1     -43.227  61.783 -50.640  1.00  0.00     0.003 A 
HETATM   19  C   UNL     1     -42.232  60.948 -50.131  1.00  0.00     0.037 A 
HETATM   20  C   UNL     1     -41.687  59.928 -50.915  1.00  0.00     0.068 A 
HETATM   21  C   UNL     1     -42.149  59.750 -52.221  1.00  0.00     0.045 A 
BRANCH  20  22
HETATM   22  O   UNL     1     -40.724  59.184 -50.291  1.00  0.00    -0.356 OA
HETATM   23  C   UNL     1     -39.372  59.567 -50.505  1.00  0.00     0.210 C 
ENDBRANCH  20  22
ENDBRANCH  15  16
ENDBRANCH  12  15
ENDBRANCH   1  11
BRANCH   7  24
HETATM   24  C   UNL     1     -40.417  52.555 -53.473  1.00  0.00    -0.005 A 
HETATM   25  C   UNL     1     -40.399  51.422 -54.299  1.00  0.00     0.033 A 
HETATM   26  C   UNL     1     -39.948  50.213 -53.787  1.00  0.00     0.117 A 
HETATM   27  N   UNL     1     -39.517  50.046 -52.521  1.00  0.00    -0.273 NA
HETATM   28  C   UNL     1     -39.548  51.137 -51.729  1.00  0.00     0.117 A 
HETATM   29  C   UNL     1     -39.981  52.384 -52.151  1.00  0.00     0.033 A 
ENDBRANCH   7  24
TORSDOF 5
ENDMDL
MODEL 6
REMARK VINA RESULT:      -7.6      2.967      9.039
REMARK  5 active torsions:
REMARK  status: ('A' for Active; 'I' for Inactive)
REMARK    1  A    between atoms: O_2  and  C_3 
REMARK    2  A    between atoms: C_7  and  C_8 
REMARK    3  A    between atoms: C_8  and  N_9 
REMARK       I    between atoms: N_9  and  C_10 
REMARK    4  A    between atoms: C_10  and  C_12 
REMARK    5  A    between atoms: C_18  and  C_22 
ROOT
HETATM    1  C   UNL     1     -42.774  56.485 -56.393  1.00  0.00     0.061 A 
HETATM    2  C   UNL     1     -42.946  55.592 -57.446  1.00  0.00     0.108 A 
HETATM    3  N   UNL     1     -42.752  56.267 -58.625  1.00  0.00    -0.349 N 
HETATM    4  H   UNL     1     -42.815  55.884 -59.557  1.00  0.00     0.167 HD
HETATM    5  C   UNL     1     -42.460  57.575 -58.367  1.00  0.00     0.139 A 
HETATM    6  N   UNL     1     -42.217  58.493 -59.319  1.00  0.00    -0.230 NA
HETATM    7  C   UNL     1     -41.962  59.738 -58.841  1.00  0.00     0.069 A 
HETATM    8  C   UNL     1     -41.935  60.043 -57.475  1.00  0.00     0.033 A 
HETATM    9  C   UNL     1     -42.192  59.048 -56.526  1.00  0.00     0.018 A 
HETATM   10  C   UNL     1     -42.469  57.754 -56.992  1.00  0.00     0.027 A 
ENDROOT
BRANCH   1  11
HETATM   11  C   UNL     1     -42.896  56.207 -54.961  1.00  0.00     0.254 C 
HETATM   12  N   UNL     1     -41.727  55.852 -54.331  1.00  0.00    -0.353 N 
HETATM   13  H   UNL     1     -40.849  55.932 -54.822  1.00  0.00     0.163 HD
HETATM   14  O   UNL     1     -43.963  56.293 -54.362  1.00  0.00    -0.268 OA
BRANCH  12  15
HETATM   15  C   UNL     1     -41.696  55.595 -52.913  1.00  0.00     0.161 C 
BRANCH  15  16
HETATM   16  C   UNL     1     -40.985  54.301 -52.623  1.00  0.00    -0.038 A 
HETATM   17  C   UNL     1     -40.632  53.974 -51.306  1.00  0.00     0.009 A 
HETATM   18  C   UNL     1     -40.000  52.764 -51.027  1.00  0.00     0.003 A 
HETATM   19  C   UNL     1     -39.720  51.873 -52.062  1.00  0.00     0.037 A 
HETATM   20  C   UNL     1     -40.068  52.177 -53.380  1.00  0.00     0.068 A 
HETATM   21  C   UNL     1     -40.704  53.390 -53.656  1.00  0.00     0.045 A 
BRANCH  20  22
HETATM   22  O   UNL     1     -39.739  51.214 -54.294  1.00  0.00    -0.356 OA
HETATM   23  C   UNL     1     -39.870  49.860 -53.880  1.00  0.00     0.210 C 
ENDBRANCH  20  22
ENDBRANCH  15  16
ENDBRANCH  12  15
ENDBRANCH   1  11
BRANCH   7  24
HETATM   24  C   UNL     1     -41.700  60.758 -59.881  1.00  0.00    -0.005 A 
HETATM   25  C   UNL     1     -42.134  60.608 -61.206  1.00  0.00     0.033 A 
HETATM   26  C   UNL     1     -41.854  61.605 -62.131  1.00  0.00     0.117 A 
HETATM   27  N   UNL     1     -41.177  62.733 -61.840  1.00  0.00    -0.273 NA
HETATM   28  C   UNL     1     -40.752  62.865 -60.567  1.00  0.00     0.117 A 
HETATM   29  C   UNL     1     -40.984  61.925 -59.576  1.00  0.00     0.033 A 
ENDBRANCH   7  24
TORSDOF 5
ENDMDL
MODEL 7
REMARK VINA RESULT:      -7.6      3.075      4.930
REMARK  5 active torsions:
REMARK  status: ('A' for Active; 'I' for Inactive)
REMARK    1  A    between atoms: O_2  and  C_3 
REMARK    2  A    between atoms: C_7  and  C_8 
REMARK    3  A    between atoms: C_8  and  N_9 
REMARK       I    between atoms: N_9  and  C_10 
REMARK    4  A    between atoms: C_10  and  C_12 
REMARK    5  A    between atoms: C_18  and  C_22 
ROOT
HETATM    1  C   UNL     1     -41.424  57.453 -52.581  1.00  0.00     0.061 A 
HETATM    2  C   UNL     1     -41.621  57.310 -51.211  1.00  0.00     0.108 A 
HETATM    3  N   UNL     1     -41.386  56.001 -50.871  1.00  0.00    -0.349 N 
HETATM    4  H   UNL     1     -41.456  55.595 -49.949  1.00  0.00     0.167 HD
HETATM    5  C   UNL     1     -41.044  55.288 -51.983  1.00  0.00     0.139 A 
HETATM    6  N   UNL     1     -40.754  53.976 -51.975  1.00  0.00    -0.230 NA
HETATM    7  C   UNL     1     -40.453  53.463 -53.196  1.00  0.00     0.069 A 
HETATM    8  C   UNL     1     -40.429  54.233 -54.365  1.00  0.00     0.033 A 
HETATM    9  C   UNL     1     -40.736  55.597 -54.316  1.00  0.00     0.018 A 
HETATM   10  C   UNL     1     -41.061  56.152 -53.068  1.00  0.00     0.027 A 
ENDROOT
BRANCH   1  11
HETATM   11  C   UNL     1     -41.573  58.670 -53.380  1.00  0.00     0.254 C 
HETATM   12  N   UNL     1     -42.859  58.966 -53.763  1.00  0.00    -0.353 N 
HETATM   13  H   UNL     1     -43.630  58.440 -53.379  1.00  0.00     0.163 HD
HETATM   14  O   UNL     1     -40.619  59.381 -53.679  1.00  0.00    -0.268 OA
BRANCH  12  15
HETATM   15  C   UNL     1     -43.153  60.161 -54.514  1.00  0.00     0.161 C 
BRANCH  15  16
HETATM   16  C   UNL     1     -43.868  61.167 -53.654  1.00  0.00    -0.038 A 
HETATM   17  C   UNL     1     -44.195  62.429 -54.172  1.00  0.00     0.009 A 
HETATM   18  C   UNL     1     -44.883  63.354 -53.391  1.00  0.00     0.003 A 
HETATM   19  C   UNL     1     -45.251  63.023 -52.087  1.00  0.00     0.037 A 
HETATM   20  C   UNL     1     -44.939  61.771 -51.553  1.00  0.00     0.068 A 
HETATM   21  C   UNL     1     -44.251  60.845 -52.340  1.00  0.00     0.045 A 
BRANCH  20  22
HETATM   22  O   UNL     1     -45.362  61.579 -50.266  1.00  0.00    -0.356 OA
HETATM   23  C   UNL     1     -44.526  62.079 -49.230  1.00  0.00     0.210 C 
ENDBRANCH  20  22
ENDBRANCH  15  16
ENDBRANCH  12  15
ENDBRANCH   1  11
BRANCH   7  24
HETATM   24  C   UNL     1     -40.139  52.017 -53.199  1.00  0.00    -0.005 A 
HETATM   25  C   UNL     1     -39.706  51.340 -52.050  1.00  0.00     0.033 A 
HETATM   26  C   UNL     1     -39.428  49.982 -52.123  1.00  0.00     0.117 A 
HETATM   27  N   UNL     1     -39.548  49.249 -53.248  1.00  0.00    -0.273 NA
HETATM   28  C   UNL     1     -39.952  49.908 -54.352  1.00  0.00     0.117 A 
HETATM   29  C   UNL     1     -40.252  51.262 -54.375  1.00  0.00     0.033 A 
ENDBRANCH   7  24
TORSDOF 5
ENDMDL
MODEL 8
REMARK VINA RESULT:      -7.5      3.050      5.402
REMARK  5 active torsions:
REMARK  status: ('A' for Active; 'I' for Inactive)
REMARK    1  A    between atoms: O_2  and  C_3 
REMARK    2  A    between atoms: C_7  and  C_8 
REMARK    3  A    between atoms: C_8  and  N_9 
REMARK       I    between atoms: N_9  and  C_10 
REMARK    4  A    between atoms: C_10  and  C_12 
REMARK    5  A    between atoms: C_18  and  C_22 
ROOT
HETATM    1  C   UNL     1     -42.002  56.980 -55.316  1.00  0.00     0.061 A 
HETATM    2  C   UNL     1     -42.394  56.442 -56.537  1.00  0.00     0.108 A 
HETATM    3  N   UNL     1     -42.131  55.095 -56.526  1.00  0.00    -0.349 N 
HETATM    4  H   UNL     1     -42.302  54.440 -57.275  1.00  0.00     0.167 HD
HETATM    5  C   UNL     1     -41.576  54.742 -55.329  1.00  0.00     0.139 A 
HETATM    6  N   UNL     1     -41.207  53.490 -55.012  1.00  0.00    -0.230 NA
HETATM    7  C   UNL     1     -40.663  53.365 -53.774  1.00  0.00     0.069 A 
HETATM    8  C   UNL     1     -40.514  54.441 -52.892  1.00  0.00     0.033 A 
HETATM    9  C   UNL     1     -40.918  55.725 -53.271  1.00  0.00     0.018 A 
HETATM   10  C   UNL     1     -41.474  55.885 -54.551  1.00  0.00     0.027 A 
ENDROOT
BRANCH   1  11
HETATM   11  C   UNL     1     -42.087  58.377 -54.890  1.00  0.00     0.254 C 
HETATM   12  N   UNL     1     -42.462  58.570 -53.582  1.00  0.00    -0.353 N 
HETATM   13  H   UNL     1     -42.524  57.781 -52.957  1.00  0.00     0.163 HD
HETATM   14  O   UNL     1     -41.831  59.312 -55.643  1.00  0.00    -0.268 OA
BRANCH  12  15
HETATM   15  C   UNL     1     -42.541  59.895 -53.020  1.00  0.00     0.161 C 
BRANCH  15  16
HETATM   16  C   UNL     1     -43.913  60.154 -52.460  1.00  0.00    -0.038 A 
HETATM   17  C   UNL     1     -44.944  60.596 -53.302  1.00  0.00     0.009 A 
HETATM   18  C   UNL     1     -46.224  60.809 -52.795  1.00  0.00     0.003 A 
HETATM   19  C   UNL     1     -46.483  60.578 -51.444  1.00  0.00     0.037 A 
HETATM   20  C   UNL     1     -45.472  60.133 -50.590  1.00  0.00     0.068 A 
HETATM   21  C   UNL     1     -44.190  59.918 -51.102  1.00  0.00     0.045 A 
BRANCH  20  22
HETATM   22  O   UNL     1     -45.864  59.944 -49.293  1.00  0.00    -0.356 OA
HETATM   23  C   UNL     1     -45.484  60.940 -48.352  1.00  0.00     0.210 C 
ENDBRANCH  20  22
ENDBRANCH  15  16
ENDBRANCH  12  15
ENDBRANCH   1  11
BRANCH   7  24
HETATM   24  C   UNL     1     -40.247  51.990 -53.417  1.00  0.00    -0.005 A 
HETATM   25  C   UNL     1     -39.905  51.624 -52.108  1.00  0.00     0.033 A 
HETATM   26  C   UNL     1     -39.524  50.316 -51.843  1.00  0.00     0.117 A 
HETATM   27  N   UNL     1     -39.456  49.348 -52.779  1.00  0.00    -0.273 NA
HETATM   28  C   UNL     1     -39.774  49.709 -54.038  1.00  0.00     0.117 A 
HETATM   29  C   UNL     1     -40.166  50.990 -54.397  1.00  0.00     0.033 A 
ENDBRANCH   7  24
TORSDOF 5
ENDMDL
MODEL 9
REMARK VINA RESULT:      -7.4      4.334      9.117
REMARK  5 active torsions:
REMARK  status: ('A' for Active; 'I' for Inactive)
REMARK    1  A    between atoms: O_2  and  C_3 
REMARK    2  A    between atoms: C_7  and  C_8 
REMARK    3  A    between atoms: C_8  and  N_9 
REMARK       I    between atoms: N_9  and  C_10 
REMARK    4  A    between atoms: C_10  and  C_12 
REMARK    5  A    between atoms: C_18  and  C_22 
ROOT
HETATM    1  C   UNL     1     -42.933  57.519 -52.709  1.00  0.00     0.061 A 
HETATM    2  C   UNL     1     -44.269  57.134 -52.725  1.00  0.00     0.108 A 
HETATM    3  N   UNL     1     -44.986  58.012 -51.953  1.00  0.00    -0.349 N 
HETATM    4  H   UNL     1     -45.979  57.986 -51.771  1.00  0.00     0.167 HD
HETATM    5  C   UNL     1     -44.151  58.959 -51.433  1.00  0.00     0.139 A 
HETATM    6  N   UNL     1     -44.556  59.960 -50.633  1.00  0.00    -0.230 NA
HETATM    7  C   UNL     1     -43.557  60.781 -50.217  1.00  0.00     0.069 A 
HETATM    8  C   UNL     1     -42.220  60.614 -50.599  1.00  0.00     0.033 A 
HETATM    9  C   UNL     1     -41.854  59.556 -51.437  1.00  0.00     0.018 A 
HETATM   10  C   UNL     1     -42.865  58.685 -51.874  1.00  0.00     0.027 A 
ENDROOT
BRANCH   1  11
HETATM   11  C   UNL     1     -41.810  56.867 -53.384  1.00  0.00     0.254 C 
HETATM   12  N   UNL     1     -42.020  55.556 -53.739  1.00  0.00    -0.353 N 
HETATM   13  H   UNL     1     -42.942  55.156 -53.654  1.00  0.00     0.163 HD
HETATM   14  O   UNL     1     -40.758  57.451 -53.625  1.00  0.00    -0.268 OA
BRANCH  12  15
HETATM   15  C   UNL     1     -41.013  54.810 -54.451  1.00  0.00     0.161 C 
BRANCH  15  16
HETATM   16  C   UNL     1     -40.561  53.624 -53.642  1.00  0.00    -0.038 A 
HETATM   17  C   UNL     1     -40.040  52.492 -54.286  1.00  0.00     0.009 A 
HETATM   18  C   UNL     1     -39.592  51.403 -53.542  1.00  0.00     0.003 A 
HETATM   19  C   UNL     1     -39.659  51.440 -52.149  1.00  0.00     0.037 A 
HETATM   20  C   UNL     1     -40.169  52.559 -51.488  1.00  0.00     0.068 A 
HETATM   21  C   UNL     1     -40.615  53.651 -52.237  1.00  0.00     0.045 A 
BRANCH  20  22
HETATM   22  O   UNL     1     -40.172  52.463 -50.124  1.00  0.00    -0.356 OA
HETATM   23  C   UNL     1     -40.197  53.681 -49.390  1.00  0.00     0.210 C 
ENDBRANCH  20  22
ENDBRANCH  15  16
ENDBRANCH  12  15
ENDBRANCH   1  11
BRANCH   7  24
HETATM   24  C   UNL     1     -43.991  61.883 -49.330  1.00  0.00    -0.005 A 
HETATM   25  C   UNL     1     -44.743  61.660 -48.168  1.00  0.00     0.033 A 
HETATM   26  C   UNL     1     -45.117  62.741 -47.381  1.00  0.00     0.117 A 
HETATM   27  N   UNL     1     -44.801  64.021 -47.661  1.00  0.00    -0.273 NA
HETATM   28  C   UNL     1     -44.088  64.229 -48.786  1.00  0.00     0.117 A 
HETATM   29  C   UNL     1     -43.670  63.215 -49.633  1.00  0.00     0.033 A 
ENDBRANCH   7  24
TORSDOF 5
ENDMDL
MODEL 10
REMARK VINA RESULT:      -7.4     14.985     17.135
REMARK  5 active torsions:
REMARK  status: ('A' for Active; 'I' for Inactive)
REMARK    1  A    between atoms: O_2  and  C_3 
REMARK    2  A    between atoms: C_7  and  C_8 
REMARK    3  A    between atoms: C_8  and  N_9 
REMARK       I    between atoms: N_9  and  C_10 
REMARK    4  A    between atoms: C_10  and  C_12 
REMARK    5  A    between atoms: C_18  and  C_22 
ROOT
HETATM    1  C   UNL     1     -34.196  40.974 -54.377  1.00  0.00     0.061 A 
HETATM    2  C   UNL     1     -33.046  40.406 -54.916  1.00  0.00     0.108 A 
HETATM    3  N   UNL     1     -32.321  39.840 -53.899  1.00  0.00    -0.349 N 
HETATM    4  H   UNL     1     -31.436  39.360 -53.982  1.00  0.00     0.167 HD
HETATM    5  C   UNL     1     -32.967  40.025 -52.711  1.00  0.00     0.139 A 
HETATM    6  N   UNL     1     -32.506  39.584 -51.528  1.00  0.00    -0.230 NA
HETATM    7  C   UNL     1     -33.302  39.890 -50.470  1.00  0.00     0.069 A 
HETATM    8  C   UNL     1     -34.507  40.589 -50.596  1.00  0.00     0.033 A 
HETATM    9  C   UNL     1     -34.942  41.024 -51.853  1.00  0.00     0.018 A 
HETATM   10  C   UNL     1     -34.134  40.730 -52.963  1.00  0.00     0.027 A 
ENDROOT
BRANCH   1  11
HETATM   11  C   UNL     1     -35.253  41.693 -55.089  1.00  0.00     0.254 C 
HETATM   12  N   UNL     1     -36.439  41.012 -55.221  1.00  0.00    -0.353 N 
HETATM   13  H   UNL     1     -36.577  40.145 -54.724  1.00  0.00     0.163 HD
HETATM   14  O   UNL     1     -35.096  42.827 -55.530  1.00  0.00    -0.268 OA
BRANCH  12  15
HETATM   15  C   UNL     1     -37.578  41.622 -55.861  1.00  0.00     0.161 C 
BRANCH  15  16
HETATM   16  C   UNL     1     -37.611  41.276 -57.326  1.00  0.00    -0.038 A 
HETATM   17  C   UNL     1     -37.234  42.231 -58.282  1.00  0.00     0.009 A 
HETATM   18  C   UNL     1     -37.234  41.908 -59.636  1.00  0.00     0.003 A 
HETATM   19  C   UNL     1     -37.609  40.628 -60.045  1.00  0.00     0.037 A 
HETATM   20  C   UNL     1     -37.983  39.661 -59.109  1.00  0.00     0.068 A 
HETATM   21  C   UNL     1     -37.979  39.988 -57.750  1.00  0.00     0.045 A 
BRANCH  20  22
HETATM   22  O   UNL     1     -38.322  38.450 -59.645  1.00  0.00    -0.356 OA
HETATM   23  C   UNL     1     -38.940  38.461 -60.926  1.00  0.00     0.210 C 
ENDBRANCH  20  22
ENDBRANCH  15  16
ENDBRANCH  12  15
ENDBRANCH   1  11
BRANCH   7  24
HETATM   24  C   UNL     1     -32.800  39.413 -49.161  1.00  0.00    -0.005 A 
HETATM   25  C   UNL     1     -33.482  38.454 -48.399  1.00  0.00     0.033 A 
HETATM   26  C   UNL     1     -32.954  38.052 -47.180  1.00  0.00     0.117 A 
HETATM   27  N   UNL     1     -31.804  38.530 -46.663  1.00  0.00    -0.273 NA
HETATM   28  C   UNL     1     -31.160  39.460 -47.396  1.00  0.00     0.117 A 
HETATM   29  C   UNL     1     -31.609  39.923 -48.623  1.00  0.00     0.033 A 
ENDBRANCH   7  24
TORSDOF 5
ENDMDL
