MODEL 1
REMARK VINA RESULT:      -7.8      0.000      0.000
REMARK  6 active torsions:
REMARK  status: ('A' for Active; 'I' for Inactive)
REMARK    1  A    between atoms: C_9  and  C_10 
REMARK       I    between atoms: C_10  and  N_11 
REMARK    2  A    between atoms: N_11  and  C_12 
REMARK    3  A    between atoms: C_12  and  C_13 
REMARK    4  A    between atoms: C_13  and  O_14 
REMARK    5  A    between atoms: C_13  and  C_15 
REMARK    6  A    between atoms: C_18  and  O_19 
ROOT
HETATM    1  C   UNL     1     -41.042  55.718 -50.214  1.00  0.00     0.258 C 
HETATM    2  N   UNL     1     -41.012  56.618 -51.255  1.00  0.00    -0.350 N 
HETATM    3  O   UNL     1     -41.350  56.042 -49.071  1.00  0.00    -0.267 OA
HETATM    4  H   UNL     1     -40.639  56.294 -52.148  1.00  0.00     0.163 HD
ENDROOT
BRANCH   2   5
HETATM    5  C   UNL     1     -41.251  58.049 -51.064  1.00  0.00     0.114 C 
HETATM    6  C   UNL     1     -40.022  58.833 -51.533  1.00  0.00     0.035 C 
BRANCH   5   7
HETATM    7  C   UNL     1     -42.569  58.477 -51.770  1.00  0.00     0.173 C 
BRANCH   7   8
HETATM    8  O   UNL     1     -43.696  58.351 -50.898  1.00  0.00    -0.389 OA
HETATM    9  H   UNL     1     -44.101  57.487 -51.086  1.00  0.00     0.210 HD
ENDBRANCH   7   8
BRANCH   7  10
HETATM   10  C   UNL     1     -42.814  57.741 -53.075  1.00  0.00    -0.028 A 
HETATM   11  C   UNL     1     -42.187  58.187 -54.247  1.00  0.00     0.012 A 
HETATM   12  C   UNL     1     -42.370  57.507 -55.453  1.00  0.00     0.037 A 
HETATM   13  C   UNL     1     -43.167  56.364 -55.514  1.00  0.00     0.068 A 
HETATM   14  C   UNL     1     -43.802  55.918 -54.356  1.00  0.00     0.037 A 
HETATM   15  C   UNL     1     -43.629  56.603 -53.147  1.00  0.00     0.012 A 
BRANCH  13  16
HETATM   16  O   UNL     1     -43.248  55.788 -56.751  1.00  0.00    -0.356 OA
HETATM   17  C   UNL     1     -43.174  56.661 -57.870  1.00  0.00     0.210 C 
ENDBRANCH  13  16
ENDBRANCH   7  10
ENDBRANCH   5   7
ENDBRANCH   2   5
BRANCH   1  18
HETATM   18  C   UNL     1     -40.685  54.351 -50.559  1.00  0.00     0.105 A 
HETATM   19  C   UNL     1     -40.493  53.809 -51.817  1.00  0.00     0.169 A 
HETATM   20  N   UNL     1     -40.572  54.364 -53.070  1.00  0.00    -0.233 NA
HETATM   21  N   UNL     1     -40.177  52.458 -51.621  1.00  0.00    -0.219 N 
HETATM   22  C   UNL     1     -40.331  53.572 -54.073  1.00  0.00     0.035 A 
HETATM   23  C   UNL     1     -40.419  54.129 -55.470  1.00  0.00     0.070 C 
HETATM   24  C   UNL     1     -39.962  52.127 -53.955  1.00  0.00     0.053 A 
HETATM   25  C   UNL     1     -39.910  51.619 -52.713  1.00  0.00     0.036 A 
HETATM   26  C   UNL     1     -39.558  50.185 -52.453  1.00  0.00     0.070 C 
HETATM   27  N   UNL     1     -40.163  52.136 -50.305  1.00  0.00    -0.170 NA
HETATM   28  C   UNL     1     -40.458  53.272 -49.666  1.00  0.00     0.071 A 
HETATM   29  C   UNL     1     -40.513  53.291 -48.180  1.00  0.00     0.073 C 
ENDBRANCH   1  18
TORSDOF 6
ENDMDL
MODEL 2
REMARK VINA RESULT:      -7.5      2.682      5.259
REMARK  6 active torsions:
REMARK  status: ('A' for Active; 'I' for Inactive)
REMARK    1  A    between atoms: C_9  and  C_10 
REMARK       I    between atoms: C_10  and  N_11 
REMARK    2  A    between atoms: N_11  and  C_12 
REMARK    3  A    between atoms: C_12  and  C_13 
REMARK    4  A    between atoms: C_13  and  O_14 
REMARK    5  A    between atoms: C_13  and  C_15 
REMARK    6  A    between atoms: C_18  and  O_19 
ROOT
HETATM    1  C   UNL     1     -43.919  56.794 -54.396  1.00  0.00     0.258 C 
HETATM    2  N   UNL     1     -42.972  57.127 -55.338  1.00  0.00    -0.350 N 
HETATM    3  O   UNL     1     -45.122  56.911 -54.600  1.00  0.00    -0.267 OA
HETATM    4  H   UNL     1     -41.993  57.106 -55.052  1.00  0.00     0.163 HD
ENDROOT
BRANCH   2   5
HETATM    5  C   UNL     1     -43.323  57.736 -56.623  1.00  0.00     0.114 C 
HETATM    6  C   UNL     1     -42.783  59.168 -56.665  1.00  0.00     0.035 C 
BRANCH   5   7
HETATM    7  C   UNL     1     -42.824  56.847 -57.797  1.00  0.00     0.173 C 
BRANCH   7   8
HETATM    8  O   UNL     1     -41.699  57.434 -58.459  1.00  0.00    -0.389 OA
HETATM    9  H   UNL     1     -41.875  57.378 -59.414  1.00  0.00     0.210 HD
ENDBRANCH   7   8
BRANCH   7  10
HETATM   10  C   UNL     1     -43.917  56.505 -58.794  1.00  0.00    -0.028 A 
HETATM   11  C   UNL     1     -45.127  57.212 -58.762  1.00  0.00     0.012 A 
HETATM   12  C   UNL     1     -46.134  56.939 -59.690  1.00  0.00     0.037 A 
HETATM   13  C   UNL     1     -45.951  55.969 -60.676  1.00  0.00     0.068 A 
HETATM   14  C   UNL     1     -44.755  55.254 -60.711  1.00  0.00     0.037 A 
HETATM   15  C   UNL     1     -43.747  55.519 -59.776  1.00  0.00     0.012 A 
BRANCH  13  16
HETATM   16  O   UNL     1     -47.009  55.814 -61.529  1.00  0.00    -0.356 OA
HETATM   17  C   UNL     1     -47.909  56.909 -61.637  1.00  0.00     0.210 C 
ENDBRANCH  13  16
ENDBRANCH   7  10
ENDBRANCH   5   7
ENDBRANCH   2   5
BRANCH   1  18
HETATM   18  C   UNL     1     -43.395  56.290 -53.136  1.00  0.00     0.105 A 
HETATM   19  C   UNL     1     -42.505  55.251 -52.934  1.00  0.00     0.169 A 
HETATM   20  N   UNL     1     -41.868  54.413 -53.815  1.00  0.00    -0.233 NA
HETATM   21  N   UNL     1     -42.325  55.149 -51.548  1.00  0.00    -0.219 N 
HETATM   22  C   UNL     1     -41.078  53.518 -53.299  1.00  0.00     0.035 A 
HETATM   23  C   UNL     1     -40.366  52.564 -54.222  1.00  0.00     0.070 C 
HETATM   24  C   UNL     1     -40.806  53.355 -51.837  1.00  0.00     0.053 A 
HETATM   25  C   UNL     1     -41.461  54.184 -51.007  1.00  0.00     0.036 A 
HETATM   26  C   UNL     1     -41.285  54.125 -49.519  1.00  0.00     0.070 C 
HETATM   27  N   UNL     1     -43.056  56.073 -50.882  1.00  0.00    -0.170 NA
HETATM   28  C   UNL     1     -43.692  56.766 -51.832  1.00  0.00     0.071 A 
HETATM   29  C   UNL     1     -44.586  57.891 -51.454  1.00  0.00     0.073 C 
ENDBRANCH   1  18
TORSDOF 6
ENDMDL
MODEL 3
REMARK VINA RESULT:      -7.4      2.888      7.278
REMARK  6 active torsions:
REMARK  status: ('A' for Active; 'I' for Inactive)
REMARK    1  A    between atoms: C_9  and  C_10 
REMARK       I    between atoms: C_10  and  N_11 
REMARK    2  A    between atoms: N_11  and  C_12 
REMARK    3  A    between atoms: C_12  and  C_13 
REMARK    4  A    between atoms: C_13  and  O_14 
REMARK    5  A    between atoms: C_13  and  C_15 
REMARK    6  A    between atoms: C_18  and  O_19 
ROOT
HETATM    1  C   UNL     1     -42.095  57.274 -51.590  1.00  0.00     0.258 C 
HETATM    2  N   UNL     1     -42.275  57.004 -52.928  1.00  0.00    -0.350 N 
HETATM    3  O   UNL     1     -41.949  56.390 -50.752  1.00  0.00    -0.267 OA
HETATM    4  H   UNL     1     -42.500  57.787 -53.541  1.00  0.00     0.163 HD
ENDROOT
BRANCH   2   5
HETATM    5  C   UNL     1     -42.400  55.639 -53.443  1.00  0.00     0.114 C 
HETATM    6  C   UNL     1     -43.614  55.562 -54.373  1.00  0.00     0.035 C 
BRANCH   5   7
HETATM    7  C   UNL     1     -41.071  55.189 -54.114  1.00  0.00     0.173 C 
BRANCH   7   8
HETATM    8  O   UNL     1     -41.172  55.205 -55.541  1.00  0.00    -0.389 OA
HETATM    9  H   UNL     1     -40.744  56.025 -55.843  1.00  0.00     0.210 HD
ENDBRANCH   7   8
BRANCH   7  10
HETATM   10  C   UNL     1     -40.581  53.838 -53.623  1.00  0.00    -0.028 A 
HETATM   11  C   UNL     1     -40.438  53.614 -52.247  1.00  0.00     0.012 A 
HETATM   12  C   UNL     1     -40.022  52.369 -51.770  1.00  0.00     0.037 A 
HETATM   13  C   UNL     1     -39.753  51.321 -52.651  1.00  0.00     0.068 A 
HETATM   14  C   UNL     1     -39.884  51.537 -54.022  1.00  0.00     0.037 A 
HETATM   15  C   UNL     1     -40.293  52.787 -54.504  1.00  0.00     0.012 A 
BRANCH  13  16
HETATM   16  O   UNL     1     -39.370  50.153 -52.051  1.00  0.00    -0.356 OA
HETATM   17  C   UNL     1     -39.738  49.983 -50.689  1.00  0.00     0.210 C 
ENDBRANCH  13  16
ENDBRANCH   7  10
ENDBRANCH   5   7
ENDBRANCH   2   5
BRANCH   1  18
HETATM   18  C   UNL     1     -42.089  58.684 -51.233  1.00  0.00     0.105 A 
HETATM   19  C   UNL     1     -43.144  59.578 -51.260  1.00  0.00     0.169 A 
HETATM   20  N   UNL     1     -44.462  59.422 -51.610  1.00  0.00    -0.233 NA
HETATM   21  N   UNL     1     -42.628  60.811 -50.839  1.00  0.00    -0.219 N 
HETATM   22  C   UNL     1     -45.215  60.478 -51.526  1.00  0.00     0.035 A 
HETATM   23  C   UNL     1     -46.667  60.362 -51.912  1.00  0.00     0.070 C 
HETATM   24  C   UNL     1     -44.756  61.824 -51.063  1.00  0.00     0.053 A 
HETATM   25  C   UNL     1     -43.456  61.940 -50.745  1.00  0.00     0.036 A 
HETATM   26  C   UNL     1     -42.864  63.233 -50.272  1.00  0.00     0.070 C 
HETATM   27  N   UNL     1     -41.307  60.726 -50.553  1.00  0.00    -0.170 NA
HETATM   28  C   UNL     1     -40.983  59.449 -50.779  1.00  0.00     0.071 A 
HETATM   29  C   UNL     1     -39.590  58.988 -50.546  1.00  0.00     0.073 C 
ENDBRANCH   1  18
TORSDOF 6
ENDMDL
MODEL 4
REMARK VINA RESULT:      -7.2      2.507      4.636
REMARK  6 active torsions:
REMARK  status: ('A' for Active; 'I' for Inactive)
REMARK    1  A    between atoms: C_9  and  C_10 
REMARK       I    between atoms: C_10  and  N_11 
REMARK    2  A    between atoms: N_11  and  C_12 
REMARK    3  A    between atoms: C_12  and  C_13 
REMARK    4  A    between atoms: C_13  and  O_14 
REMARK    5  A    between atoms: C_13  and  C_15 
REMARK    6  A    between atoms: C_18  and  O_19 
ROOT
HETATM    1  C   UNL     1     -41.679  58.633 -53.585  1.00  0.00     0.258 C 
HETATM    2  N   UNL     1     -42.840  58.347 -54.268  1.00  0.00    -0.350 N 
HETATM    3  O   UNL     1     -40.908  59.520 -53.935  1.00  0.00    -0.267 OA
HETATM    4  H   UNL     1     -43.367  57.523 -53.978  1.00  0.00     0.163 HD
ENDROOT
BRANCH   2   5
HETATM    5  C   UNL     1     -43.199  59.016 -55.519  1.00  0.00     0.114 C 
HETATM    6  C   UNL     1     -43.546  60.478 -55.226  1.00  0.00     0.035 C 
BRANCH   5   7
HETATM    7  C   UNL     1     -42.066  58.844 -56.570  1.00  0.00     0.173 C 
BRANCH   7   8
HETATM    8  O   UNL     1     -41.505  60.104 -56.948  1.00  0.00    -0.389 OA
HETATM    9  H   UNL     1     -41.027  59.959 -57.783  1.00  0.00     0.210 HD
ENDBRANCH   7   8
BRANCH   7  10
HETATM   10  C   UNL     1     -42.500  58.058 -57.795  1.00  0.00    -0.028 A 
HETATM   11  C   UNL     1     -43.182  56.845 -57.631  1.00  0.00     0.012 A 
HETATM   12  C   UNL     1     -43.622  56.121 -58.741  1.00  0.00     0.037 A 
HETATM   13  C   UNL     1     -43.404  56.598 -60.034  1.00  0.00     0.068 A 
HETATM   14  C   UNL     1     -42.719  57.799 -60.209  1.00  0.00     0.037 A 
HETATM   15  C   UNL     1     -42.269  58.522 -59.097  1.00  0.00     0.012 A 
BRANCH  13  16
HETATM   16  O   UNL     1     -43.900  55.800 -61.029  1.00  0.00    -0.356 OA
HETATM   17  C   UNL     1     -45.056  55.034 -60.717  1.00  0.00     0.210 C 
ENDBRANCH  13  16
ENDBRANCH   7  10
ENDBRANCH   5   7
ENDBRANCH   2   5
BRANCH   1  18
HETATM   18  C   UNL     1     -41.425  57.809 -52.413  1.00  0.00     0.105 A 
HETATM   19  C   UNL     1     -41.266  56.436 -52.351  1.00  0.00     0.169 A 
HETATM   20  N   UNL     1     -41.293  55.470 -53.326  1.00  0.00    -0.233 NA
HETATM   21  N   UNL     1     -41.056  56.124 -51.001  1.00  0.00    -0.219 N 
HETATM   22  C   UNL     1     -41.106  54.244 -52.936  1.00  0.00     0.035 A 
HETATM   23  C   UNL     1     -41.141  53.145 -53.966  1.00  0.00     0.070 C 
HETATM   24  C   UNL     1     -40.850  53.823 -51.523  1.00  0.00     0.053 A 
HETATM   25  C   UNL     1     -40.846  54.796 -50.597  1.00  0.00     0.036 A 
HETATM   26  C   UNL     1     -40.607  54.512 -49.145  1.00  0.00     0.070 C 
HETATM   27  N   UNL     1     -41.076  57.233 -50.225  1.00  0.00    -0.170 NA
HETATM   28  C   UNL     1     -41.288  58.246 -51.070  1.00  0.00     0.071 A 
HETATM   29  C   UNL     1     -41.352  59.638 -50.554  1.00  0.00     0.073 C 
ENDBRANCH   1  18
TORSDOF 6
ENDMDL
MODEL 5
REMARK VINA RESULT:      -7.2      4.358      8.956
REMARK  6 active torsions:
REMARK  status: ('A' for Active; 'I' for Inactive)
REMARK    1  A    between atoms: C_9  and  C_10 
REMARK       I    between atoms: C_10  and  N_11 
REMARK    2  A    between atoms: N_11  and  C_12 
REMARK    3  A    between atoms: C_12  and  C_13 
REMARK    4  A    between atoms: C_13  and  O_14 
REMARK    5  A    between atoms: C_13  and  C_15 
REMARK    6  A    between atoms: C_18  and  O_19 
ROOT
HETATM    1  C   UNL     1     -43.581  56.170 -58.327  1.00  0.00     0.258 C 
HETATM    2  N   UNL     1     -43.787  55.985 -56.978  1.00  0.00    -0.350 N 
HETATM    3  O   UNL     1     -42.549  55.824 -58.891  1.00  0.00    -0.267 OA
HETATM    4  H   UNL     1     -44.622  56.400 -56.567  1.00  0.00     0.163 HD
ENDROOT
BRANCH   2   5
HETATM    5  C   UNL     1     -42.752  55.445 -56.094  1.00  0.00     0.114 C 
HETATM    6  C   UNL     1     -42.013  56.603 -55.418  1.00  0.00     0.035 C 
BRANCH   5   7
HETATM    7  C   UNL     1     -43.373  54.432 -55.090  1.00  0.00     0.173 C 
BRANCH   7   8
HETATM    8  O   UNL     1     -44.483  55.000 -54.390  1.00  0.00    -0.389 OA
HETATM    9  H   UNL     1     -44.316  54.863 -53.441  1.00  0.00     0.210 HD
ENDBRANCH   7   8
BRANCH   7  10
HETATM   10  C   UNL     1     -42.359  53.856 -54.118  1.00  0.00    -0.028 A 
HETATM   11  C   UNL     1     -41.344  53.017 -54.595  1.00  0.00     0.012 A 
HETATM   12  C   UNL     1     -40.379  52.503 -53.725  1.00  0.00     0.037 A 
HETATM   13  C   UNL     1     -40.399  52.825 -52.368  1.00  0.00     0.068 A 
HETATM   14  C   UNL     1     -41.410  53.653 -51.882  1.00  0.00     0.037 A 
HETATM   15  C   UNL     1     -42.384  54.162 -52.750  1.00  0.00     0.012 A 
BRANCH  13  16
HETATM   16  O   UNL     1     -39.389  52.268 -51.633  1.00  0.00    -0.356 OA
HETATM   17  C   UNL     1     -39.398  50.853 -51.503  1.00  0.00     0.210 C 
ENDBRANCH  13  16
ENDBRANCH   7  10
ENDBRANCH   5   7
ENDBRANCH   2   5
BRANCH   1  18
HETATM   18  C   UNL     1     -44.675  56.808 -59.043  1.00  0.00     0.105 A 
HETATM   19  C   UNL     1     -45.311  58.000 -58.748  1.00  0.00     0.169 A 
HETATM   20  N   UNL     1     -45.116  58.912 -57.740  1.00  0.00    -0.233 NA
HETATM   21  N   UNL     1     -46.301  58.172 -59.725  1.00  0.00    -0.219 N 
HETATM   22  C   UNL     1     -45.895  59.952 -57.738  1.00  0.00     0.035 A 
HETATM   23  C   UNL     1     -45.732  60.976 -56.645  1.00  0.00     0.070 C 
HETATM   24  C   UNL     1     -46.959  60.229 -58.754  1.00  0.00     0.053 A 
HETATM   25  C   UNL     1     -47.128  59.306 -59.715  1.00  0.00     0.036 A 
HETATM   26  C   UNL     1     -48.161  59.456 -60.791  1.00  0.00     0.070 C 
HETATM   27  N   UNL     1     -46.310  57.147 -60.610  1.00  0.00    -0.170 NA
HETATM   28  C   UNL     1     -45.330  56.332 -60.209  1.00  0.00     0.071 A 
HETATM   29  C   UNL     1     -45.040  55.092 -60.975  1.00  0.00     0.073 C 
ENDBRANCH   1  18
TORSDOF 6
ENDMDL
MODEL 6
REMARK VINA RESULT:      -7.1      3.202      6.928
REMARK  6 active torsions:
REMARK  status: ('A' for Active; 'I' for Inactive)
REMARK    1  A    between atoms: C_9  and  C_10 
REMARK       I    between atoms: C_10  and  N_11 
REMARK    2  A    between atoms: N_11  and  C_12 
REMARK    3  A    between atoms: C_12  and  C_13 
REMARK    4  A    between atoms: C_13  and  O_14 
REMARK    5  A    between atoms: C_13  and  C_15 
REMARK    6  A    between atoms: C_18  and  O_19 
ROOT
HETATM    1  C   UNL     1     -43.457  57.418 -54.834  1.00  0.00     0.258 C 
HETATM    2  N   UNL     1     -42.437  57.181 -53.940  1.00  0.00    -0.350 N 
HETATM    3  O   UNL     1     -44.634  57.199 -54.565  1.00  0.00    -0.267 OA
HETATM    4  H   UNL     1     -41.480  57.283 -54.279  1.00  0.00     0.163 HD
ENDROOT
BRANCH   2   5
HETATM    5  C   UNL     1     -42.665  56.562 -52.634  1.00  0.00     0.114 C 
HETATM    6  C   UNL     1     -43.570  57.471 -51.797  1.00  0.00     0.035 C 
BRANCH   5   7
HETATM    7  C   UNL     1     -43.221  55.120 -52.808  1.00  0.00     0.173 C 
BRANCH   7   8
HETATM    8  O   UNL     1     -44.056  54.743 -51.709  1.00  0.00    -0.389 OA
HETATM    9  H   UNL     1     -43.839  53.819 -51.496  1.00  0.00     0.210 HD
ENDBRANCH   7   8
BRANCH   7  10
HETATM   10  C   UNL     1     -42.135  54.084 -53.039  1.00  0.00    -0.028 A 
HETATM   11  C   UNL     1     -41.334  53.673 -51.964  1.00  0.00     0.012 A 
HETATM   12  C   UNL     1     -40.351  52.696 -52.144  1.00  0.00     0.037 A 
HETATM   13  C   UNL     1     -40.156  52.103 -53.392  1.00  0.00     0.068 A 
HETATM   14  C   UNL     1     -40.941  52.512 -54.468  1.00  0.00     0.037 A 
HETATM   15  C   UNL     1     -41.921  53.497 -54.293  1.00  0.00     0.012 A 
BRANCH  13  16
HETATM   16  O   UNL     1     -39.173  51.152 -53.425  1.00  0.00    -0.356 OA
HETATM   17  C   UNL     1     -39.417  50.008 -54.231  1.00  0.00     0.210 C 
ENDBRANCH  13  16
ENDBRANCH   7  10
ENDBRANCH   5   7
ENDBRANCH   2   5
BRANCH   1  18
HETATM   18  C   UNL     1     -43.046  57.948 -56.124  1.00  0.00     0.105 A 
HETATM   19  C   UNL     1     -43.155  57.353 -57.368  1.00  0.00     0.169 A 
HETATM   20  N   UNL     1     -43.664  56.138 -57.755  1.00  0.00    -0.233 NA
HETATM   21  N   UNL     1     -42.609  58.257 -58.288  1.00  0.00    -0.219 N 
HETATM   22  C   UNL     1     -43.619  55.866 -59.026  1.00  0.00     0.035 A 
HETATM   23  C   UNL     1     -44.151  54.539 -59.501  1.00  0.00     0.070 C 
HETATM   24  C   UNL     1     -43.078  56.781 -60.079  1.00  0.00     0.053 A 
HETATM   25  C   UNL     1     -42.576  57.953 -59.658  1.00  0.00     0.036 A 
HETATM   26  C   UNL     1     -41.999  58.960 -60.608  1.00  0.00     0.070 C 
HETATM   27  N   UNL     1     -42.167  59.382 -57.678  1.00  0.00    -0.170 NA
HETATM   28  C   UNL     1     -42.437  59.204 -56.381  1.00  0.00     0.071 A 
HETATM   29  C   UNL     1     -42.096  60.269 -55.402  1.00  0.00     0.073 C 
ENDBRANCH   1  18
TORSDOF 6
ENDMDL
MODEL 7
REMARK VINA RESULT:      -7.1      2.911      6.127
REMARK  6 active torsions:
REMARK  status: ('A' for Active; 'I' for Inactive)
REMARK    1  A    between atoms: C_9  and  C_10 
REMARK       I    between atoms: C_10  and  N_11 
REMARK    2  A    between atoms: N_11  and  C_12 
REMARK    3  A    between atoms: C_12  and  C_13 
REMARK    4  A    between atoms: C_13  and  O_14 
REMARK    5  A    between atoms: C_13  and  C_15 
REMARK    6  A    between atoms: C_18  and  O_19 
ROOT
HETATM    1  C   UNL     1     -43.044  56.655 -55.299  1.00  0.00     0.258 C 
HETATM    2  N   UNL     1     -42.228  56.765 -56.402  1.00  0.00    -0.350 N 
HETATM    3  O   UNL     1     -44.226  56.982 -55.316  1.00  0.00    -0.267 OA
HETATM    4  H   UNL     1     -41.234  56.578 -56.275  1.00  0.00     0.163 HD
ENDROOT
BRANCH   2   5
HETATM    5  C   UNL     1     -42.682  57.369 -57.656  1.00  0.00     0.114 C 
HETATM    6  C   UNL     1     -41.696  58.464 -58.074  1.00  0.00     0.035 C 
BRANCH   5   7
HETATM    7  C   UNL     1     -42.891  56.273 -58.740  1.00  0.00     0.173 C 
BRANCH   7   8
HETATM    8  O   UNL     1     -41.859  56.311 -59.730  1.00  0.00    -0.389 OA
HETATM    9  H   UNL     1     -41.212  55.626 -59.486  1.00  0.00     0.210 HD
ENDBRANCH   7   8
BRANCH   7  10
HETATM   10  C   UNL     1     -44.263  56.328 -59.389  1.00  0.00    -0.028 A 
HETATM   11  C   UNL     1     -44.563  55.456 -60.444  1.00  0.00     0.012 A 
HETATM   12  C   UNL     1     -45.829  55.465 -61.035  1.00  0.00     0.037 A 
HETATM   13  C   UNL     1     -46.823  56.330 -60.578  1.00  0.00     0.068 A 
HETATM   14  C   UNL     1     -46.532  57.208 -59.535  1.00  0.00     0.037 A 
HETATM   15  C   UNL     1     -45.261  57.208 -58.947  1.00  0.00     0.012 A 
BRANCH  13  16
HETATM   16  O   UNL     1     -48.019  56.224 -61.233  1.00  0.00    -0.356 OA
HETATM   17  C   UNL     1     -48.355  57.278 -62.125  1.00  0.00     0.210 C 
ENDBRANCH  13  16
ENDBRANCH   7  10
ENDBRANCH   5   7
ENDBRANCH   2   5
BRANCH   1  18
HETATM   18  C   UNL     1     -42.408  56.122 -54.104  1.00  0.00     0.105 A 
HETATM   19  C   UNL     1     -42.076  56.791 -52.940  1.00  0.00     0.169 A 
HETATM   20  N   UNL     1     -42.238  58.101 -52.564  1.00  0.00    -0.233 NA
HETATM   21  N   UNL     1     -41.477  55.845 -52.097  1.00  0.00    -0.219 N 
HETATM   22  C   UNL     1     -41.812  58.424 -51.380  1.00  0.00     0.035 A 
HETATM   23  C   UNL     1     -41.953  59.854 -50.925  1.00  0.00     0.070 C 
HETATM   24  C   UNL     1     -41.185  57.476 -50.406  1.00  0.00     0.053 A 
HETATM   25  C   UNL     1     -41.031  56.207 -50.817  1.00  0.00     0.036 A 
HETATM   26  C   UNL     1     -40.413  55.157 -49.944  1.00  0.00     0.070 C 
HETATM   27  N   UNL     1     -41.421  54.624 -52.680  1.00  0.00    -0.170 NA
HETATM   28  C   UNL     1     -41.988  54.785 -53.880  1.00  0.00     0.071 A 
HETATM   29  C   UNL     1     -42.114  53.623 -54.799  1.00  0.00     0.073 C 
ENDBRANCH   1  18
TORSDOF 6
ENDMDL
MODEL 8
REMARK VINA RESULT:      -7.0      2.954      6.682
REMARK  6 active torsions:
REMARK  status: ('A' for Active; 'I' for Inactive)
REMARK    1  A    between atoms: C_9  and  C_10 
REMARK       I    between atoms: C_10  and  N_11 
REMARK    2  A    between atoms: N_11  and  C_12 
REMARK    3  A    between atoms: C_12  and  C_13 
REMARK    4  A    between atoms: C_13  and  O_14 
REMARK    5  A    between atoms: C_13  and  C_15 
REMARK    6  A    between atoms: C_18  and  O_19 
ROOT
HETATM    1  C   UNL     1     -41.461  58.033 -53.579  1.00  0.00     0.258 C 
HETATM    2  N   UNL     1     -42.097  57.137 -52.750  1.00  0.00    -0.350 N 
HETATM    3  O   UNL     1     -40.253  58.238 -53.528  1.00  0.00    -0.267 OA
HETATM    4  H   UNL     1     -43.116  57.107 -52.779  1.00  0.00     0.163 HD
ENDROOT
BRANCH   2   5
HETATM    5  C   UNL     1     -41.396  56.427 -51.678  1.00  0.00     0.114 C 
HETATM    6  C   UNL     1     -41.330  57.324 -50.439  1.00  0.00     0.035 C 
BRANCH   5   7
HETATM    7  C   UNL     1     -42.066  55.049 -51.414  1.00  0.00     0.173 C 
BRANCH   7   8
HETATM    8  O   UNL     1     -42.315  54.845 -50.020  1.00  0.00    -0.389 OA
HETATM    9  H   UNL     1     -42.369  55.727 -49.613  1.00  0.00     0.210 HD
ENDBRANCH   7   8
BRANCH   7  10
HETATM   10  C   UNL     1     -41.287  53.883 -51.997  1.00  0.00    -0.028 A 
HETATM   11  C   UNL     1     -41.421  53.576 -53.358  1.00  0.00     0.012 A 
HETATM   12  C   UNL     1     -40.689  52.530 -53.926  1.00  0.00     0.037 A 
HETATM   13  C   UNL     1     -39.800  51.781 -53.154  1.00  0.00     0.068 A 
HETATM   14  C   UNL     1     -39.666  52.074 -51.797  1.00  0.00     0.037 A 
HETATM   15  C   UNL     1     -40.406  53.115 -51.224  1.00  0.00     0.012 A 
BRANCH  13  16
HETATM   16  O   UNL     1     -39.137  50.800 -53.837  1.00  0.00    -0.356 OA
HETATM   17  C   UNL     1     -39.936  49.829 -54.499  1.00  0.00     0.210 C 
ENDBRANCH  13  16
ENDBRANCH   7  10
ENDBRANCH   5   7
ENDBRANCH   2   5
BRANCH   1  18
HETATM   18  C   UNL     1     -42.322  58.725 -54.526  1.00  0.00     0.105 A 
HETATM   19  C   UNL     1     -42.826  58.255 -55.725  1.00  0.00     0.169 A 
HETATM   20  N   UNL     1     -42.683  57.048 -56.364  1.00  0.00    -0.233 NA
HETATM   21  N   UNL     1     -43.587  59.298 -56.270  1.00  0.00    -0.219 N 
HETATM   22  C   UNL     1     -43.295  56.916 -57.502  1.00  0.00     0.035 A 
HETATM   23  C   UNL     1     -43.158  55.615 -58.250  1.00  0.00     0.070 C 
HETATM   24  C   UNL     1     -44.148  57.965 -58.145  1.00  0.00     0.053 A 
HETATM   25  C   UNL     1     -44.251  59.137 -57.496  1.00  0.00     0.036 A 
HETATM   26  C   UNL     1     -45.069  60.274 -58.030  1.00  0.00     0.070 C 
HETATM   27  N   UNL     1     -43.580  60.390 -55.469  1.00  0.00    -0.170 NA
HETATM   28  C   UNL     1     -42.830  60.046 -54.417  1.00  0.00     0.071 A 
HETATM   29  C   UNL     1     -42.619  61.016 -53.311  1.00  0.00     0.073 C 
ENDBRANCH   1  18
TORSDOF 6
ENDMDL
MODEL 9
REMARK VINA RESULT:      -6.8      3.528      7.979
REMARK  6 active torsions:
REMARK  status: ('A' for Active; 'I' for Inactive)
REMARK    1  A    between atoms: C_9  and  C_10 
REMARK       I    between atoms: C_10  and  N_11 
REMARK    2  A    between atoms: N_11  and  C_12 
REMARK    3  A    between atoms: C_12  and  C_13 
REMARK    4  A    between atoms: C_13  and  O_14 
REMARK    5  A    between atoms: C_13  and  C_15 
REMARK    6  A    between atoms: C_18  and  O_19 
ROOT
HETATM    1  C   UNL     1     -43.870  57.038 -54.975  1.00  0.00     0.258 C 
HETATM    2  N   UNL     1     -42.762  56.257 -55.215  1.00  0.00    -0.350 N 
HETATM    3  O   UNL     1     -44.597  56.872 -54.002  1.00  0.00    -0.267 OA
HETATM    4  H   UNL     1     -42.276  56.387 -56.102  1.00  0.00     0.163 HD
ENDROOT
BRANCH   2   5
HETATM    5  C   UNL     1     -42.418  55.107 -54.378  1.00  0.00     0.114 C 
HETATM    6  C   UNL     1     -43.242  53.895 -54.823  1.00  0.00     0.035 C 
BRANCH   5   7
HETATM    7  C   UNL     1     -40.883  54.858 -54.404  1.00  0.00     0.173 C 
BRANCH   7   8
HETATM    8  O   UNL     1     -40.389  54.764 -55.744  1.00  0.00    -0.389 OA
HETATM    9  H   UNL     1     -39.456  55.038 -55.718  1.00  0.00     0.210 HD
ENDBRANCH   7   8
BRANCH   7  10
HETATM   10  C   UNL     1     -40.458  53.651 -53.587  1.00  0.00    -0.028 A 
HETATM   11  C   UNL     1     -40.529  53.705 -52.188  1.00  0.00     0.012 A 
HETATM   12  C   UNL     1     -40.176  52.595 -51.416  1.00  0.00     0.037 A 
HETATM   13  C   UNL     1     -39.760  51.409 -52.021  1.00  0.00     0.068 A 
HETATM   14  C   UNL     1     -39.679  51.348 -53.412  1.00  0.00     0.037 A 
HETATM   15  C   UNL     1     -40.022  52.462 -54.188  1.00  0.00     0.012 A 
BRANCH  13  16
HETATM   16  O   UNL     1     -39.461  50.398 -51.151  1.00  0.00    -0.356 OA
HETATM   17  C   UNL     1     -40.249  50.315 -49.971  1.00  0.00     0.210 C 
ENDBRANCH  13  16
ENDBRANCH   7  10
ENDBRANCH   5   7
ENDBRANCH   2   5
BRANCH   1  18
HETATM   18  C   UNL     1     -44.123  58.081 -55.958  1.00  0.00     0.105 A 
HETATM   19  C   UNL     1     -44.219  57.956 -57.332  1.00  0.00     0.169 A 
HETATM   20  N   UNL     1     -44.114  56.864 -58.158  1.00  0.00    -0.233 NA
HETATM   21  N   UNL     1     -44.458  59.244 -57.830  1.00  0.00    -0.219 N 
HETATM   22  C   UNL     1     -44.255  57.082 -59.431  1.00  0.00     0.035 A 
HETATM   23  C   UNL     1     -44.134  55.919 -60.381  1.00  0.00     0.070 C 
HETATM   24  C   UNL     1     -44.538  58.416 -60.047  1.00  0.00     0.053 A 
HETATM   25  C   UNL     1     -44.618  59.461 -59.207  1.00  0.00     0.036 A 
HETATM   26  C   UNL     1     -44.891  60.853 -59.692  1.00  0.00     0.070 C 
HETATM   27  N   UNL     1     -44.517  60.160 -56.834  1.00  0.00    -0.170 NA
HETATM   28  C   UNL     1     -44.325  59.463 -55.709  1.00  0.00     0.071 A 
HETATM   29  C   UNL     1     -44.345  60.160 -54.397  1.00  0.00     0.073 C 
ENDBRANCH   1  18
TORSDOF 6
ENDMDL
MODEL 10
REMARK VINA RESULT:      -6.8     14.856     17.146
REMARK  6 active torsions:
REMARK  status: ('A' for Active; 'I' for Inactive)
REMARK    1  A    between atoms: C_9  and  C_10 
REMARK       I    between atoms: C_10  and  N_11 
REMARK    2  A    between atoms: N_11  and  C_12 
REMARK    3  A    between atoms: C_12  and  C_13 
REMARK    4  A    between atoms: C_13  and  O_14 
REMARK    5  A    between atoms: C_13  and  C_15 
REMARK    6  A    between atoms: C_18  and  O_19 
ROOT
HETATM    1  C   UNL     1     -34.636  39.103 -51.365  1.00  0.00     0.258 C 
HETATM    2  N   UNL     1     -35.495  40.176 -51.433  1.00  0.00    -0.350 N 
HETATM    3  O   UNL     1     -34.803  38.080 -52.021  1.00  0.00    -0.267 OA
HETATM    4  H   UNL     1     -35.348  40.941 -50.775  1.00  0.00     0.163 HD
ENDROOT
BRANCH   2   5
HETATM    5  C   UNL     1     -36.727  40.145 -52.223  1.00  0.00     0.114 C 
HETATM    6  C   UNL     1     -37.874  39.632 -51.348  1.00  0.00     0.035 C 
BRANCH   5   7
HETATM    7  C   UNL     1     -37.001  41.541 -52.854  1.00  0.00     0.173 C 
BRANCH   7   8
HETATM    8  O   UNL     1     -38.338  41.980 -52.594  1.00  0.00    -0.389 OA
HETATM    9  H   UNL     1     -38.813  41.221 -52.212  1.00  0.00     0.210 HD
ENDBRANCH   7   8
BRANCH   7  10
HETATM   10  C   UNL     1     -36.695  41.596 -54.340  1.00  0.00    -0.028 A 
HETATM   11  C   UNL     1     -37.613  41.062 -55.254  1.00  0.00     0.012 A 
HETATM   12  C   UNL     1     -37.370  41.131 -56.628  1.00  0.00     0.037 A 
HETATM   13  C   UNL     1     -36.217  41.745 -57.117  1.00  0.00     0.068 A 
HETATM   14  C   UNL     1     -35.293  42.272 -56.216  1.00  0.00     0.037 A 
HETATM   15  C   UNL     1     -35.530  42.195 -54.838  1.00  0.00     0.012 A 
BRANCH  13  16
HETATM   16  O   UNL     1     -36.111  41.758 -58.481  1.00  0.00    -0.356 OA
HETATM   17  C   UNL     1     -37.227  42.258 -59.204  1.00  0.00     0.210 C 
ENDBRANCH  13  16
ENDBRANCH   7  10
ENDBRANCH   5   7
ENDBRANCH   2   5
BRANCH   1  18
HETATM   18  C   UNL     1     -33.509  39.263 -50.458  1.00  0.00     0.105 A 
HETATM   19  C   UNL     1     -33.384  38.802 -49.160  1.00  0.00     0.169 A 
HETATM   20  N   UNL     1     -34.238  38.083 -48.362  1.00  0.00    -0.233 NA
HETATM   21  N   UNL     1     -32.124  39.221 -48.712  1.00  0.00    -0.219 N 
HETATM   22  C   UNL     1     -33.818  37.802 -47.164  1.00  0.00     0.035 A 
HETATM   23  C   UNL     1     -34.724  37.026 -46.243  1.00  0.00     0.070 C 
HETATM   24  C   UNL     1     -32.481  38.186 -46.612  1.00  0.00     0.053 A 
HETATM   25  C   UNL     1     -31.680  38.901 -47.420  1.00  0.00     0.036 A 
HETATM   26  C   UNL     1     -30.317  39.355 -46.990  1.00  0.00     0.070 C 
HETATM   27  N   UNL     1     -31.463  39.917 -49.667  1.00  0.00    -0.170 NA
HETATM   28  C   UNL     1     -32.287  39.936 -50.718  1.00  0.00     0.071 A 
HETATM   29  C   UNL     1     -31.869  40.613 -51.974  1.00  0.00     0.073 C 
ENDBRANCH   1  18
TORSDOF 6
ENDMDL
