MODEL 1
REMARK VINA RESULT:      -8.4      0.000      0.000
REMARK  6 active torsions:
REMARK  status: ('A' for Active; 'I' for Inactive)
REMARK    1  A    between atoms: O_2  and  C_3 
REMARK    2  A    between atoms: C_3  and  C_4 
REMARK    3  A    between atoms: C_11  and  C_12 
REMARK    4  A    between atoms: C_12  and  S_13 
REMARK    5  A    between atoms: S_13  and  C_14 
REMARK    6  A    between atoms: C_16  and  C_17 
ROOT
HETATM    1  C   UNL     1     -40.238  52.741 -52.571  1.00  0.00     0.041 A 
HETATM    2  C   UNL     1     -40.756  54.015 -52.855  1.00  0.00     0.050 A 
HETATM    3  C   UNL     1     -41.079  54.898 -51.820  1.00  0.00     0.075 A 
HETATM    4  C   UNL     1     -40.873  54.489 -50.500  1.00  0.00     0.061 A 
HETATM    5  C   UNL     1     -41.253  55.428 -49.432  1.00  0.00     0.259 A 
HETATM    6  O   UNL     1     -41.127  55.156 -48.244  1.00  0.00    -0.267 OA
HETATM    7  N   UNL     1     -41.769  56.623 -49.858  1.00  0.00    -0.310 N 
HETATM    8  C   UNL     1     -41.965  56.939 -51.178  1.00  0.00     0.117 A 
HETATM    9  N   UNL     1     -41.621  56.153 -52.150  1.00  0.00    -0.234 NA
HETATM   10  C   UNL     1     -40.352  53.229 -50.197  1.00  0.00     0.020 A 
HETATM   11  C   UNL     1     -40.035  52.355 -51.238  1.00  0.00     0.019 A 
HETATM   12  H   UNL     1     -42.136  57.220 -49.129  1.00  0.00     0.170 HD
ENDROOT
BRANCH   8  13
HETATM   13  C   UNL     1     -42.588  58.295 -51.441  1.00  0.00     0.161 C 
BRANCH  13  14
HETATM   14  S   UNL     1     -44.221  58.144 -52.213  1.00  0.00    -0.083 SA
BRANCH  14  15
HETATM   15  C   UNL     1     -43.846  57.344 -53.686  1.00  0.00     0.185 A 
HETATM   16  N   UNL     1     -43.339  57.837 -54.786  1.00  0.00    -0.201 NA
HETATM   17  C   UNL     1     -43.355  56.754 -55.650  1.00  0.00     0.182 A 
HETATM   18  N   UNL     1     -43.804  55.618 -55.088  1.00  0.00    -0.152 NA
HETATM   19  N   UNL     1     -44.111  56.024 -53.847  1.00  0.00    -0.253 N 
HETATM   20  H   UNL     1     -44.510  55.373 -53.183  1.00  0.00     0.191 HD
BRANCH  17  21
HETATM   21  C   UNL     1     -42.958  56.864 -57.053  1.00  0.00     0.013 A 
HETATM   22  C   UNL     1     -42.349  58.031 -57.534  1.00  0.00     0.015 A 
HETATM   23  C   UNL     1     -42.000  58.152 -58.881  1.00  0.00     0.001 A 
HETATM   24  C   UNL     1     -42.250  57.104 -59.763  1.00  0.00     0.000 A 
HETATM   25  C   UNL     1     -42.849  55.935 -59.301  1.00  0.00     0.001 A 
HETATM   26  C   UNL     1     -43.202  55.815 -57.953  1.00  0.00     0.015 A 
ENDBRANCH  17  21
ENDBRANCH  14  15
ENDBRANCH  13  14
ENDBRANCH   8  13
BRANCH   1  27
HETATM   27  C   UNL     1     -39.905  51.762 -53.641  1.00  0.00     0.293 C 
HETATM   28  O   UNL     1     -40.212  51.917 -54.812  1.00  0.00    -0.259 OA
BRANCH  27  29
HETATM   29  O   UNL     1     -39.226  50.705 -53.132  1.00  0.00    -0.323 OA
HETATM   30  C   UNL     1     -39.572  49.453 -53.724  1.00  0.00     0.213 C 
ENDBRANCH  27  29
ENDBRANCH   1  27
TORSDOF 6
ENDMDL
MODEL 2
REMARK VINA RESULT:      -8.4      3.687      7.545
REMARK  6 active torsions:
REMARK  status: ('A' for Active; 'I' for Inactive)
REMARK    1  A    between atoms: O_2  and  C_3 
REMARK    2  A    between atoms: C_3  and  C_4 
REMARK    3  A    between atoms: C_11  and  C_12 
REMARK    4  A    between atoms: C_12  and  S_13 
REMARK    5  A    between atoms: S_13  and  C_14 
REMARK    6  A    between atoms: C_16  and  C_17 
ROOT
HETATM    1  C   UNL     1     -44.113  57.007 -59.535  1.00  0.00     0.041 A 
HETATM    2  C   UNL     1     -44.288  57.122 -58.146  1.00  0.00     0.050 A 
HETATM    3  C   UNL     1     -43.553  58.057 -57.412  1.00  0.00     0.075 A 
HETATM    4  C   UNL     1     -42.645  58.877 -58.087  1.00  0.00     0.061 A 
HETATM    5  C   UNL     1     -41.862  59.829 -57.281  1.00  0.00     0.259 A 
HETATM    6  O   UNL     1     -41.029  60.578 -57.777  1.00  0.00    -0.267 OA
HETATM    7  N   UNL     1     -42.120  59.811 -55.936  1.00  0.00    -0.310 N 
HETATM    8  C   UNL     1     -43.013  58.953 -55.345  1.00  0.00     0.117 A 
HETATM    9  N   UNL     1     -43.741  58.119 -56.020  1.00  0.00    -0.234 NA
HETATM   10  C   UNL     1     -42.461  58.784 -59.468  1.00  0.00     0.020 A 
HETATM   11  C   UNL     1     -43.199  57.845 -60.191  1.00  0.00     0.019 A 
HETATM   12  H   UNL     1     -41.505  60.380 -55.370  1.00  0.00     0.170 HD
ENDROOT
BRANCH   8  13
HETATM   13  C   UNL     1     -43.124  59.062 -53.838  1.00  0.00     0.161 C 
BRANCH  13  14
HETATM   14  S   UNL     1     -44.472  58.037 -53.191  1.00  0.00    -0.083 SA
BRANCH  14  15
HETATM   15  C   UNL     1     -43.859  56.449 -53.429  1.00  0.00     0.185 A 
HETATM   16  N   UNL     1     -42.830  55.870 -52.865  1.00  0.00    -0.201 NA
HETATM   17  C   UNL     1     -42.766  54.648 -53.515  1.00  0.00     0.182 A 
HETATM   18  N   UNL     1     -43.752  54.456 -54.409  1.00  0.00    -0.152 NA
HETATM   19  N   UNL     1     -44.424  55.615 -54.335  1.00  0.00    -0.253 N 
HETATM   20  H   UNL     1     -45.225  55.778 -54.933  1.00  0.00     0.191 HD
BRANCH  17  21
HETATM   21  C   UNL     1     -41.693  53.685 -53.270  1.00  0.00     0.013 A 
HETATM   22  C   UNL     1     -41.308  52.778 -54.267  1.00  0.00     0.015 A 
HETATM   23  C   UNL     1     -40.308  51.833 -54.025  1.00  0.00     0.001 A 
HETATM   24  C   UNL     1     -39.675  51.789 -52.785  1.00  0.00     0.000 A 
HETATM   25  C   UNL     1     -40.041  52.687 -51.786  1.00  0.00     0.001 A 
HETATM   26  C   UNL     1     -41.046  53.630 -52.026  1.00  0.00     0.015 A 
ENDBRANCH  17  21
ENDBRANCH  14  15
ENDBRANCH  13  14
ENDBRANCH   8  13
BRANCH   1  27
HETATM   27  C   UNL     1     -44.856  56.009 -60.350  1.00  0.00     0.293 C 
HETATM   28  O   UNL     1     -44.346  55.369 -61.255  1.00  0.00    -0.259 OA
BRANCH  27  29
HETATM   29  O   UNL     1     -46.147  55.919 -59.943  1.00  0.00    -0.323 OA
HETATM   30  C   UNL     1     -47.091  56.398 -60.901  1.00  0.00     0.213 C 
ENDBRANCH  27  29
ENDBRANCH   1  27
TORSDOF 6
ENDMDL
MODEL 3
REMARK VINA RESULT:      -8.4      2.924      7.006
REMARK  6 active torsions:
REMARK  status: ('A' for Active; 'I' for Inactive)
REMARK    1  A    between atoms: O_2  and  C_3 
REMARK    2  A    between atoms: C_3  and  C_4 
REMARK    3  A    between atoms: C_11  and  C_12 
REMARK    4  A    between atoms: C_12  and  S_13 
REMARK    5  A    between atoms: S_13  and  C_14 
REMARK    6  A    between atoms: C_16  and  C_17 
ROOT
HETATM    1  C   UNL     1     -42.849  56.775 -58.071  1.00  0.00     0.041 A 
HETATM    2  C   UNL     1     -43.129  56.258 -56.796  1.00  0.00     0.050 A 
HETATM    3  C   UNL     1     -42.892  57.024 -55.651  1.00  0.00     0.075 A 
HETATM    4  C   UNL     1     -42.374  58.314 -55.801  1.00  0.00     0.061 A 
HETATM    5  C   UNL     1     -42.104  59.083 -54.575  1.00  0.00     0.259 A 
HETATM    6  O   UNL     1     -41.635  60.214 -54.601  1.00  0.00    -0.267 OA
HETATM    7  N   UNL     1     -42.402  58.442 -53.402  1.00  0.00    -0.310 N 
HETATM    8  C   UNL     1     -42.886  57.159 -53.338  1.00  0.00     0.117 A 
HETATM    9  N   UNL     1     -43.162  56.457 -54.393  1.00  0.00    -0.234 NA
HETATM   10  C   UNL     1     -42.095  58.848 -57.060  1.00  0.00     0.020 A 
HETATM   11  C   UNL     1     -42.334  58.074 -58.197  1.00  0.00     0.019 A 
HETATM   12  H   UNL     1     -42.112  58.921 -52.561  1.00  0.00     0.170 HD
ENDROOT
BRANCH   8  13
HETATM   13  C   UNL     1     -43.112  56.614 -51.943  1.00  0.00     0.161 C 
BRANCH  13  14
HETATM   14  S   UNL     1     -41.630  56.777 -50.912  1.00  0.00    -0.083 SA
BRANCH  14  15
HETATM   15  C   UNL     1     -40.952  55.201 -51.012  1.00  0.00     0.185 A 
HETATM   16  N   UNL     1     -40.844  54.415 -52.051  1.00  0.00    -0.201 NA
HETATM   17  C   UNL     1     -40.313  53.254 -51.511  1.00  0.00     0.182 A 
HETATM   18  N   UNL     1     -40.050  53.340 -50.195  1.00  0.00    -0.152 NA
HETATM   19  N   UNL     1     -40.470  54.582 -49.907  1.00  0.00    -0.253 N 
HETATM   20  H   UNL     1     -40.422  54.927 -48.957  1.00  0.00     0.191 HD
BRANCH  17  21
HETATM   21  C   UNL     1     -40.105  52.044 -52.303  1.00  0.00     0.013 A 
HETATM   22  C   UNL     1     -39.613  50.876 -51.705  1.00  0.00     0.015 A 
HETATM   23  C   UNL     1     -39.379  49.727 -52.466  1.00  0.00     0.001 A 
HETATM   24  C   UNL     1     -39.641  49.731 -53.833  1.00  0.00     0.000 A 
HETATM   25  C   UNL     1     -40.136  50.882 -54.443  1.00  0.00     0.001 A 
HETATM   26  C   UNL     1     -40.365  52.033 -53.682  1.00  0.00     0.015 A 
ENDBRANCH  17  21
ENDBRANCH  14  15
ENDBRANCH  13  14
ENDBRANCH   8  13
BRANCH   1  27
HETATM   27  C   UNL     1     -43.063  55.985 -59.314  1.00  0.00     0.293 C 
HETATM   28  O   UNL     1     -42.338  56.064 -60.292  1.00  0.00    -0.259 OA
BRANCH  27  29
HETATM   29  O   UNL     1     -44.151  55.185 -59.194  1.00  0.00    -0.323 OA
HETATM   30  C   UNL     1     -44.683  54.739 -60.443  1.00  0.00     0.213 C 
ENDBRANCH  27  29
ENDBRANCH   1  27
TORSDOF 6
ENDMDL
MODEL 4
REMARK VINA RESULT:      -8.4      1.799      2.267
REMARK  6 active torsions:
REMARK  status: ('A' for Active; 'I' for Inactive)
REMARK    1  A    between atoms: O_2  and  C_3 
REMARK    2  A    between atoms: C_3  and  C_4 
REMARK    3  A    between atoms: C_11  and  C_12 
REMARK    4  A    between atoms: C_12  and  S_13 
REMARK    5  A    between atoms: S_13  and  C_14 
REMARK    6  A    between atoms: C_16  and  C_17 
ROOT
HETATM    1  C   UNL     1     -40.050  52.291 -52.031  1.00  0.00     0.041 A 
HETATM    2  C   UNL     1     -40.695  53.252 -52.826  1.00  0.00     0.050 A 
HETATM    3  C   UNL     1     -41.122  54.462 -52.272  1.00  0.00     0.075 A 
HETATM    4  C   UNL     1     -40.891  54.699 -50.915  1.00  0.00     0.061 A 
HETATM    5  C   UNL     1     -41.382  55.968 -50.354  1.00  0.00     0.259 A 
HETATM    6  O   UNL     1     -41.243  56.261 -49.173  1.00  0.00    -0.267 OA
HETATM    7  N   UNL     1     -42.016  56.796 -51.242  1.00  0.00    -0.310 N 
HETATM    8  C   UNL     1     -42.227  56.478 -52.560  1.00  0.00     0.117 A 
HETATM    9  N   UNL     1     -41.789  55.383 -53.099  1.00  0.00    -0.234 NA
HETATM   10  C   UNL     1     -40.244  53.760 -50.109  1.00  0.00     0.020 A 
HETATM   11  C   UNL     1     -39.824  52.554 -50.671  1.00  0.00     0.019 A 
HETATM   12  H   UNL     1     -42.453  57.613 -50.836  1.00  0.00     0.170 HD
ENDROOT
BRANCH   8  13
HETATM   13  C   UNL     1     -42.986  57.511 -53.368  1.00  0.00     0.161 C 
BRANCH  13  14
HETATM   14  S   UNL     1     -41.974  58.182 -54.715  1.00  0.00    -0.083 SA
BRANCH  14  15
HETATM   15  C   UNL     1     -42.463  57.210 -56.046  1.00  0.00     0.185 A 
HETATM   16  N   UNL     1     -43.255  57.514 -57.042  1.00  0.00    -0.201 NA
HETATM   17  C   UNL     1     -43.354  56.320 -57.738  1.00  0.00     0.182 A 
HETATM   18  N   UNL     1     -42.605  55.328 -57.222  1.00  0.00    -0.152 NA
HETATM   19  N   UNL     1     -42.058  55.921 -56.150  1.00  0.00    -0.253 N 
HETATM   20  H   UNL     1     -41.451  55.396 -55.533  1.00  0.00     0.191 HD
BRANCH  17  21
HETATM   21  C   UNL     1     -44.228  56.158 -58.897  1.00  0.00     0.013 A 
HETATM   22  C   UNL     1     -45.236  57.094 -59.168  1.00  0.00     0.015 A 
HETATM   23  C   UNL     1     -46.096  56.923 -60.256  1.00  0.00     0.001 A 
HETATM   24  C   UNL     1     -45.955  55.818 -61.090  1.00  0.00     0.000 A 
HETATM   25  C   UNL     1     -44.955  54.881 -60.839  1.00  0.00     0.001 A 
HETATM   26  C   UNL     1     -44.097  55.049 -59.748  1.00  0.00     0.015 A 
ENDBRANCH  17  21
ENDBRANCH  14  15
ENDBRANCH  13  14
ENDBRANCH   8  13
BRANCH   1  27
HETATM   27  C   UNL     1     -39.602  50.981 -52.574  1.00  0.00     0.293 C 
HETATM   28  O   UNL     1     -39.464  49.981 -51.886  1.00  0.00    -0.259 OA
BRANCH  27  29
HETATM   29  O   UNL     1     -39.380  51.062 -53.908  1.00  0.00    -0.323 OA
HETATM   30  C   UNL     1     -39.785  49.903 -54.636  1.00  0.00     0.213 C 
ENDBRANCH  27  29
ENDBRANCH   1  27
TORSDOF 6
ENDMDL
MODEL 5
REMARK VINA RESULT:      -8.3      3.106      7.409
REMARK  6 active torsions:
REMARK  status: ('A' for Active; 'I' for Inactive)
REMARK    1  A    between atoms: O_2  and  C_3 
REMARK    2  A    between atoms: C_3  and  C_4 
REMARK    3  A    between atoms: C_11  and  C_12 
REMARK    4  A    between atoms: C_12  and  S_13 
REMARK    5  A    between atoms: S_13  and  C_14 
REMARK    6  A    between atoms: C_16  and  C_17 
ROOT
HETATM    1  C   UNL     1     -42.221  58.702 -57.045  1.00  0.00     0.041 A 
HETATM    2  C   UNL     1     -42.244  58.734 -55.641  1.00  0.00     0.050 A 
HETATM    3  C   UNL     1     -42.545  57.582 -54.909  1.00  0.00     0.075 A 
HETATM    4  C   UNL     1     -42.820  56.399 -55.600  1.00  0.00     0.061 A 
HETATM    5  C   UNL     1     -43.166  55.212 -54.802  1.00  0.00     0.259 A 
HETATM    6  O   UNL     1     -43.439  54.133 -55.315  1.00  0.00    -0.267 OA
HETATM    7  N   UNL     1     -43.174  55.398 -53.445  1.00  0.00    -0.310 N 
HETATM    8  C   UNL     1     -42.917  56.604 -52.842  1.00  0.00     0.117 A 
HETATM    9  N   UNL     1     -42.584  57.666 -53.506  1.00  0.00    -0.234 NA
HETATM   10  C   UNL     1     -42.795  56.345 -56.995  1.00  0.00     0.020 A 
HETATM   11  C   UNL     1     -42.495  57.501 -57.717  1.00  0.00     0.019 A 
HETATM   12  H   UNL     1     -43.522  54.619 -52.903  1.00  0.00     0.170 HD
ENDROOT
BRANCH   8  13
HETATM   13  C   UNL     1     -43.017  56.613 -51.331  1.00  0.00     0.161 C 
BRANCH  13  14
HETATM   14  S   UNL     1     -41.382  56.708 -50.552  1.00  0.00    -0.083 SA
BRANCH  14  15
HETATM   15  C   UNL     1     -40.828  55.087 -50.689  1.00  0.00     0.185 A 
HETATM   16  N   UNL     1     -40.614  54.377 -51.767  1.00  0.00    -0.201 NA
HETATM   17  C   UNL     1     -40.276  53.133 -51.260  1.00  0.00     0.182 A 
HETATM   18  N   UNL     1     -40.227  53.091 -49.916  1.00  0.00    -0.152 NA
HETATM   19  N   UNL     1     -40.586  54.340 -49.584  1.00  0.00    -0.253 N 
HETATM   20  H   UNL     1     -40.668  54.604 -48.611  1.00  0.00     0.191 HD
BRANCH  17  21
HETATM   21  C   UNL     1     -40.039  51.974 -52.117  1.00  0.00     0.013 A 
HETATM   22  C   UNL     1     -40.218  52.064 -53.505  1.00  0.00     0.015 A 
HETATM   23  C   UNL     1     -40.027  50.948 -54.324  1.00  0.00     0.001 A 
HETATM   24  C   UNL     1     -39.646  49.730 -53.766  1.00  0.00     0.000 A 
HETATM   25  C   UNL     1     -39.457  49.625 -52.390  1.00  0.00     0.001 A 
HETATM   26  C   UNL     1     -39.653  50.741 -51.569  1.00  0.00     0.015 A 
ENDBRANCH  17  21
ENDBRANCH  14  15
ENDBRANCH  13  14
ENDBRANCH   8  13
BRANCH   1  27
HETATM   27  C   UNL     1     -41.930  59.910 -57.863  1.00  0.00     0.293 C 
HETATM   28  O   UNL     1     -41.035  60.698 -57.601  1.00  0.00    -0.259 OA
BRANCH  27  29
HETATM   29  O   UNL     1     -42.782  59.997 -58.914  1.00  0.00    -0.323 OA
HETATM   30  C   UNL     1     -43.451  61.255 -59.015  1.00  0.00     0.213 C 
ENDBRANCH  27  29
ENDBRANCH   1  27
TORSDOF 6
ENDMDL
MODEL 6
REMARK VINA RESULT:      -8.1      4.045      9.096
REMARK  6 active torsions:
REMARK  status: ('A' for Active; 'I' for Inactive)
REMARK    1  A    between atoms: O_2  and  C_3 
REMARK    2  A    between atoms: C_3  and  C_4 
REMARK    3  A    between atoms: C_11  and  C_12 
REMARK    4  A    between atoms: C_12  and  S_13 
REMARK    5  A    between atoms: S_13  and  C_14 
REMARK    6  A    between atoms: C_16  and  C_17 
ROOT
HETATM    1  C   UNL     1     -41.588  60.739 -59.296  1.00  0.00     0.041 A 
HETATM    2  C   UNL     1     -41.726  60.031 -58.091  1.00  0.00     0.050 A 
HETATM    3  C   UNL     1     -42.079  58.678 -58.099  1.00  0.00     0.075 A 
HETATM    4  C   UNL     1     -42.288  58.045 -59.327  1.00  0.00     0.061 A 
HETATM    5  C   UNL     1     -42.691  56.630 -59.301  1.00  0.00     0.259 A 
HETATM    6  O   UNL     1     -42.914  55.993 -60.323  1.00  0.00    -0.267 OA
HETATM    7  N   UNL     1     -42.812  56.077 -58.054  1.00  0.00    -0.310 N 
HETATM    8  C   UNL     1     -42.613  56.776 -56.890  1.00  0.00     0.117 A 
HETATM    9  N   UNL     1     -42.233  58.015 -56.869  1.00  0.00    -0.234 NA
HETATM   10  C   UNL     1     -42.149  58.731 -60.536  1.00  0.00     0.020 A 
HETATM   11  C   UNL     1     -41.798  60.081 -60.517  1.00  0.00     0.019 A 
HETATM   12  H   UNL     1     -43.198  55.143 -58.030  1.00  0.00     0.170 HD
ENDROOT
BRANCH   8  13
HETATM   13  C   UNL     1     -42.837  55.994 -55.612  1.00  0.00     0.161 C 
BRANCH  13  14
HETATM   14  S   UNL     1     -42.018  56.777 -54.196  1.00  0.00    -0.083 SA
BRANCH  14  15
HETATM   15  C   UNL     1     -41.330  55.425 -53.390  1.00  0.00     0.185 A 
HETATM   16  N   UNL     1     -40.968  54.268 -53.882  1.00  0.00    -0.201 NA
HETATM   17  C   UNL     1     -40.581  53.558 -52.757  1.00  0.00     0.182 A 
HETATM   18  N   UNL     1     -40.648  54.268 -51.617  1.00  0.00    -0.152 NA
HETATM   19  N   UNL     1     -41.130  55.444 -52.049  1.00  0.00    -0.253 N 
HETATM   20  H   UNL     1     -41.318  56.190 -51.391  1.00  0.00     0.191 HD
BRANCH  17  21
HETATM   21  C   UNL     1     -40.180  52.153 -52.815  1.00  0.00     0.013 A 
HETATM   22  C   UNL     1     -40.196  51.456 -54.031  1.00  0.00     0.015 A 
HETATM   23  C   UNL     1     -39.848  50.104 -54.084  1.00  0.00     0.001 A 
HETATM   24  C   UNL     1     -39.472  49.434 -52.923  1.00  0.00     0.000 A 
HETATM   25  C   UNL     1     -39.445  50.114 -51.707  1.00  0.00     0.001 A 
HETATM   26  C   UNL     1     -39.798  51.466 -51.653  1.00  0.00     0.015 A 
ENDBRANCH  17  21
ENDBRANCH  14  15
ENDBRANCH  13  14
ENDBRANCH   8  13
BRANCH   1  27
HETATM   27  C   UNL     1     -41.237  62.185 -59.332  1.00  0.00     0.293 C 
HETATM   28  O   UNL     1     -40.096  62.602 -59.222  1.00  0.00    -0.259 OA
BRANCH  27  29
HETATM   29  O   UNL     1     -42.347  62.945 -59.504  1.00  0.00    -0.323 OA
HETATM   30  C   UNL     1     -42.646  63.795 -58.396  1.00  0.00     0.213 C 
ENDBRANCH  27  29
ENDBRANCH   1  27
TORSDOF 6
ENDMDL
MODEL 7
REMARK VINA RESULT:      -7.9      2.585      3.634
REMARK  6 active torsions:
REMARK  status: ('A' for Active; 'I' for Inactive)
REMARK    1  A    between atoms: O_2  and  C_3 
REMARK    2  A    between atoms: C_3  and  C_4 
REMARK    3  A    between atoms: C_11  and  C_12 
REMARK    4  A    between atoms: C_12  and  S_13 
REMARK    5  A    between atoms: S_13  and  C_14 
REMARK    6  A    between atoms: C_16  and  C_17 
ROOT
HETATM    1  C   UNL     1     -40.074  52.435 -52.228  1.00  0.00     0.041 A 
HETATM    2  C   UNL     1     -40.764  53.185 -53.194  1.00  0.00     0.050 A 
HETATM    3  C   UNL     1     -41.286  54.442 -52.877  1.00  0.00     0.075 A 
HETATM    4  C   UNL     1     -41.104  54.939 -51.584  1.00  0.00     0.061 A 
HETATM    5  C   UNL     1     -41.693  56.251 -51.272  1.00  0.00     0.259 A 
HETATM    6  O   UNL     1     -41.603  56.764 -50.163  1.00  0.00    -0.267 OA
HETATM    7  N   UNL     1     -42.361  56.855 -52.304  1.00  0.00    -0.310 N 
HETATM    8  C   UNL     1     -42.518  56.287 -53.543  1.00  0.00     0.117 A 
HETATM    9  N   UNL     1     -41.994  55.147 -53.867  1.00  0.00    -0.234 NA
HETATM   10  C   UNL     1     -40.414  54.212 -50.611  1.00  0.00     0.020 A 
HETATM   11  C   UNL     1     -39.899  52.956 -50.938  1.00  0.00     0.019 A 
HETATM   12  H   UNL     1     -42.862  57.699 -52.060  1.00  0.00     0.170 HD
ENDROOT
BRANCH   8  13
HETATM   13  C   UNL     1     -43.326  57.098 -54.536  1.00  0.00     0.161 C 
BRANCH  13  14
HETATM   14  S   UNL     1     -42.779  56.807 -56.240  1.00  0.00    -0.083 SA
BRANCH  14  15
HETATM   15  C   UNL     1     -42.356  58.391 -56.754  1.00  0.00     0.185 A 
HETATM   16  N   UNL     1     -42.161  58.840 -57.967  1.00  0.00    -0.201 NA
HETATM   17  C   UNL     1     -41.754  60.147 -57.755  1.00  0.00     0.182 A 
HETATM   18  N   UNL     1     -41.751  60.511 -56.460  1.00  0.00    -0.152 NA
HETATM   19  N   UNL     1     -42.132  59.377 -55.852  1.00  0.00    -0.253 N 
HETATM   20  H   UNL     1     -42.194  59.338 -54.842  1.00  0.00     0.191 HD
BRANCH  17  21
HETATM   21  C   UNL     1     -41.329  61.023 -58.845  1.00  0.00     0.013 A 
HETATM   22  C   UNL     1     -41.800  60.820 -60.150  1.00  0.00     0.015 A 
HETATM   23  C   UNL     1     -41.369  61.634 -61.200  1.00  0.00     0.001 A 
HETATM   24  C   UNL     1     -40.466  62.666 -60.958  1.00  0.00     0.000 A 
HETATM   25  C   UNL     1     -39.992  62.885 -59.666  1.00  0.00     0.001 A 
HETATM   26  C   UNL     1     -40.421  62.068 -58.615  1.00  0.00     0.015 A 
ENDBRANCH  17  21
ENDBRANCH  14  15
ENDBRANCH  13  14
ENDBRANCH   8  13
BRANCH   1  27
HETATM   27  C   UNL     1     -39.524  51.082 -52.516  1.00  0.00     0.293 C 
HETATM   28  O   UNL     1     -39.388  50.218 -51.664  1.00  0.00    -0.259 OA
BRANCH  27  29
HETATM   29  O   UNL     1     -39.210  50.959 -53.829  1.00  0.00    -0.323 OA
HETATM   30  C   UNL     1     -39.807  49.827 -54.464  1.00  0.00     0.213 C 
ENDBRANCH  27  29
ENDBRANCH   1  27
TORSDOF 6
ENDMDL
MODEL 8
REMARK VINA RESULT:      -7.9      3.291      7.364
REMARK  6 active torsions:
REMARK  status: ('A' for Active; 'I' for Inactive)
REMARK    1  A    between atoms: O_2  and  C_3 
REMARK    2  A    between atoms: C_3  and  C_4 
REMARK    3  A    between atoms: C_11  and  C_12 
REMARK    4  A    between atoms: C_12  and  S_13 
REMARK    5  A    between atoms: S_13  and  C_14 
REMARK    6  A    between atoms: C_16  and  C_17 
ROOT
HETATM    1  C   UNL     1     -43.887  57.287 -58.448  1.00  0.00     0.041 A 
HETATM    2  C   UNL     1     -43.575  56.780 -57.176  1.00  0.00     0.050 A 
HETATM    3  C   UNL     1     -43.838  57.533 -56.027  1.00  0.00     0.075 A 
HETATM    4  C   UNL     1     -44.419  58.795 -56.170  1.00  0.00     0.061 A 
HETATM    5  C   UNL     1     -44.653  59.577 -54.944  1.00  0.00     0.259 A 
HETATM    6  O   UNL     1     -45.141  60.700 -54.966  1.00  0.00    -0.267 OA
HETATM    7  N   UNL     1     -44.275  58.966 -53.778  1.00  0.00    -0.310 N 
HETATM    8  C   UNL     1     -43.684  57.729 -53.725  1.00  0.00     0.117 A 
HETATM    9  N   UNL     1     -43.484  56.998 -54.776  1.00  0.00    -0.234 NA
HETATM   10  C   UNL     1     -44.743  59.314 -57.425  1.00  0.00     0.020 A 
HETATM   11  C   UNL     1     -44.475  58.555 -58.566  1.00  0.00     0.019 A 
HETATM   12  H   UNL     1     -44.328  59.544 -52.950  1.00  0.00     0.170 HD
ENDROOT
BRANCH   8  13
HETATM   13  C   UNL     1     -43.302  57.246 -52.340  1.00  0.00     0.161 C 
BRANCH  13  14
HETATM   14  S   UNL     1     -41.504  57.219 -52.113  1.00  0.00    -0.083 SA
BRANCH  14  15
HETATM   15  C   UNL     1     -41.074  55.725 -52.846  1.00  0.00     0.185 A 
HETATM   16  N   UNL     1     -41.043  54.528 -52.319  1.00  0.00    -0.201 NA
HETATM   17  C   UNL     1     -40.534  53.749 -53.345  1.00  0.00     0.182 A 
HETATM   18  N   UNL     1     -40.311  54.430 -54.484  1.00  0.00    -0.152 NA
HETATM   19  N   UNL     1     -40.657  55.678 -54.134  1.00  0.00    -0.253 N 
HETATM   20  H   UNL     1     -40.566  56.436 -54.799  1.00  0.00     0.191 HD
BRANCH  17  21
HETATM   21  C   UNL     1     -40.232  52.329 -53.177  1.00  0.00     0.013 A 
HETATM   22  C   UNL     1     -39.822  51.829 -51.933  1.00  0.00     0.015 A 
HETATM   23  C   UNL     1     -39.499  50.479 -51.777  1.00  0.00     0.001 A 
HETATM   24  C   UNL     1     -39.588  49.610 -52.862  1.00  0.00     0.000 A 
HETATM   25  C   UNL     1     -40.000  50.089 -54.104  1.00  0.00     0.001 A 
HETATM   26  C   UNL     1     -40.319  51.442 -54.261  1.00  0.00     0.015 A 
ENDBRANCH  17  21
ENDBRANCH  14  15
ENDBRANCH  13  14
ENDBRANCH   8  13
BRANCH   1  27
HETATM   27  C   UNL     1     -43.602  56.531 -59.697  1.00  0.00     0.293 C 
HETATM   28  O   UNL     1     -42.505  56.065 -59.964  1.00  0.00    -0.259 OA
BRANCH  27  29
HETATM   29  O   UNL     1     -44.713  56.437 -60.468  1.00  0.00    -0.323 OA
HETATM   30  C   UNL     1     -45.009  55.109 -60.901  1.00  0.00     0.213 C 
ENDBRANCH  27  29
ENDBRANCH   1  27
TORSDOF 6
ENDMDL
MODEL 9
REMARK VINA RESULT:      -7.8      2.511      3.175
REMARK  6 active torsions:
REMARK  status: ('A' for Active; 'I' for Inactive)
REMARK    1  A    between atoms: O_2  and  C_3 
REMARK    2  A    between atoms: C_3  and  C_4 
REMARK    3  A    between atoms: C_11  and  C_12 
REMARK    4  A    between atoms: C_12  and  S_13 
REMARK    5  A    between atoms: S_13  and  C_14 
REMARK    6  A    between atoms: C_16  and  C_17 
ROOT
HETATM    1  C   UNL     1     -41.272  53.922 -52.203  1.00  0.00     0.041 A 
HETATM    2  C   UNL     1     -41.348  55.064 -53.017  1.00  0.00     0.050 A 
HETATM    3  C   UNL     1     -42.298  56.057 -52.761  1.00  0.00     0.075 A 
HETATM    4  C   UNL     1     -43.167  55.893 -51.679  1.00  0.00     0.061 A 
HETATM    5  C   UNL     1     -44.177  56.939 -51.455  1.00  0.00     0.259 A 
HETATM    6  O   UNL     1     -44.994  56.878 -50.544  1.00  0.00    -0.267 OA
HETATM    7  N   UNL     1     -44.150  57.981 -52.343  1.00  0.00    -0.310 N 
HETATM    8  C   UNL     1     -43.278  58.056 -53.400  1.00  0.00     0.117 A 
HETATM    9  N   UNL     1     -42.357  57.170 -53.618  1.00  0.00    -0.234 NA
HETATM   10  C   UNL     1     -43.102  54.768 -50.853  1.00  0.00     0.020 A 
HETATM   11  C   UNL     1     -42.151  53.782 -51.119  1.00  0.00     0.019 A 
HETATM   12  H   UNL     1     -44.913  58.640 -52.261  1.00  0.00     0.170 HD
ENDROOT
BRANCH   8  13
HETATM   13  C   UNL     1     -43.436  59.270 -54.293  1.00  0.00     0.161 C 
BRANCH  13  14
HETATM   14  S   UNL     1     -42.147  59.336 -55.567  1.00  0.00    -0.083 SA
BRANCH  14  15
HETATM   15  C   UNL     1     -42.723  58.195 -56.716  1.00  0.00     0.185 A 
HETATM   16  N   UNL     1     -43.667  58.331 -57.610  1.00  0.00    -0.201 NA
HETATM   17  C   UNL     1     -43.751  57.066 -58.170  1.00  0.00     0.182 A 
HETATM   18  N   UNL     1     -42.852  56.195 -57.678  1.00  0.00    -0.152 NA
HETATM   19  N   UNL     1     -42.220  56.937 -56.756  1.00  0.00    -0.253 N 
HETATM   20  H   UNL     1     -41.489  56.528 -56.188  1.00  0.00     0.191 HD
BRANCH  17  21
HETATM   21  C   UNL     1     -44.757  56.716 -59.170  1.00  0.00     0.013 A 
HETATM   22  C   UNL     1     -46.017  57.329 -59.160  1.00  0.00     0.015 A 
HETATM   23  C   UNL     1     -46.994  56.971 -60.094  1.00  0.00     0.001 A 
HETATM   24  C   UNL     1     -46.719  56.000 -61.053  1.00  0.00     0.000 A 
HETATM   25  C   UNL     1     -45.470  55.385 -61.081  1.00  0.00     0.001 A 
HETATM   26  C   UNL     1     -44.494  55.740 -60.144  1.00  0.00     0.015 A 
ENDBRANCH  17  21
ENDBRANCH  14  15
ENDBRANCH  13  14
ENDBRANCH   8  13
BRANCH   1  27
HETATM   27  C   UNL     1     -40.293  52.831 -52.455  1.00  0.00     0.293 C 
HETATM   28  O   UNL     1     -40.040  52.400 -53.569  1.00  0.00    -0.259 OA
BRANCH  27  29
HETATM   29  O   UNL     1     -39.739  52.403 -51.294  1.00  0.00    -0.323 OA
HETATM   30  C   UNL     1     -39.699  50.982 -51.159  1.00  0.00     0.213 C 
ENDBRANCH  27  29
ENDBRANCH   1  27
TORSDOF 6
ENDMDL
MODEL 10
REMARK VINA RESULT:      -7.7      3.334      7.457
REMARK  6 active torsions:
REMARK  status: ('A' for Active; 'I' for Inactive)
REMARK    1  A    between atoms: O_2  and  C_3 
REMARK    2  A    between atoms: C_3  and  C_4 
REMARK    3  A    between atoms: C_11  and  C_12 
REMARK    4  A    between atoms: C_12  and  S_13 
REMARK    5  A    between atoms: S_13  and  C_14 
REMARK    6  A    between atoms: C_16  and  C_17 
ROOT
HETATM    1  C   UNL     1     -44.268  60.708 -50.611  1.00  0.00     0.041 A 
HETATM    2  C   UNL     1     -44.416  60.221 -51.920  1.00  0.00     0.050 A 
HETATM    3  C   UNL     1     -43.309  59.746 -52.631  1.00  0.00     0.075 A 
HETATM    4  C   UNL     1     -42.056  59.762 -52.012  1.00  0.00     0.061 A 
HETATM    5  C   UNL     1     -40.906  59.286 -52.798  1.00  0.00     0.259 A 
HETATM    6  O   UNL     1     -39.765  59.277 -52.351  1.00  0.00    -0.267 OA
HETATM    7  N   UNL     1     -41.197  58.865 -54.068  1.00  0.00    -0.310 N 
HETATM    8  C   UNL     1     -42.455  58.905 -54.613  1.00  0.00     0.117 A 
HETATM    9  N   UNL     1     -43.499  59.292 -53.948  1.00  0.00    -0.234 NA
HETATM   10  C   UNL     1     -41.890  60.236 -50.709  1.00  0.00     0.020 A 
HETATM   11  C   UNL     1     -43.001  60.710 -50.010  1.00  0.00     0.019 A 
HETATM   12  H   UNL     1     -40.396  58.647 -54.646  1.00  0.00     0.170 HD
ENDROOT
BRANCH   8  13
HETATM   13  C   UNL     1     -42.562  58.434 -56.049  1.00  0.00     0.161 C 
BRANCH  13  14
HETATM   14  S   UNL     1     -43.696  57.028 -56.209  1.00  0.00    -0.083 SA
BRANCH  14  15
HETATM   15  C   UNL     1     -43.143  55.980 -54.965  1.00  0.00     0.185 A 
HETATM   16  N   UNL     1     -42.065  55.239 -54.929  1.00  0.00    -0.201 NA
HETATM   17  C   UNL     1     -42.200  54.548 -53.736  1.00  0.00     0.182 A 
HETATM   18  N   UNL     1     -43.294  54.891 -53.032  1.00  0.00    -0.152 NA
HETATM   19  N   UNL     1     -43.872  55.795 -53.838  1.00  0.00    -0.253 N 
HETATM   20  H   UNL     1     -44.753  56.219 -53.577  1.00  0.00     0.191 HD
BRANCH  17  21
HETATM   21  C   UNL     1     -41.256  53.515 -53.316  1.00  0.00     0.013 A 
HETATM   22  C   UNL     1     -40.765  52.579 -54.237  1.00  0.00     0.015 A 
HETATM   23  C   UNL     1     -39.889  51.569 -53.831  1.00  0.00     0.001 A 
HETATM   24  C   UNL     1     -39.488  51.486 -52.501  1.00  0.00     0.000 A 
HETATM   25  C   UNL     1     -39.961  52.412 -51.573  1.00  0.00     0.001 A 
HETATM   26  C   UNL     1     -40.841  53.420 -51.978  1.00  0.00     0.015 A 
ENDBRANCH  17  21
ENDBRANCH  14  15
ENDBRANCH  13  14
ENDBRANCH   8  13
BRANCH   1  27
HETATM   27  C   UNL     1     -45.414  61.246 -49.829  1.00  0.00     0.293 C 
HETATM   28  O   UNL     1     -46.238  62.018 -50.291  1.00  0.00    -0.259 OA
BRANCH  27  29
HETATM   29  O   UNL     1     -45.404  60.759 -48.564  1.00  0.00    -0.323 OA
HETATM   30  C   UNL     1     -46.029  61.616 -47.608  1.00  0.00     0.213 C 
ENDBRANCH  27  29
ENDBRANCH   1  27
TORSDOF 6
ENDMDL
