MODEL 1
REMARK VINA RESULT:      -8.1      0.000      0.000
REMARK  8 active torsions:
REMARK  status: ('A' for Active; 'I' for Inactive)
REMARK    1  A    between atoms: C_4  and  N_5 
REMARK       I    between atoms: N_5  and  C_6 
REMARK    2  A    between atoms: C_6  and  C_7 
REMARK    3  A    between atoms: C_7  and  N_8 
REMARK       I    between atoms: N_8  and  C_9 
REMARK    4  A    between atoms: C_9  and  C_10 
REMARK    5  A    between atoms: C_10  and  S_11 
REMARK    6  A    between atoms: S_11  and  C_12 
REMARK    7  A    between atoms: C_14  and  C_15 
REMARK    8  A    between atoms: C_27  and  O_28 
ROOT
HETATM    1  N   UNL     1     -42.251  59.880 -52.666  1.00  0.00    -0.352 N 
HETATM    2  C   UNL     1     -41.087  59.161 -52.472  1.00  0.00     0.227 C 
HETATM    3  O   UNL     1     -40.143  59.256 -53.252  1.00  0.00    -0.273 OA
HETATM    4  H   UNL     1     -42.912  59.972 -51.903  1.00  0.00     0.162 HD
ENDROOT
BRANCH   2   5
HETATM    5  C   UNL     1     -41.134  58.269 -51.240  1.00  0.00     0.185 C 
BRANCH   5   6
HETATM    6  S   UNL     1     -42.452  57.026 -51.346  1.00  0.00    -0.081 SA
BRANCH   6   7
HETATM    7  C   UNL     1     -41.629  55.799 -52.219  1.00  0.00     0.185 A 
HETATM    8  N   UNL     1     -41.487  54.538 -51.909  1.00  0.00    -0.201 NA
HETATM    9  C   UNL     1     -40.763  54.025 -52.968  1.00  0.00     0.185 A 
HETATM   10  N   UNL     1     -40.464  54.943 -53.909  1.00  0.00    -0.152 NA
HETATM   11  N   UNL     1     -41.024  56.055 -53.404  1.00  0.00    -0.253 N 
HETATM   12  H   UNL     1     -40.964  56.931 -53.908  1.00  0.00     0.191 HD
BRANCH   9  13
HETATM   13  C   UNL     1     -40.373  52.622 -53.059  1.00  0.00     0.052 A 
HETATM   14  C   UNL     1     -39.819  51.941 -51.969  1.00  0.00     0.130 A 
HETATM   15  F   UNL     1     -39.618  52.551 -50.791  1.00  0.00    -0.205 F 
HETATM   16  C   UNL     1     -39.451  50.597 -52.066  1.00  0.00     0.043 A 
HETATM   17  C   UNL     1     -39.632  49.908 -53.264  1.00  0.00     0.003 A 
HETATM   18  C   UNL     1     -40.181  50.567 -54.362  1.00  0.00     0.001 A 
HETATM   19  C   UNL     1     -40.548  51.913 -54.260  1.00  0.00     0.018 A 
ENDBRANCH   9  13
ENDBRANCH   6   7
ENDBRANCH   5   6
ENDBRANCH   2   5
BRANCH   1  20
HETATM   20  C   UNL     1     -42.382  60.798 -53.783  1.00  0.00     0.225 C 
BRANCH  20  21
HETATM   21  C   UNL     1     -42.992  60.094 -54.996  1.00  0.00     0.239 C 
HETATM   22  N   UNL     1     -42.111  59.223 -55.602  1.00  0.00    -0.323 N 
HETATM   23  H   UNL     1     -41.142  59.229 -55.269  1.00  0.00     0.169 HD
HETATM   24  O   UNL     1     -44.130  60.368 -55.369  1.00  0.00    -0.271 OA
BRANCH  22  25
HETATM   25  C   UNL     1     -42.339  58.364 -56.701  1.00  0.00     0.069 A 
HETATM   26  C   UNL     1     -42.058  58.717 -58.024  1.00  0.00     0.039 A 
HETATM   27  C   UNL     1     -42.313  57.822 -59.074  1.00  0.00    -0.060 A 
HETATM   28  C   UNL     1     -42.043  58.228 -60.493  1.00  0.00     0.048 C 
HETATM   29  C   UNL     1     -42.877  56.577 -58.787  1.00  0.00     0.009 A 
HETATM   30  C   UNL     1     -43.166  56.214 -57.469  1.00  0.00     0.039 A 
HETATM   31  C   UNL     1     -42.903  57.102 -56.423  1.00  0.00     0.095 A 
BRANCH  31  32
HETATM   32  O   UNL     1     -43.159  56.850 -55.096  1.00  0.00    -0.354 OA
HETATM   33  C   UNL     1     -44.521  56.757 -54.700  1.00  0.00     0.210 C 
ENDBRANCH  31  32
ENDBRANCH  22  25
ENDBRANCH  20  21
ENDBRANCH   1  20
TORSDOF 8
ENDMDL
MODEL 2
REMARK VINA RESULT:      -8.0      1.971      2.410
REMARK  8 active torsions:
REMARK  status: ('A' for Active; 'I' for Inactive)
REMARK    1  A    between atoms: C_4  and  N_5 
REMARK       I    between atoms: N_5  and  C_6 
REMARK    2  A    between atoms: C_6  and  C_7 
REMARK    3  A    between atoms: C_7  and  N_8 
REMARK       I    between atoms: N_8  and  C_9 
REMARK    4  A    between atoms: C_9  and  C_10 
REMARK    5  A    between atoms: C_10  and  S_11 
REMARK    6  A    between atoms: S_11  and  C_12 
REMARK    7  A    between atoms: C_14  and  C_15 
REMARK    8  A    between atoms: C_27  and  O_28 
ROOT
HETATM    1  N   UNL     1     -43.407  59.244 -53.999  1.00  0.00    -0.352 N 
HETATM    2  C   UNL     1     -42.025  59.249 -54.013  1.00  0.00     0.227 C 
HETATM    3  O   UNL     1     -41.399  59.598 -55.010  1.00  0.00    -0.273 OA
HETATM    4  H   UNL     1     -43.896  59.186 -53.112  1.00  0.00     0.162 HD
ENDROOT
BRANCH   2   5
HETATM    5  C   UNL     1     -41.413  58.773 -52.704  1.00  0.00     0.185 C 
BRANCH   5   6
HETATM    6  S   UNL     1     -42.653  58.060 -51.588  1.00  0.00    -0.081 SA
BRANCH   6   7
HETATM    7  C   UNL     1     -42.536  56.407 -52.038  1.00  0.00     0.185 A 
HETATM    8  N   UNL     1     -41.460  55.689 -52.220  1.00  0.00    -0.201 NA
HETATM    9  C   UNL     1     -41.955  54.442 -52.546  1.00  0.00     0.185 A 
HETATM   10  N   UNL     1     -43.302  54.386 -52.564  1.00  0.00    -0.152 NA
HETATM   11  N   UNL     1     -43.639  55.647 -52.241  1.00  0.00    -0.253 N 
HETATM   12  H   UNL     1     -44.613  55.912 -52.171  1.00  0.00     0.191 HD
BRANCH   9  13
HETATM   13  C   UNL     1     -41.098  53.295 -52.829  1.00  0.00     0.052 A 
HETATM   14  C   UNL     1     -40.262  52.743 -51.853  1.00  0.00     0.130 A 
HETATM   15  F   UNL     1     -40.207  53.248 -50.611  1.00  0.00    -0.205 F 
HETATM   16  C   UNL     1     -39.447  51.645 -52.134  1.00  0.00     0.043 A 
HETATM   17  C   UNL     1     -39.456  51.076 -53.406  1.00  0.00     0.003 A 
HETATM   18  C   UNL     1     -40.280  51.610 -54.394  1.00  0.00     0.001 A 
HETATM   19  C   UNL     1     -41.095  52.710 -54.108  1.00  0.00     0.018 A 
ENDBRANCH   9  13
ENDBRANCH   6   7
ENDBRANCH   5   6
ENDBRANCH   2   5
BRANCH   1  20
HETATM   20  C   UNL     1     -44.165  59.685 -55.156  1.00  0.00     0.225 C 
BRANCH  20  21
HETATM   21  C   UNL     1     -44.757  58.489 -55.904  1.00  0.00     0.239 C 
HETATM   22  N   UNL     1     -44.276  58.380 -57.193  1.00  0.00    -0.323 N 
HETATM   23  H   UNL     1     -43.694  59.147 -57.543  1.00  0.00     0.169 HD
HETATM   24  O   UNL     1     -45.608  57.781 -55.374  1.00  0.00    -0.271 OA
BRANCH  22  25
HETATM   25  C   UNL     1     -44.550  57.378 -58.151  1.00  0.00     0.069 A 
HETATM   26  C   UNL     1     -45.673  57.395 -58.983  1.00  0.00     0.039 A 
HETATM   27  C   UNL     1     -45.892  56.367 -59.911  1.00  0.00    -0.060 A 
HETATM   28  C   UNL     1     -47.122  56.377 -60.772  1.00  0.00     0.048 C 
HETATM   29  C   UNL     1     -44.987  55.306 -59.981  1.00  0.00     0.009 A 
HETATM   30  C   UNL     1     -43.863  55.275 -59.152  1.00  0.00     0.039 A 
HETATM   31  C   UNL     1     -43.639  56.304 -58.235  1.00  0.00     0.095 A 
BRANCH  31  32
HETATM   32  O   UNL     1     -42.575  56.366 -57.367  1.00  0.00    -0.354 OA
HETATM   33  C   UNL     1     -42.514  55.387 -56.338  1.00  0.00     0.210 C 
ENDBRANCH  31  32
ENDBRANCH  22  25
ENDBRANCH  20  21
ENDBRANCH   1  20
TORSDOF 8
ENDMDL
MODEL 3
REMARK VINA RESULT:      -8.0      1.884      2.541
REMARK  8 active torsions:
REMARK  status: ('A' for Active; 'I' for Inactive)
REMARK    1  A    between atoms: C_4  and  N_5 
REMARK       I    between atoms: N_5  and  C_6 
REMARK    2  A    between atoms: C_6  and  C_7 
REMARK    3  A    between atoms: C_7  and  N_8 
REMARK       I    between atoms: N_8  and  C_9 
REMARK    4  A    between atoms: C_9  and  C_10 
REMARK    5  A    between atoms: C_10  and  S_11 
REMARK    6  A    between atoms: S_11  and  C_12 
REMARK    7  A    between atoms: C_14  and  C_15 
REMARK    8  A    between atoms: C_27  and  O_28 
ROOT
HETATM    1  N   UNL     1     -44.622  56.638 -53.543  1.00  0.00    -0.352 N 
HETATM    2  C   UNL     1     -44.545  57.456 -52.432  1.00  0.00     0.227 C 
HETATM    3  O   UNL     1     -44.833  58.648 -52.498  1.00  0.00    -0.273 OA
HETATM    4  H   UNL     1     -44.614  55.631 -53.421  1.00  0.00     0.162 HD
ENDROOT
BRANCH   2   5
HETATM    5  C   UNL     1     -44.065  56.728 -51.185  1.00  0.00     0.185 C 
BRANCH   5   6
HETATM    6  S   UNL     1     -42.314  57.052 -50.835  1.00  0.00    -0.081 SA
BRANCH   6   7
HETATM    7  C   UNL     1     -41.589  55.876 -51.854  1.00  0.00     0.185 A 
HETATM    8  N   UNL     1     -41.402  54.604 -51.620  1.00  0.00    -0.201 NA
HETATM    9  C   UNL     1     -40.802  54.149 -52.778  1.00  0.00     0.185 A 
HETATM   10  N   UNL     1     -40.622  55.111 -53.705  1.00  0.00    -0.152 NA
HETATM   11  N   UNL     1     -41.129  56.193 -53.087  1.00  0.00    -0.253 N 
HETATM   12  H   UNL     1     -41.135  57.091 -53.555  1.00  0.00     0.191 HD
BRANCH   9  13
HETATM   13  C   UNL     1     -40.414  52.757 -52.978  1.00  0.00     0.052 A 
HETATM   14  C   UNL     1     -39.837  52.000 -51.952  1.00  0.00     0.130 A 
HETATM   15  F   UNL     1     -39.612  52.524 -50.738  1.00  0.00    -0.205 F 
HETATM   16  C   UNL     1     -39.472  50.667 -52.153  1.00  0.00     0.043 A 
HETATM   17  C   UNL     1     -39.678  50.065 -53.393  1.00  0.00     0.003 A 
HETATM   18  C   UNL     1     -40.249  50.801 -54.429  1.00  0.00     0.001 A 
HETATM   19  C   UNL     1     -40.614  52.135 -54.223  1.00  0.00     0.018 A 
ENDBRANCH   9  13
ENDBRANCH   6   7
ENDBRANCH   5   6
ENDBRANCH   2   5
BRANCH   1  20
HETATM   20  C   UNL     1     -45.079  57.156 -54.820  1.00  0.00     0.225 C 
BRANCH  20  21
HETATM   21  C   UNL     1     -43.895  57.423 -55.752  1.00  0.00     0.239 C 
HETATM   22  N   UNL     1     -44.268  57.476 -57.079  1.00  0.00    -0.323 N 
HETATM   23  H   UNL     1     -45.232  57.219 -57.306  1.00  0.00     0.169 HD
HETATM   24  O   UNL     1     -42.756  57.510 -55.303  1.00  0.00    -0.271 OA
BRANCH  22  25
HETATM   25  C   UNL     1     -43.464  57.758 -58.206  1.00  0.00     0.069 A 
HETATM   26  C   UNL     1     -43.069  59.050 -58.566  1.00  0.00     0.039 A 
HETATM   27  C   UNL     1     -42.274  59.267 -59.701  1.00  0.00    -0.060 A 
HETATM   28  C   UNL     1     -41.890  60.662 -60.099  1.00  0.00     0.048 C 
HETATM   29  C   UNL     1     -41.898  58.176 -60.489  1.00  0.00     0.009 A 
HETATM   30  C   UNL     1     -42.290  56.880 -60.143  1.00  0.00     0.039 A 
HETATM   31  C   UNL     1     -43.073  56.664 -59.007  1.00  0.00     0.095 A 
BRANCH  31  32
HETATM   32  O   UNL     1     -43.521  55.436 -58.583  1.00  0.00    -0.354 OA
HETATM   33  C   UNL     1     -44.339  54.695 -59.479  1.00  0.00     0.210 C 
ENDBRANCH  31  32
ENDBRANCH  22  25
ENDBRANCH  20  21
ENDBRANCH   1  20
TORSDOF 8
ENDMDL
MODEL 4
REMARK VINA RESULT:      -7.9      2.669      6.342
REMARK  8 active torsions:
REMARK  status: ('A' for Active; 'I' for Inactive)
REMARK    1  A    between atoms: C_4  and  N_5 
REMARK       I    between atoms: N_5  and  C_6 
REMARK    2  A    between atoms: C_6  and  C_7 
REMARK    3  A    between atoms: C_7  and  N_8 
REMARK       I    between atoms: N_8  and  C_9 
REMARK    4  A    between atoms: C_9  and  C_10 
REMARK    5  A    between atoms: C_10  and  S_11 
REMARK    6  A    between atoms: S_11  and  C_12 
REMARK    7  A    between atoms: C_14  and  C_15 
REMARK    8  A    between atoms: C_27  and  O_28 
ROOT
HETATM    1  N   UNL     1     -44.888  57.186 -51.717  1.00  0.00    -0.352 N 
HETATM    2  C   UNL     1     -44.503  58.506 -51.861  1.00  0.00     0.227 C 
HETATM    3  O   UNL     1     -43.679  59.015 -51.106  1.00  0.00    -0.273 OA
HETATM    4  H   UNL     1     -45.376  56.725 -52.477  1.00  0.00     0.162 HD
ENDROOT
BRANCH   2   5
HETATM    5  C   UNL     1     -45.210  59.214 -53.008  1.00  0.00     0.185 C 
BRANCH   5   6
HETATM    6  S   UNL     1     -44.342  60.723 -53.519  1.00  0.00    -0.081 SA
BRANCH   6   7
HETATM    7  C   UNL     1     -43.429  60.105 -54.835  1.00  0.00     0.185 A 
HETATM    8  N   UNL     1     -43.756  59.163 -55.679  1.00  0.00    -0.201 NA
HETATM    9  C   UNL     1     -42.666  59.095 -56.524  1.00  0.00     0.185 A 
HETATM   10  N   UNL     1     -41.689  59.971 -56.214  1.00  0.00    -0.152 NA
HETATM   11  N   UNL     1     -42.202  60.593 -55.138  1.00  0.00    -0.253 N 
HETATM   12  H   UNL     1     -41.680  61.326 -54.676  1.00  0.00     0.191 HD
BRANCH   9  13
HETATM   13  C   UNL     1     -42.590  58.170 -57.650  1.00  0.00     0.052 A 
HETATM   14  C   UNL     1     -43.046  56.851 -57.551  1.00  0.00     0.130 A 
HETATM   15  F   UNL     1     -43.570  56.376 -56.411  1.00  0.00    -0.205 F 
HETATM   16  C   UNL     1     -42.971  55.975 -58.636  1.00  0.00     0.043 A 
HETATM   17  C   UNL     1     -42.434  56.407 -59.847  1.00  0.00     0.003 A 
HETATM   18  C   UNL     1     -41.973  57.716 -59.968  1.00  0.00     0.001 A 
HETATM   19  C   UNL     1     -42.050  58.590 -58.879  1.00  0.00     0.018 A 
ENDBRANCH   9  13
ENDBRANCH   6   7
ENDBRANCH   5   6
ENDBRANCH   2   5
BRANCH   1  20
HETATM   20  C   UNL     1     -44.305  56.349 -50.686  1.00  0.00     0.225 C 
BRANCH  20  21
HETATM   21  C   UNL     1     -43.021  55.684 -51.187  1.00  0.00     0.239 C 
HETATM   22  N   UNL     1     -43.087  55.348 -52.524  1.00  0.00    -0.323 N 
HETATM   23  H   UNL     1     -43.991  55.458 -52.992  1.00  0.00     0.169 HD
HETATM   24  O   UNL     1     -42.096  55.453 -50.414  1.00  0.00    -0.271 OA
BRANCH  22  25
HETATM   25  C   UNL     1     -42.081  54.778 -53.336  1.00  0.00     0.069 A 
HETATM   26  C   UNL     1     -41.804  53.408 -53.371  1.00  0.00     0.039 A 
HETATM   27  C   UNL     1     -40.788  52.903 -54.195  1.00  0.00    -0.060 A 
HETATM   28  C   UNL     1     -40.475  51.435 -54.194  1.00  0.00     0.048 C 
HETATM   29  C   UNL     1     -40.032  53.788 -54.967  1.00  0.00     0.009 A 
HETATM   30  C   UNL     1     -40.296  55.160 -54.938  1.00  0.00     0.039 A 
HETATM   31  C   UNL     1     -41.314  55.661 -54.125  1.00  0.00     0.095 A 
BRANCH  31  32
HETATM   32  O   UNL     1     -41.649  56.990 -54.013  1.00  0.00    -0.354 OA
HETATM   33  C   UNL     1     -40.764  57.826 -53.280  1.00  0.00     0.210 C 
ENDBRANCH  31  32
ENDBRANCH  22  25
ENDBRANCH  20  21
ENDBRANCH   1  20
TORSDOF 8
ENDMDL
MODEL 5
REMARK VINA RESULT:      -7.8      1.542      2.517
REMARK  8 active torsions:
REMARK  status: ('A' for Active; 'I' for Inactive)
REMARK    1  A    between atoms: C_4  and  N_5 
REMARK       I    between atoms: N_5  and  C_6 
REMARK    2  A    between atoms: C_6  and  C_7 
REMARK    3  A    between atoms: C_7  and  N_8 
REMARK       I    between atoms: N_8  and  C_9 
REMARK    4  A    between atoms: C_9  and  C_10 
REMARK    5  A    between atoms: C_10  and  S_11 
REMARK    6  A    between atoms: S_11  and  C_12 
REMARK    7  A    between atoms: C_14  and  C_15 
REMARK    8  A    between atoms: C_27  and  O_28 
ROOT
HETATM    1  N   UNL     1     -41.981  58.427 -52.884  1.00  0.00    -0.352 N 
HETATM    2  C   UNL     1     -40.713  58.557 -52.348  1.00  0.00     0.227 C 
HETATM    3  O   UNL     1     -39.822  59.143 -52.957  1.00  0.00    -0.273 OA
HETATM    4  H   UNL     1     -42.750  58.158 -52.280  1.00  0.00     0.162 HD
ENDROOT
BRANCH   2   5
HETATM    5  C   UNL     1     -40.569  57.897 -50.984  1.00  0.00     0.185 C 
BRANCH   5   6
HETATM    6  S   UNL     1     -41.907  56.717 -50.652  1.00  0.00    -0.081 SA
BRANCH   6   7
HETATM    7  C   UNL     1     -41.050  55.242 -50.846  1.00  0.00     0.185 A 
HETATM    8  N   UNL     1     -41.214  54.322 -51.760  1.00  0.00    -0.201 NA
HETATM    9  C   UNL     1     -40.252  53.381 -51.445  1.00  0.00     0.185 A 
HETATM   10  N   UNL     1     -39.513  53.708 -50.367  1.00  0.00    -0.152 NA
HETATM   11  N   UNL     1     -40.045  54.890 -50.010  1.00  0.00    -0.253 N 
HETATM   12  H   UNL     1     -39.680  55.392 -49.211  1.00  0.00     0.191 HD
BRANCH   9  13
HETATM   13  C   UNL     1     -40.054  52.160 -52.218  1.00  0.00     0.052 A 
HETATM   14  C   UNL     1     -39.823  50.927 -51.597  1.00  0.00     0.130 A 
HETATM   15  F   UNL     1     -39.770  50.815 -50.261  1.00  0.00    -0.205 F 
HETATM   16  C   UNL     1     -39.636  49.763 -52.346  1.00  0.00     0.043 A 
HETATM   17  C   UNL     1     -39.677  49.814 -53.738  1.00  0.00     0.003 A 
HETATM   18  C   UNL     1     -39.904  51.031 -54.377  1.00  0.00     0.001 A 
HETATM   19  C   UNL     1     -40.090  52.194 -53.623  1.00  0.00     0.018 A 
ENDBRANCH   9  13
ENDBRANCH   6   7
ENDBRANCH   5   6
ENDBRANCH   2   5
BRANCH   1  20
HETATM   20  C   UNL     1     -42.308  59.010 -54.172  1.00  0.00     0.225 C 
BRANCH  20  21
HETATM   21  C   UNL     1     -42.217  57.960 -55.281  1.00  0.00     0.239 C 
HETATM   22  N   UNL     1     -42.724  58.414 -56.482  1.00  0.00    -0.323 N 
HETATM   23  H   UNL     1     -43.201  59.319 -56.478  1.00  0.00     0.169 HD
HETATM   24  O   UNL     1     -41.783  56.837 -55.042  1.00  0.00    -0.271 OA
BRANCH  22  25
HETATM   25  C   UNL     1     -42.754  57.750 -57.729  1.00  0.00     0.069 A 
HETATM   26  C   UNL     1     -43.459  56.563 -57.953  1.00  0.00     0.039 A 
HETATM   27  C   UNL     1     -43.446  55.949 -59.213  1.00  0.00    -0.060 A 
HETATM   28  C   UNL     1     -44.174  54.655 -59.430  1.00  0.00     0.048 C 
HETATM   29  C   UNL     1     -42.697  56.521 -60.244  1.00  0.00     0.009 A 
HETATM   30  C   UNL     1     -41.984  57.705 -60.032  1.00  0.00     0.039 A 
HETATM   31  C   UNL     1     -42.006  58.322 -58.780  1.00  0.00     0.095 A 
BRANCH  31  32
HETATM   32  O   UNL     1     -41.334  59.478 -58.461  1.00  0.00    -0.354 OA
HETATM   33  C   UNL     1     -41.782  60.682 -59.071  1.00  0.00     0.210 C 
ENDBRANCH  31  32
ENDBRANCH  22  25
ENDBRANCH  20  21
ENDBRANCH   1  20
TORSDOF 8
ENDMDL
MODEL 6
REMARK VINA RESULT:      -7.6      3.032      4.220
REMARK  8 active torsions:
REMARK  status: ('A' for Active; 'I' for Inactive)
REMARK    1  A    between atoms: C_4  and  N_5 
REMARK       I    between atoms: N_5  and  C_6 
REMARK    2  A    between atoms: C_6  and  C_7 
REMARK    3  A    between atoms: C_7  and  N_8 
REMARK       I    between atoms: N_8  and  C_9 
REMARK    4  A    between atoms: C_9  and  C_10 
REMARK    5  A    between atoms: C_10  and  S_11 
REMARK    6  A    between atoms: S_11  and  C_12 
REMARK    7  A    between atoms: C_14  and  C_15 
REMARK    8  A    between atoms: C_27  and  O_28 
ROOT
HETATM    1  N   UNL     1     -42.309  56.577 -56.963  1.00  0.00    -0.352 N 
HETATM    2  C   UNL     1     -42.988  57.193 -55.928  1.00  0.00     0.227 C 
HETATM    3  O   UNL     1     -44.156  56.908 -55.674  1.00  0.00    -0.273 OA
HETATM    4  H   UNL     1     -41.298  56.646 -57.005  1.00  0.00     0.162 HD
ENDROOT
BRANCH   2   5
HETATM    5  C   UNL     1     -42.148  58.228 -55.195  1.00  0.00     0.185 C 
BRANCH   5   6
HETATM    6  S   UNL     1     -42.373  58.141 -53.396  1.00  0.00    -0.081 SA
BRANCH   6   7
HETATM    7  C   UNL     1     -42.302  56.440 -53.174  1.00  0.00     0.185 A 
HETATM    8  N   UNL     1     -41.295  55.635 -53.387  1.00  0.00    -0.201 NA
HETATM    9  C   UNL     1     -41.791  54.397 -53.026  1.00  0.00     0.185 A 
HETATM   10  N   UNL     1     -43.069  54.433 -52.600  1.00  0.00    -0.152 NA
HETATM   11  N   UNL     1     -43.364  55.740 -52.709  1.00  0.00    -0.253 N 
HETATM   12  H   UNL     1     -44.281  56.080 -52.449  1.00  0.00     0.191 HD
BRANCH   9  13
HETATM   13  C   UNL     1     -40.998  53.174 -53.089  1.00  0.00     0.052 A 
HETATM   14  C   UNL     1     -40.234  52.736 -52.001  1.00  0.00     0.130 A 
HETATM   15  F   UNL     1     -40.193  53.426 -50.851  1.00  0.00    -0.205 F 
HETATM   16  C   UNL     1     -39.480  51.562 -52.072  1.00  0.00     0.043 A 
HETATM   17  C   UNL     1     -39.478  50.802 -53.240  1.00  0.00     0.003 A 
HETATM   18  C   UNL     1     -40.231  51.221 -54.335  1.00  0.00     0.001 A 
HETATM   19  C   UNL     1     -40.984  52.397 -54.260  1.00  0.00     0.018 A 
ENDBRANCH   9  13
ENDBRANCH   6   7
ENDBRANCH   5   6
ENDBRANCH   2   5
BRANCH   1  20
HETATM   20  C   UNL     1     -42.947  55.547 -57.763  1.00  0.00     0.225 C 
BRANCH  20  21
HETATM   21  C   UNL     1     -43.669  56.162 -58.964  1.00  0.00     0.239 C 
HETATM   22  N   UNL     1     -44.953  56.565 -58.660  1.00  0.00    -0.323 N 
HETATM   23  H   UNL     1     -45.320  56.309 -57.740  1.00  0.00     0.169 HD
HETATM   24  O   UNL     1     -43.123  56.207 -60.063  1.00  0.00    -0.271 OA
BRANCH  22  25
HETATM   25  C   UNL     1     -45.887  57.221 -59.493  1.00  0.00     0.069 A 
HETATM   26  C   UNL     1     -46.710  56.550 -60.404  1.00  0.00     0.039 A 
HETATM   27  C   UNL     1     -47.615  57.258 -61.207  1.00  0.00    -0.060 A 
HETATM   28  C   UNL     1     -48.465  56.531 -62.208  1.00  0.00     0.048 C 
HETATM   29  C   UNL     1     -47.671  58.651 -61.109  1.00  0.00     0.009 A 
HETATM   30  C   UNL     1     -46.851  59.333 -60.206  1.00  0.00     0.039 A 
HETATM   31  C   UNL     1     -45.957  58.626 -59.398  1.00  0.00     0.095 A 
BRANCH  31  32
HETATM   32  O   UNL     1     -45.100  59.197 -58.488  1.00  0.00    -0.354 OA
HETATM   33  C   UNL     1     -44.376  60.347 -58.905  1.00  0.00     0.210 C 
ENDBRANCH  31  32
ENDBRANCH  22  25
ENDBRANCH  20  21
ENDBRANCH   1  20
TORSDOF 8
ENDMDL
MODEL 7
REMARK VINA RESULT:      -7.6      2.612      6.967
REMARK  8 active torsions:
REMARK  status: ('A' for Active; 'I' for Inactive)
REMARK    1  A    between atoms: C_4  and  N_5 
REMARK       I    between atoms: N_5  and  C_6 
REMARK    2  A    between atoms: C_6  and  C_7 
REMARK    3  A    between atoms: C_7  and  N_8 
REMARK       I    between atoms: N_8  and  C_9 
REMARK    4  A    between atoms: C_9  and  C_10 
REMARK    5  A    between atoms: C_10  and  S_11 
REMARK    6  A    between atoms: S_11  and  C_12 
REMARK    7  A    between atoms: C_14  and  C_15 
REMARK    8  A    between atoms: C_27  and  O_28 
ROOT
HETATM    1  N   UNL     1     -43.667  56.749 -56.211  1.00  0.00    -0.352 N 
HETATM    2  C   UNL     1     -44.175  57.574 -57.197  1.00  0.00     0.227 C 
HETATM    3  O   UNL     1     -43.546  57.797 -58.228  1.00  0.00    -0.273 OA
HETATM    4  H   UNL     1     -44.287  56.393 -55.492  1.00  0.00     0.162 HD
ENDROOT
BRANCH   2   5
HETATM    5  C   UNL     1     -45.538  58.154 -56.847  1.00  0.00     0.185 C 
BRANCH   5   6
HETATM    6  S   UNL     1     -45.456  59.933 -56.500  1.00  0.00    -0.081 SA
BRANCH   6   7
HETATM    7  C   UNL     1     -44.020  59.982 -55.560  1.00  0.00     0.185 A 
HETATM    8  N   UNL     1     -43.874  59.731 -54.287  1.00  0.00    -0.201 NA
HETATM    9  C   UNL     1     -42.520  59.903 -54.077  1.00  0.00     0.185 A 
HETATM   10  N   UNL     1     -41.843  60.251 -55.190  1.00  0.00    -0.152 NA
HETATM   11  N   UNL     1     -42.822  60.295 -56.110  1.00  0.00    -0.253 N 
HETATM   12  H   UNL     1     -42.609  60.533 -57.070  1.00  0.00     0.191 HD
BRANCH   9  13
HETATM   13  C   UNL     1     -41.886  59.713 -52.777  1.00  0.00     0.052 A 
HETATM   14  C   UNL     1     -40.807  58.839 -52.605  1.00  0.00     0.130 A 
HETATM   15  F   UNL     1     -40.309  58.132 -53.631  1.00  0.00    -0.205 F 
HETATM   16  C   UNL     1     -40.207  58.666 -51.356  1.00  0.00     0.043 A 
HETATM   17  C   UNL     1     -40.679  59.369 -50.250  1.00  0.00     0.003 A 
HETATM   18  C   UNL     1     -41.753  60.244 -50.398  1.00  0.00     0.001 A 
HETATM   19  C   UNL     1     -42.352  60.415 -51.650  1.00  0.00     0.018 A 
ENDBRANCH   9  13
ENDBRANCH   6   7
ENDBRANCH   5   6
ENDBRANCH   2   5
BRANCH   1  20
HETATM   20  C   UNL     1     -42.384  56.092 -56.378  1.00  0.00     0.225 C 
BRANCH  20  21
HETATM   21  C   UNL     1     -42.306  54.827 -55.521  1.00  0.00     0.239 C 
HETATM   22  N   UNL     1     -41.047  54.620 -54.996  1.00  0.00    -0.323 N 
HETATM   23  H   UNL     1     -40.296  55.236 -55.321  1.00  0.00     0.169 HD
HETATM   24  O   UNL     1     -43.282  54.092 -55.405  1.00  0.00    -0.271 OA
BRANCH  22  25
HETATM   25  C   UNL     1     -40.618  53.598 -54.119  1.00  0.00     0.069 A 
HETATM   26  C   UNL     1     -40.291  52.307 -54.544  1.00  0.00     0.039 A 
HETATM   27  C   UNL     1     -39.876  51.334 -53.623  1.00  0.00    -0.060 A 
HETATM   28  C   UNL     1     -39.565  49.941 -54.087  1.00  0.00     0.048 C 
HETATM   29  C   UNL     1     -39.817  51.659 -52.266  1.00  0.00     0.009 A 
HETATM   30  C   UNL     1     -40.146  52.945 -51.829  1.00  0.00     0.039 A 
HETATM   31  C   UNL     1     -40.549  53.917 -52.747  1.00  0.00     0.095 A 
BRANCH  31  32
HETATM   32  O   UNL     1     -40.904  55.205 -52.423  1.00  0.00    -0.354 OA
HETATM   33  C   UNL     1     -42.116  55.386 -51.704  1.00  0.00     0.210 C 
ENDBRANCH  31  32
ENDBRANCH  22  25
ENDBRANCH  20  21
ENDBRANCH   1  20
TORSDOF 8
ENDMDL
MODEL 8
REMARK VINA RESULT:      -7.6      2.863      7.085
REMARK  8 active torsions:
REMARK  status: ('A' for Active; 'I' for Inactive)
REMARK    1  A    between atoms: C_4  and  N_5 
REMARK       I    between atoms: N_5  and  C_6 
REMARK    2  A    between atoms: C_6  and  C_7 
REMARK    3  A    between atoms: C_7  and  N_8 
REMARK       I    between atoms: N_8  and  C_9 
REMARK    4  A    between atoms: C_9  and  C_10 
REMARK    5  A    between atoms: C_10  and  S_11 
REMARK    6  A    between atoms: S_11  and  C_12 
REMARK    7  A    between atoms: C_14  and  C_15 
REMARK    8  A    between atoms: C_27  and  O_28 
ROOT
HETATM    1  N   UNL     1     -42.124  57.019 -51.777  1.00  0.00    -0.352 N 
HETATM    2  C   UNL     1     -41.224  57.994 -51.391  1.00  0.00     0.227 C 
HETATM    3  O   UNL     1     -40.879  58.115 -50.219  1.00  0.00    -0.273 OA
HETATM    4  H   UNL     1     -42.212  56.784 -52.759  1.00  0.00     0.162 HD
ENDROOT
BRANCH   2   5
HETATM    5  C   UNL     1     -40.755  58.866 -52.547  1.00  0.00     0.185 C 
BRANCH   5   6
HETATM    6  S   UNL     1     -42.001  60.094 -53.027  1.00  0.00    -0.081 SA
BRANCH   6   7
HETATM    7  C   UNL     1     -42.126  59.745 -54.704  1.00  0.00     0.185 A 
HETATM    8  N   UNL     1     -42.235  58.579 -55.284  1.00  0.00    -0.201 NA
HETATM    9  C   UNL     1     -42.319  58.895 -56.626  1.00  0.00     0.185 A 
HETATM   10  N   UNL     1     -42.263  60.219 -56.872  1.00  0.00    -0.152 NA
HETATM   11  N   UNL     1     -42.139  60.728 -55.634  1.00  0.00    -0.253 N 
HETATM   12  H   UNL     1     -42.076  61.730 -55.499  1.00  0.00     0.191 HD
BRANCH   9  13
HETATM   13  C   UNL     1     -42.465  57.888 -57.672  1.00  0.00     0.052 A 
HETATM   14  C   UNL     1     -42.087  58.141 -58.995  1.00  0.00     0.130 A 
HETATM   15  F   UNL     1     -41.577  59.327 -59.362  1.00  0.00    -0.205 F 
HETATM   16  C   UNL     1     -42.229  57.169 -59.988  1.00  0.00     0.043 A 
HETATM   17  C   UNL     1     -42.756  55.919 -59.671  1.00  0.00     0.003 A 
HETATM   18  C   UNL     1     -43.139  55.645 -58.360  1.00  0.00     0.001 A 
HETATM   19  C   UNL     1     -42.995  56.621 -57.369  1.00  0.00     0.018 A 
ENDBRANCH   9  13
ENDBRANCH   6   7
ENDBRANCH   5   6
ENDBRANCH   2   5
BRANCH   1  20
HETATM   20  C   UNL     1     -42.666  56.082 -50.810  1.00  0.00     0.225 C 
BRANCH  20  21
HETATM   21  C   UNL     1     -42.511  54.642 -51.304  1.00  0.00     0.239 C 
HETATM   22  N   UNL     1     -41.253  54.389 -51.811  1.00  0.00    -0.323 N 
HETATM   23  H   UNL     1     -40.620  55.187 -51.917  1.00  0.00     0.169 HD
HETATM   24  O   UNL     1     -43.463  53.867 -51.275  1.00  0.00    -0.271 OA
BRANCH  22  25
HETATM   25  C   UNL     1     -40.732  53.169 -52.298  1.00  0.00     0.069 A 
HETATM   26  C   UNL     1     -40.224  52.164 -51.470  1.00  0.00     0.039 A 
HETATM   27  C   UNL     1     -39.715  50.976 -52.014  1.00  0.00    -0.060 A 
HETATM   28  C   UNL     1     -39.137  49.921 -51.117  1.00  0.00     0.048 C 
HETATM   29  C   UNL     1     -39.695  50.814 -53.402  1.00  0.00     0.009 A 
HETATM   30  C   UNL     1     -40.195  51.814 -54.241  1.00  0.00     0.039 A 
HETATM   31  C   UNL     1     -40.712  52.992 -53.697  1.00  0.00     0.095 A 
BRANCH  31  32
HETATM   32  O   UNL     1     -41.217  54.040 -54.430  1.00  0.00    -0.354 OA
HETATM   33  C   UNL     1     -40.312  55.069 -54.807  1.00  0.00     0.210 C 
ENDBRANCH  31  32
ENDBRANCH  22  25
ENDBRANCH  20  21
ENDBRANCH   1  20
TORSDOF 8
ENDMDL
MODEL 9
REMARK VINA RESULT:      -7.6      5.060      9.176
REMARK  8 active torsions:
REMARK  status: ('A' for Active; 'I' for Inactive)
REMARK    1  A    between atoms: C_4  and  N_5 
REMARK       I    between atoms: N_5  and  C_6 
REMARK    2  A    between atoms: C_6  and  C_7 
REMARK    3  A    between atoms: C_7  and  N_8 
REMARK       I    between atoms: N_8  and  C_9 
REMARK    4  A    between atoms: C_9  and  C_10 
REMARK    5  A    between atoms: C_10  and  S_11 
REMARK    6  A    between atoms: S_11  and  C_12 
REMARK    7  A    between atoms: C_14  and  C_15 
REMARK    8  A    between atoms: C_27  and  O_28 
ROOT
HETATM    1  N   UNL     1     -43.156  57.092 -52.367  1.00  0.00    -0.352 N 
HETATM    2  C   UNL     1     -41.959  57.756 -52.175  1.00  0.00     0.227 C 
HETATM    3  O   UNL     1     -40.979  57.518 -52.876  1.00  0.00    -0.273 OA
HETATM    4  H   UNL     1     -44.003  57.462 -51.949  1.00  0.00     0.162 HD
ENDROOT
BRANCH   2   5
HETATM    5  C   UNL     1     -42.007  58.756 -51.029  1.00  0.00     0.185 C 
BRANCH   5   6
HETATM    6  S   UNL     1     -42.671  60.362 -51.551  1.00  0.00    -0.081 SA
BRANCH   6   7
HETATM    7  C   UNL     1     -43.897  60.571 -50.367  1.00  0.00     0.185 A 
HETATM    8  N   UNL     1     -44.034  61.542 -49.503  1.00  0.00    -0.201 NA
HETATM    9  C   UNL     1     -45.191  61.209 -48.826  1.00  0.00     0.185 A 
HETATM   10  N   UNL     1     -45.757  60.064 -49.258  1.00  0.00    -0.152 NA
HETATM   11  N   UNL     1     -44.911  59.684 -50.232  1.00  0.00    -0.253 N 
HETATM   12  H   UNL     1     -45.085  58.836 -50.756  1.00  0.00     0.191 HD
BRANCH   9  13
HETATM   13  C   UNL     1     -45.749  62.028 -47.756  1.00  0.00     0.052 A 
HETATM   14  C   UNL     1     -46.901  62.801 -47.945  1.00  0.00     0.130 A 
HETATM   15  F   UNL     1     -47.541  62.825 -49.124  1.00  0.00    -0.205 F 
HETATM   16  C   UNL     1     -47.428  63.580 -46.913  1.00  0.00     0.043 A 
HETATM   17  C   UNL     1     -46.807  63.600 -45.666  1.00  0.00     0.003 A 
HETATM   18  C   UNL     1     -45.659  62.839 -45.455  1.00  0.00     0.001 A 
HETATM   19  C   UNL     1     -45.135  62.060 -46.492  1.00  0.00     0.018 A 
ENDBRANCH   9  13
ENDBRANCH   6   7
ENDBRANCH   5   6
ENDBRANCH   2   5
BRANCH   1  20
HETATM   20  C   UNL     1     -43.302  56.112 -53.428  1.00  0.00     0.225 C 
BRANCH  20  21
HETATM   21  C   UNL     1     -42.853  54.728 -52.955  1.00  0.00     0.239 C 
HETATM   22  N   UNL     1     -41.596  54.394 -53.415  1.00  0.00    -0.323 N 
HETATM   23  H   UNL     1     -41.163  55.023 -54.098  1.00  0.00     0.169 HD
HETATM   24  O   UNL     1     -43.605  54.022 -52.289  1.00  0.00    -0.271 OA
BRANCH  22  25
HETATM   25  C   UNL     1     -40.839  53.233 -53.138  1.00  0.00     0.069 A 
HETATM   26  C   UNL     1     -40.709  52.167 -54.033  1.00  0.00     0.039 A 
HETATM   27  C   UNL     1     -39.947  51.038 -53.697  1.00  0.00    -0.060 A 
HETATM   28  C   UNL     1     -39.847  49.884 -54.650  1.00  0.00     0.048 C 
HETATM   29  C   UNL     1     -39.336  50.976 -52.442  1.00  0.00     0.009 A 
HETATM   30  C   UNL     1     -39.462  52.034 -51.537  1.00  0.00     0.039 A 
HETATM   31  C   UNL     1     -40.212  53.161 -51.876  1.00  0.00     0.095 A 
BRANCH  31  32
HETATM   32  O   UNL     1     -40.409  54.249 -51.059  1.00  0.00    -0.354 OA
HETATM   33  C   UNL     1     -39.944  54.151 -49.719  1.00  0.00     0.210 C 
ENDBRANCH  31  32
ENDBRANCH  22  25
ENDBRANCH  20  21
ENDBRANCH   1  20
TORSDOF 8
ENDMDL
MODEL 10
REMARK VINA RESULT:      -7.5      2.603      7.226
REMARK  8 active torsions:
REMARK  status: ('A' for Active; 'I' for Inactive)
REMARK    1  A    between atoms: C_4  and  N_5 
REMARK       I    between atoms: N_5  and  C_6 
REMARK    2  A    between atoms: C_6  and  C_7 
REMARK    3  A    between atoms: C_7  and  N_8 
REMARK       I    between atoms: N_8  and  C_9 
REMARK    4  A    between atoms: C_9  and  C_10 
REMARK    5  A    between atoms: C_10  and  S_11 
REMARK    6  A    between atoms: S_11  and  C_12 
REMARK    7  A    between atoms: C_14  and  C_15 
REMARK    8  A    between atoms: C_27  and  O_28 
ROOT
HETATM    1  N   UNL     1     -42.660  57.323 -50.865  1.00  0.00    -0.352 N 
HETATM    2  C   UNL     1     -42.087  57.922 -51.971  1.00  0.00     0.227 C 
HETATM    3  O   UNL     1     -40.941  57.651 -52.319  1.00  0.00    -0.273 OA
HETATM    4  H   UNL     1     -43.665  57.375 -50.735  1.00  0.00     0.162 HD
ENDROOT
BRANCH   2   5
HETATM    5  C   UNL     1     -43.009  58.921 -52.654  1.00  0.00     0.185 C 
BRANCH   5   6
HETATM    6  S   UNL     1     -44.659  58.232 -52.960  1.00  0.00    -0.081 SA
BRANCH   6   7
HETATM    7  C   UNL     1     -44.644  58.184 -54.676  1.00  0.00     0.185 A 
HETATM    8  N   UNL     1     -43.623  58.019 -55.474  1.00  0.00    -0.201 NA
HETATM    9  C   UNL     1     -44.191  58.046 -56.733  1.00  0.00     0.185 A 
HETATM   10  N   UNL     1     -45.527  58.222 -56.716  1.00  0.00    -0.152 NA
HETATM   11  N   UNL     1     -45.782  58.308 -55.399  1.00  0.00    -0.253 N 
HETATM   12  H   UNL     1     -46.730  58.442 -55.071  1.00  0.00     0.191 HD
BRANCH   9  13
HETATM   13  C   UNL     1     -43.415  57.886 -57.958  1.00  0.00     0.052 A 
HETATM   14  C   UNL     1     -43.143  56.623 -58.497  1.00  0.00     0.130 A 
HETATM   15  F   UNL     1     -43.580  55.501 -57.905  1.00  0.00    -0.205 F 
HETATM   16  C   UNL     1     -42.402  56.481 -59.672  1.00  0.00     0.043 A 
HETATM   17  C   UNL     1     -41.916  57.608 -60.332  1.00  0.00     0.003 A 
HETATM   18  C   UNL     1     -42.175  58.875 -59.814  1.00  0.00     0.001 A 
HETATM   19  C   UNL     1     -42.918  59.013 -58.637  1.00  0.00     0.018 A 
ENDBRANCH   9  13
ENDBRANCH   6   7
ENDBRANCH   5   6
ENDBRANCH   2   5
BRANCH   1  20
HETATM   20  C   UNL     1     -41.935  56.328 -50.097  1.00  0.00     0.225 C 
BRANCH  20  21
HETATM   21  C   UNL     1     -41.986  54.964 -50.789  1.00  0.00     0.239 C 
HETATM   22  N   UNL     1     -40.756  54.569 -51.273  1.00  0.00    -0.323 N 
HETATM   23  H   UNL     1     -39.995  55.252 -51.233  1.00  0.00     0.169 HD
HETATM   24  O   UNL     1     -43.053  54.370 -50.916  1.00  0.00    -0.271 OA
BRANCH  22  25
HETATM   25  C   UNL     1     -40.412  53.356 -51.911  1.00  0.00     0.069 A 
HETATM   26  C   UNL     1     -40.057  52.195 -51.217  1.00  0.00     0.039 A 
HETATM   27  C   UNL     1     -39.720  51.022 -51.908  1.00  0.00    -0.060 A 
HETATM   28  C   UNL     1     -39.304  49.795 -51.152  1.00  0.00     0.048 C 
HETATM   29  C   UNL     1     -39.717  51.030 -53.305  1.00  0.00     0.009 A 
HETATM   30  C   UNL     1     -40.065  52.185 -54.010  1.00  0.00     0.039 A 
HETATM   31  C   UNL     1     -40.410  53.350 -53.322  1.00  0.00     0.095 A 
BRANCH  31  32
HETATM   32  O   UNL     1     -40.757  54.540 -53.916  1.00  0.00    -0.354 OA
HETATM   33  C   UNL     1     -40.991  54.526 -55.317  1.00  0.00     0.210 C 
ENDBRANCH  31  32
ENDBRANCH  22  25
ENDBRANCH  20  21
ENDBRANCH   1  20
TORSDOF 8
ENDMDL
