MODEL 1
REMARK VINA RESULT:      -7.5      0.000      0.000
REMARK  5 active torsions:
REMARK  status: ('A' for Active; 'I' for Inactive)
REMARK    1  A    between atoms: C_2  and  C_3 
REMARK    2  A    between atoms: C_3  and  C_4 
REMARK       I    between atoms: C_4  and  N_5 
REMARK    3  A    between atoms: N_5  and  C_6 
REMARK    4  A    between atoms: C_9  and  N_10 
REMARK       I    between atoms: N_10  and  C_11 
REMARK       I    between atoms: C_11  and  N_12 
REMARK    5  A    between atoms: N_12  and  C_13 
ROOT
HETATM    1  C   UNL     1     -40.624  53.321 -50.966  1.00  0.00     0.043 C 
HETATM    2  C   UNL     1     -41.794  54.035 -51.308  1.00  0.00    -0.008 C 
HETATM    3  C   UNL     1     -42.494  53.851 -52.634  1.00  0.00     0.053 C 
HETATM    4  C   UNL     1     -42.272  55.040 -50.426  1.00  0.00     0.044 C 
HETATM    5  C   UNL     1     -41.532  55.389 -49.292  1.00  0.00     0.030 C 
HETATM    6  C   UNL     1     -40.322  54.758 -49.022  1.00  0.00     0.005 C 
HETATM    7  C   UNL     1     -39.875  53.731 -49.851  1.00  0.00     0.030 C 
ENDROOT
BRANCH   4   8
HETATM    8  N   UNL     1     -43.544  55.602 -50.672  1.00  0.00    -0.308 N 
HETATM    9  C   UNL     1     -43.932  56.873 -51.007  1.00  0.00     0.325 C 
HETATM   10  N   UNL     1     -43.002  57.621 -51.672  1.00  0.00    -0.305 N 
HETATM   11  O   UNL     1     -45.099  57.195 -50.796  1.00  0.00    -0.247 OA
HETATM   12  H   UNL     1     -42.282  57.084 -52.131  1.00  0.00     0.171 HD
HETATM   13  H   UNL     1     -44.343  55.015 -50.462  1.00  0.00     0.170 HD
BRANCH  10  14
HETATM   14  C   UNL     1     -43.165  58.929 -52.095  1.00  0.00     0.086 A 
HETATM   15  C   UNL     1     -43.952  59.518 -53.128  1.00  0.00     0.079 A 
HETATM   16  C   UNL     1     -44.911  58.894 -54.075  1.00  0.00     0.075 C 
HETATM   17  N   UNL     1     -43.791  60.850 -53.166  1.00  0.00    -0.177 NA
HETATM   18  N   UNL     1     -42.926  61.104 -52.181  1.00  0.00    -0.280 N 
HETATM   19  H   UNL     1     -42.644  62.067 -52.035  1.00  0.00     0.189 HD
HETATM   20  C   UNL     1     -42.532  59.995 -51.486  1.00  0.00     0.052 A 
HETATM   21  C   UNL     1     -41.583  60.101 -50.354  1.00  0.00     0.072 C 
ENDBRANCH  10  14
ENDBRANCH   4   8
BRANCH   1  22
HETATM   22  N   UNL     1     -40.095  52.208 -51.666  1.00  0.00    -0.327 N 
HETATM   23  C   UNL     1     -39.999  50.907 -51.203  1.00  0.00     0.222 C 
HETATM   24  O   UNL     1     -40.288  50.507 -50.082  1.00  0.00    -0.273 OA
HETATM   25  H   UNL     1     -39.489  52.428 -52.446  1.00  0.00     0.169 HD
BRANCH  23  26
HETATM   26  C   UNL     1     -39.395  49.962 -52.227  1.00  0.00     0.103 C 
BRANCH  26  27
HETATM   27  C   UNL     1     -39.323  50.593 -53.614  1.00  0.00     0.005 C 
HETATM   28  C   UNL     1     -40.223  49.894 -54.624  1.00  0.00     0.005 C 
ENDBRANCH  26  27
ENDBRANCH  23  26
ENDBRANCH   1  22
TORSDOF 5
ENDMDL
MODEL 2
REMARK VINA RESULT:      -7.2      1.799      1.938
REMARK  5 active torsions:
REMARK  status: ('A' for Active; 'I' for Inactive)
REMARK    1  A    between atoms: C_2  and  C_3 
REMARK    2  A    between atoms: C_3  and  C_4 
REMARK       I    between atoms: C_4  and  N_5 
REMARK    3  A    between atoms: N_5  and  C_6 
REMARK    4  A    between atoms: C_9  and  N_10 
REMARK       I    between atoms: N_10  and  C_11 
REMARK       I    between atoms: C_11  and  N_12 
REMARK    5  A    between atoms: N_12  and  C_13 
ROOT
HETATM    1  C   UNL     1     -40.643  53.475 -51.184  1.00  0.00     0.043 C 
HETATM    2  C   UNL     1     -41.582  54.120 -52.020  1.00  0.00    -0.008 C 
HETATM    3  C   UNL     1     -41.735  53.771 -53.482  1.00  0.00     0.053 C 
HETATM    4  C   UNL     1     -42.333  55.209 -51.504  1.00  0.00     0.044 C 
HETATM    5  C   UNL     1     -42.066  55.701 -50.222  1.00  0.00     0.030 C 
HETATM    6  C   UNL     1     -41.062  55.130 -49.447  1.00  0.00     0.005 C 
HETATM    7  C   UNL     1     -40.360  54.026 -49.923  1.00  0.00     0.030 C 
ENDROOT
BRANCH   4   8
HETATM    8  N   UNL     1     -43.406  55.712 -52.273  1.00  0.00    -0.308 N 
HETATM    9  C   UNL     1     -43.532  56.843 -53.035  1.00  0.00     0.325 C 
HETATM   10  N   UNL     1     -42.369  57.344 -53.550  1.00  0.00    -0.305 N 
HETATM   11  O   UNL     1     -44.664  57.244 -53.290  1.00  0.00    -0.247 OA
HETATM   12  H   UNL     1     -41.612  56.678 -53.603  1.00  0.00     0.171 HD
HETATM   13  H   UNL     1     -44.293  55.231 -52.175  1.00  0.00     0.170 HD
BRANCH  10  14
HETATM   14  C   UNL     1     -42.251  58.480 -54.332  1.00  0.00     0.086 A 
HETATM   15  C   UNL     1     -42.230  58.682 -55.743  1.00  0.00     0.079 A 
HETATM   16  C   UNL     1     -42.380  57.706 -56.853  1.00  0.00     0.075 C 
HETATM   17  N   UNL     1     -42.100  59.982 -56.049  1.00  0.00    -0.177 NA
HETATM   18  N   UNL     1     -42.042  60.594 -54.863  1.00  0.00    -0.280 N 
HETATM   19  H   UNL     1     -41.926  61.602 -54.856  1.00  0.00     0.189 HD
HETATM   20  C   UNL     1     -42.152  59.749 -53.795  1.00  0.00     0.052 A 
HETATM   21  C   UNL     1     -42.117  60.265 -52.407  1.00  0.00     0.072 C 
ENDBRANCH  10  14
ENDBRANCH   4   8
BRANCH   1  22
HETATM   22  N   UNL     1     -39.917  52.301 -51.502  1.00  0.00    -0.327 N 
HETATM   23  C   UNL     1     -39.966  51.088 -50.836  1.00  0.00     0.222 C 
HETATM   24  O   UNL     1     -40.593  50.842 -49.812  1.00  0.00    -0.273 OA
HETATM   25  H   UNL     1     -39.095  52.436 -52.079  1.00  0.00     0.169 HD
BRANCH  23  26
HETATM   26  C   UNL     1     -39.066  50.037 -51.459  1.00  0.00     0.103 C 
BRANCH  26  27
HETATM   27  C   UNL     1     -39.736  49.338 -52.638  1.00  0.00     0.005 C 
HETATM   28  C   UNL     1     -39.426  50.008 -53.970  1.00  0.00     0.005 C 
ENDBRANCH  26  27
ENDBRANCH  23  26
ENDBRANCH   1  22
TORSDOF 5
ENDMDL
MODEL 3
REMARK VINA RESULT:      -7.1      1.488      2.360
REMARK  5 active torsions:
REMARK  status: ('A' for Active; 'I' for Inactive)
REMARK    1  A    between atoms: C_2  and  C_3 
REMARK    2  A    between atoms: C_3  and  C_4 
REMARK       I    between atoms: C_4  and  N_5 
REMARK    3  A    between atoms: N_5  and  C_6 
REMARK    4  A    between atoms: C_9  and  N_10 
REMARK       I    between atoms: N_10  and  C_11 
REMARK       I    between atoms: C_11  and  N_12 
REMARK    5  A    between atoms: N_12  and  C_13 
ROOT
HETATM    1  C   UNL     1     -41.166  53.638 -51.840  1.00  0.00     0.043 C 
HETATM    2  C   UNL     1     -42.358  54.386 -51.954  1.00  0.00    -0.008 C 
HETATM    3  C   UNL     1     -43.219  54.350 -53.196  1.00  0.00     0.053 C 
HETATM    4  C   UNL     1     -42.710  55.289 -50.916  1.00  0.00     0.044 C 
HETATM    5  C   UNL     1     -41.831  55.510 -49.851  1.00  0.00     0.030 C 
HETATM    6  C   UNL     1     -40.607  54.851 -49.803  1.00  0.00     0.005 C 
HETATM    7  C   UNL     1     -40.280  53.922 -50.788  1.00  0.00     0.030 C 
ENDROOT
BRANCH   4   8
HETATM    8  N   UNL     1     -43.995  55.875 -50.940  1.00  0.00    -0.308 N 
HETATM    9  C   UNL     1     -44.405  57.166 -51.144  1.00  0.00     0.325 C 
HETATM   10  N   UNL     1     -43.570  57.942 -51.899  1.00  0.00    -0.305 N 
HETATM   11  O   UNL     1     -45.522  57.487 -50.746  1.00  0.00    -0.247 OA
HETATM   12  H   UNL     1     -42.935  57.425 -52.488  1.00  0.00     0.171 HD
HETATM   13  H   UNL     1     -44.764  55.285 -50.647  1.00  0.00     0.170 HD
BRANCH  10  14
HETATM   14  C   UNL     1     -43.770  59.273 -52.221  1.00  0.00     0.086 A 
HETATM   15  C   UNL     1     -43.376  60.489 -51.589  1.00  0.00     0.079 A 
HETATM   16  C   UNL     1     -42.560  60.714 -50.369  1.00  0.00     0.075 C 
HETATM   17  N   UNL     1     -43.801  61.559 -52.280  1.00  0.00    -0.177 NA
HETATM   18  N   UNL     1     -44.448  61.038 -53.327  1.00  0.00    -0.280 N 
HETATM   19  H   UNL     1     -44.872  61.680 -53.988  1.00  0.00     0.189 HD
HETATM   20  C   UNL     1     -44.443  59.672 -53.361  1.00  0.00     0.052 A 
HETATM   21  C   UNL     1     -45.106  58.934 -54.460  1.00  0.00     0.072 C 
ENDBRANCH  10  14
ENDBRANCH   4   8
BRANCH   1  22
HETATM   22  N   UNL     1     -40.743  52.608 -52.717  1.00  0.00    -0.327 N 
HETATM   23  C   UNL     1     -40.175  52.766 -53.969  1.00  0.00     0.222 C 
HETATM   24  O   UNL     1     -40.005  53.822 -54.567  1.00  0.00    -0.273 OA
HETATM   25  H   UNL     1     -41.139  51.693 -52.542  1.00  0.00     0.169 HD
BRANCH  23  26
HETATM   26  C   UNL     1     -39.826  51.443 -54.628  1.00  0.00     0.103 C 
BRANCH  26  27
HETATM   27  C   UNL     1     -40.505  50.265 -53.937  1.00  0.00     0.005 C 
HETATM   28  C   UNL     1     -39.547  49.469 -53.060  1.00  0.00     0.005 C 
ENDBRANCH  26  27
ENDBRANCH  23  26
ENDBRANCH   1  22
TORSDOF 5
ENDMDL
MODEL 4
REMARK VINA RESULT:      -7.1      2.116      3.052
REMARK  5 active torsions:
REMARK  status: ('A' for Active; 'I' for Inactive)
REMARK    1  A    between atoms: C_2  and  C_3 
REMARK    2  A    between atoms: C_3  and  C_4 
REMARK       I    between atoms: C_4  and  N_5 
REMARK    3  A    between atoms: N_5  and  C_6 
REMARK    4  A    between atoms: C_9  and  N_10 
REMARK       I    between atoms: N_10  and  C_11 
REMARK       I    between atoms: C_11  and  N_12 
REMARK    5  A    between atoms: N_12  and  C_13 
ROOT
HETATM    1  C   UNL     1     -41.407  53.969 -53.752  1.00  0.00     0.043 C 
HETATM    2  C   UNL     1     -42.491  54.473 -53.000  1.00  0.00    -0.008 C 
HETATM    3  C   UNL     1     -42.883  53.895 -51.660  1.00  0.00     0.053 C 
HETATM    4  C   UNL     1     -43.312  55.485 -53.564  1.00  0.00     0.044 C 
HETATM    5  C   UNL     1     -43.112  55.895 -54.887  1.00  0.00     0.030 C 
HETATM    6  C   UNL     1     -42.112  55.312 -55.657  1.00  0.00     0.005 C 
HETATM    7  C   UNL     1     -41.266  54.361 -55.093  1.00  0.00     0.030 C 
ENDROOT
BRANCH   4   8
HETATM    8  N   UNL     1     -44.260  56.124 -52.734  1.00  0.00    -0.308 N 
HETATM    9  C   UNL     1     -44.162  57.208 -51.902  1.00  0.00     0.325 C 
HETATM   10  N   UNL     1     -43.201  58.123 -52.230  1.00  0.00    -0.305 N 
HETATM   11  O   UNL     1     -45.003  57.333 -51.016  1.00  0.00    -0.247 OA
HETATM   12  H   UNL     1     -42.901  58.089 -53.193  1.00  0.00     0.171 HD
HETATM   13  H   UNL     1     -45.151  55.653 -52.625  1.00  0.00     0.170 HD
BRANCH  10  14
HETATM   14  C   UNL     1     -42.912  59.281 -51.531  1.00  0.00     0.086 A 
HETATM   15  C   UNL     1     -43.652  60.478 -51.300  1.00  0.00     0.079 A 
HETATM   16  C   UNL     1     -45.029  60.849 -51.713  1.00  0.00     0.075 C 
HETATM   17  N   UNL     1     -42.957  61.344 -50.545  1.00  0.00    -0.177 NA
HETATM   18  N   UNL     1     -41.805  60.715 -50.299  1.00  0.00    -0.280 N 
HETATM   19  H   UNL     1     -41.108  61.201 -49.747  1.00  0.00     0.189 HD
HETATM   20  C   UNL     1     -41.727  59.463 -50.843  1.00  0.00     0.052 A 
HETATM   21  C   UNL     1     -40.522  58.624 -50.658  1.00  0.00     0.072 C 
ENDBRANCH  10  14
ENDBRANCH   4   8
BRANCH   1  22
HETATM   22  N   UNL     1     -40.423  53.062 -53.286  1.00  0.00    -0.327 N 
HETATM   23  C   UNL     1     -40.261  51.743 -53.674  1.00  0.00     0.222 C 
HETATM   24  O   UNL     1     -40.986  51.110 -54.433  1.00  0.00    -0.273 OA
HETATM   25  H   UNL     1     -39.985  53.304 -52.406  1.00  0.00     0.169 HD
BRANCH  23  26
HETATM   26  C   UNL     1     -39.090  51.066 -52.984  1.00  0.00     0.103 C 
BRANCH  26  27
HETATM   27  C   UNL     1     -39.506  49.774 -52.288  1.00  0.00     0.005 C 
HETATM   28  C   UNL     1     -39.819  49.978 -50.811  1.00  0.00     0.005 C 
ENDBRANCH  26  27
ENDBRANCH  23  26
ENDBRANCH   1  22
TORSDOF 5
ENDMDL
MODEL 5
REMARK VINA RESULT:      -7.0      3.797      7.402
REMARK  5 active torsions:
REMARK  status: ('A' for Active; 'I' for Inactive)
REMARK    1  A    between atoms: C_2  and  C_3 
REMARK    2  A    between atoms: C_3  and  C_4 
REMARK       I    between atoms: C_4  and  N_5 
REMARK    3  A    between atoms: N_5  and  C_6 
REMARK    4  A    between atoms: C_9  and  N_10 
REMARK       I    between atoms: N_10  and  C_11 
REMARK       I    between atoms: C_11  and  N_12 
REMARK    5  A    between atoms: N_12  and  C_13 
ROOT
HETATM    1  C   UNL     1     -42.510  57.005 -55.790  1.00  0.00     0.043 C 
HETATM    2  C   UNL     1     -43.025  56.216 -54.738  1.00  0.00    -0.008 C 
HETATM    3  C   UNL     1     -43.762  54.919 -54.987  1.00  0.00     0.053 C 
HETATM    4  C   UNL     1     -42.949  56.704 -53.406  1.00  0.00     0.044 C 
HETATM    5  C   UNL     1     -42.470  57.994 -53.158  1.00  0.00     0.030 C 
HETATM    6  C   UNL     1     -42.068  58.807 -54.212  1.00  0.00     0.005 C 
HETATM    7  C   UNL     1     -42.085  58.316 -55.515  1.00  0.00     0.030 C 
ENDROOT
BRANCH   4   8
HETATM    8  N   UNL     1     -43.278  55.827 -52.348  1.00  0.00    -0.308 N 
HETATM    9  C   UNL     1     -42.743  54.628 -51.956  1.00  0.00     0.325 C 
HETATM   10  N   UNL     1     -41.429  54.431 -52.278  1.00  0.00    -0.305 N 
HETATM   11  O   UNL     1     -43.432  53.890 -51.258  1.00  0.00    -0.247 OA
HETATM   12  H   UNL     1     -40.910  55.277 -52.461  1.00  0.00     0.171 HD
HETATM   13  H   UNL     1     -44.128  56.038 -51.839  1.00  0.00     0.170 HD
BRANCH  10  14
HETATM   14  C   UNL     1     -40.688  53.297 -51.999  1.00  0.00     0.086 A 
HETATM   15  C   UNL     1     -40.228  52.721 -50.777  1.00  0.00     0.079 A 
HETATM   16  C   UNL     1     -40.450  53.150 -49.373  1.00  0.00     0.075 C 
HETATM   17  N   UNL     1     -39.534  51.594 -50.999  1.00  0.00    -0.177 NA
HETATM   18  N   UNL     1     -39.553  51.452 -52.327  1.00  0.00    -0.280 N 
HETATM   19  H   UNL     1     -39.066  50.657 -52.725  1.00  0.00     0.189 HD
HETATM   20  C   UNL     1     -40.250  52.429 -52.981  1.00  0.00     0.052 A 
HETATM   21  C   UNL     1     -40.378  52.418 -54.456  1.00  0.00     0.072 C 
ENDBRANCH  10  14
ENDBRANCH   4   8
BRANCH   1  22
HETATM   22  N   UNL     1     -42.390  56.609 -57.144  1.00  0.00    -0.327 N 
HETATM   23  C   UNL     1     -43.290  56.862 -58.166  1.00  0.00     0.222 C 
HETATM   24  O   UNL     1     -44.380  57.410 -58.060  1.00  0.00    -0.273 OA
HETATM   25  H   UNL     1     -41.745  55.848 -57.324  1.00  0.00     0.169 HD
BRANCH  23  26
HETATM   26  C   UNL     1     -42.835  56.304 -59.503  1.00  0.00     0.103 C 
BRANCH  26  27
HETATM   27  C   UNL     1     -43.989  55.685 -60.286  1.00  0.00     0.005 C 
HETATM   28  C   UNL     1     -44.471  54.373 -59.681  1.00  0.00     0.005 C 
ENDBRANCH  26  27
ENDBRANCH  23  26
ENDBRANCH   1  22
TORSDOF 5
ENDMDL
MODEL 6
REMARK VINA RESULT:      -7.0      4.940      7.025
REMARK  5 active torsions:
REMARK  status: ('A' for Active; 'I' for Inactive)
REMARK    1  A    between atoms: C_2  and  C_3 
REMARK    2  A    between atoms: C_3  and  C_4 
REMARK       I    between atoms: C_4  and  N_5 
REMARK    3  A    between atoms: N_5  and  C_6 
REMARK    4  A    between atoms: C_9  and  N_10 
REMARK       I    between atoms: N_10  and  C_11 
REMARK       I    between atoms: C_11  and  N_12 
REMARK    5  A    between atoms: N_12  and  C_13 
ROOT
HETATM    1  C   UNL     1     -41.930  55.519 -53.563  1.00  0.00     0.043 C 
HETATM    2  C   UNL     1     -41.964  56.490 -54.588  1.00  0.00    -0.008 C 
HETATM    3  C   UNL     1     -41.701  57.955 -54.323  1.00  0.00     0.053 C 
HETATM    4  C   UNL     1     -42.366  56.103 -55.894  1.00  0.00     0.044 C 
HETATM    5  C   UNL     1     -42.824  54.803 -56.130  1.00  0.00     0.030 C 
HETATM    6  C   UNL     1     -42.893  53.883 -55.089  1.00  0.00     0.005 C 
HETATM    7  C   UNL     1     -42.447  54.238 -53.818  1.00  0.00     0.030 C 
ENDROOT
BRANCH   4   8
HETATM    8  N   UNL     1     -42.202  57.026 -56.951  1.00  0.00    -0.308 N 
HETATM    9  C   UNL     1     -42.918  57.235 -58.100  1.00  0.00     0.325 C 
HETATM   10  N   UNL     1     -44.236  56.876 -58.051  1.00  0.00    -0.305 N 
HETATM   11  O   UNL     1     -42.366  57.826 -59.024  1.00  0.00    -0.247 OA
HETATM   12  H   UNL     1     -44.619  56.813 -57.120  1.00  0.00     0.171 HD
HETATM   13  H   UNL     1     -41.346  57.568 -56.944  1.00  0.00     0.170 HD
BRANCH  10  14
HETATM   14  C   UNL     1     -45.143  56.982 -59.090  1.00  0.00     0.086 A 
HETATM   15  C   UNL     1     -46.040  58.018 -59.486  1.00  0.00     0.079 A 
HETATM   16  C   UNL     1     -46.253  59.371 -58.914  1.00  0.00     0.075 C 
HETATM   17  N   UNL     1     -46.736  57.669 -60.580  1.00  0.00    -0.177 NA
HETATM   18  N   UNL     1     -46.293  56.444 -60.875  1.00  0.00    -0.280 N 
HETATM   19  H   UNL     1     -46.701  55.973 -61.675  1.00  0.00     0.189 HD
HETATM   20  C   UNL     1     -45.319  55.986 -60.033  1.00  0.00     0.052 A 
HETATM   21  C   UNL     1     -44.711  54.650 -60.224  1.00  0.00     0.072 C 
ENDBRANCH  10  14
ENDBRANCH   4   8
BRANCH   1  22
HETATM   22  N   UNL     1     -41.430  55.713 -52.251  1.00  0.00    -0.327 N 
HETATM   23  C   UNL     1     -42.144  56.148 -51.147  1.00  0.00     0.222 C 
HETATM   24  O   UNL     1     -43.314  56.512 -51.131  1.00  0.00    -0.273 OA
HETATM   25  H   UNL     1     -40.425  55.812 -52.175  1.00  0.00     0.169 HD
BRANCH  23  26
HETATM   26  C   UNL     1     -41.295  56.226 -49.891  1.00  0.00     0.103 C 
BRANCH  26  27
HETATM   27  C   UNL     1     -41.124  54.861 -49.232  1.00  0.00     0.005 C 
HETATM   28  C   UNL     1     -39.712  54.310 -49.380  1.00  0.00     0.005 C 
ENDBRANCH  26  27
ENDBRANCH  23  26
ENDBRANCH   1  22
TORSDOF 5
ENDMDL
MODEL 7
REMARK VINA RESULT:      -6.9      4.497      6.953
REMARK  5 active torsions:
REMARK  status: ('A' for Active; 'I' for Inactive)
REMARK    1  A    between atoms: C_2  and  C_3 
REMARK    2  A    between atoms: C_3  and  C_4 
REMARK       I    between atoms: C_4  and  N_5 
REMARK    3  A    between atoms: N_5  and  C_6 
REMARK    4  A    between atoms: C_9  and  N_10 
REMARK       I    between atoms: N_10  and  C_11 
REMARK       I    between atoms: C_11  and  N_12 
REMARK    5  A    between atoms: N_12  and  C_13 
ROOT
HETATM    1  C   UNL     1     -42.176  57.007 -52.239  1.00  0.00     0.043 C 
HETATM    2  C   UNL     1     -43.221  57.429 -53.090  1.00  0.00    -0.008 C 
HETATM    3  C   UNL     1     -43.812  58.819 -53.016  1.00  0.00     0.053 C 
HETATM    4  C   UNL     1     -43.818  56.489 -53.971  1.00  0.00     0.044 C 
HETATM    5  C   UNL     1     -43.446  55.142 -53.916  1.00  0.00     0.030 C 
HETATM    6  C   UNL     1     -42.493  54.714 -52.997  1.00  0.00     0.005 C 
HETATM    7  C   UNL     1     -41.863  55.640 -52.169  1.00  0.00     0.030 C 
ENDROOT
BRANCH   4   8
HETATM    8  N   UNL     1     -44.714  56.963 -54.954  1.00  0.00    -0.308 N 
HETATM    9  C   UNL     1     -44.546  57.241 -56.285  1.00  0.00     0.325 C 
HETATM   10  N   UNL     1     -43.553  56.545 -56.916  1.00  0.00    -0.305 N 
HETATM   11  O   UNL     1     -45.358  57.988 -56.825  1.00  0.00    -0.247 OA
HETATM   12  H   UNL     1     -43.280  55.692 -56.453  1.00  0.00     0.171 HD
HETATM   13  H   UNL     1     -45.622  57.268 -54.624  1.00  0.00     0.170 HD
BRANCH  10  14
HETATM   14  C   UNL     1     -43.195  56.671 -58.247  1.00  0.00     0.086 A 
HETATM   15  C   UNL     1     -43.474  55.881 -59.401  1.00  0.00     0.079 A 
HETATM   16  C   UNL     1     -44.305  54.659 -59.546  1.00  0.00     0.075 C 
HETATM   17  N   UNL     1     -42.908  56.404 -60.500  1.00  0.00    -0.177 NA
HETATM   18  N   UNL     1     -42.286  57.501 -60.059  1.00  0.00    -0.280 N 
HETATM   19  H   UNL     1     -41.769  58.055 -60.733  1.00  0.00     0.189 HD
HETATM   20  C   UNL     1     -42.441  57.729 -58.720  1.00  0.00     0.052 A 
HETATM   21  C   UNL     1     -41.825  58.908 -58.070  1.00  0.00     0.072 C 
ENDBRANCH  10  14
ENDBRANCH   4   8
BRANCH   1  22
HETATM   22  N   UNL     1     -41.394  57.844 -51.405  1.00  0.00    -0.327 N 
HETATM   23  C   UNL     1     -40.503  58.822 -51.811  1.00  0.00     0.222 C 
HETATM   24  O   UNL     1     -40.182  59.085 -52.964  1.00  0.00    -0.273 OA
HETATM   25  H   UNL     1     -41.264  57.517 -50.455  1.00  0.00     0.169 HD
BRANCH  23  26
HETATM   26  C   UNL     1     -39.848  59.542 -50.646  1.00  0.00     0.103 C 
BRANCH  26  27
HETATM   27  C   UNL     1     -38.331  59.381 -50.657  1.00  0.00     0.005 C 
HETATM   28  C   UNL     1     -37.669  59.984 -49.424  1.00  0.00     0.005 C 
ENDBRANCH  26  27
ENDBRANCH  23  26
ENDBRANCH   1  22
TORSDOF 5
ENDMDL
MODEL 8
REMARK VINA RESULT:      -6.8      4.828      6.847
REMARK  5 active torsions:
REMARK  status: ('A' for Active; 'I' for Inactive)
REMARK    1  A    between atoms: C_2  and  C_3 
REMARK    2  A    between atoms: C_3  and  C_4 
REMARK       I    between atoms: C_4  and  N_5 
REMARK    3  A    between atoms: N_5  and  C_6 
REMARK    4  A    between atoms: C_9  and  N_10 
REMARK       I    between atoms: N_10  and  C_11 
REMARK       I    between atoms: C_11  and  N_12 
REMARK    5  A    between atoms: N_12  and  C_13 
ROOT
HETATM    1  C   UNL     1     -41.898  55.397 -53.479  1.00  0.00     0.043 C 
HETATM    2  C   UNL     1     -41.978  56.361 -54.508  1.00  0.00    -0.008 C 
HETATM    3  C   UNL     1     -41.765  57.836 -54.252  1.00  0.00     0.053 C 
HETATM    4  C   UNL     1     -42.380  55.953 -55.808  1.00  0.00     0.044 C 
HETATM    5  C   UNL     1     -42.793  54.636 -56.033  1.00  0.00     0.030 C 
HETATM    6  C   UNL     1     -42.817  53.720 -54.987  1.00  0.00     0.005 C 
HETATM    7  C   UNL     1     -42.371  54.097 -53.723  1.00  0.00     0.030 C 
ENDROOT
BRANCH   4   8
HETATM    8  N   UNL     1     -42.260  56.877 -56.870  1.00  0.00    -0.308 N 
HETATM    9  C   UNL     1     -43.023  57.084 -57.989  1.00  0.00     0.325 C 
HETATM   10  N   UNL     1     -44.337  56.721 -57.888  1.00  0.00    -0.305 N 
HETATM   11  O   UNL     1     -42.510  57.676 -58.935  1.00  0.00    -0.247 OA
HETATM   12  H   UNL     1     -44.682  56.657 -56.942  1.00  0.00     0.171 HD
HETATM   13  H   UNL     1     -41.407  57.421 -56.898  1.00  0.00     0.170 HD
BRANCH  10  14
HETATM   14  C   UNL     1     -45.286  56.824 -58.890  1.00  0.00     0.086 A 
HETATM   15  C   UNL     1     -45.489  56.105 -60.104  1.00  0.00     0.079 A 
HETATM   16  C   UNL     1     -44.746  54.950 -60.670  1.00  0.00     0.075 C 
HETATM   17  N   UNL     1     -46.562  56.563 -60.769  1.00  0.00    -0.177 NA
HETATM   18  N   UNL     1     -47.032  57.546 -59.997  1.00  0.00    -0.280 N 
HETATM   19  H   UNL     1     -47.850  58.052 -60.320  1.00  0.00     0.189 HD
HETATM   20  C   UNL     1     -46.324  57.735 -58.843  1.00  0.00     0.052 A 
HETATM   21  C   UNL     1     -46.717  58.779 -57.870  1.00  0.00     0.072 C 
ENDBRANCH  10  14
ENDBRANCH   4   8
BRANCH   1  22
HETATM   22  N   UNL     1     -41.391  55.614 -52.174  1.00  0.00    -0.327 N 
HETATM   23  C   UNL     1     -42.128  55.876 -51.031  1.00  0.00     0.222 C 
HETATM   24  O   UNL     1     -43.341  56.037 -50.964  1.00  0.00    -0.273 OA
HETATM   25  H   UNL     1     -40.415  55.877 -52.120  1.00  0.00     0.169 HD
BRANCH  23  26
HETATM   26  C   UNL     1     -41.259  56.040 -49.796  1.00  0.00     0.103 C 
BRANCH  26  27
HETATM   27  C   UNL     1     -40.240  54.913 -49.661  1.00  0.00     0.005 C 
HETATM   28  C   UNL     1     -40.447  54.084 -48.400  1.00  0.00     0.005 C 
ENDBRANCH  26  27
ENDBRANCH  23  26
ENDBRANCH   1  22
TORSDOF 5
ENDMDL
MODEL 9
REMARK VINA RESULT:      -6.8      3.190      4.256
REMARK  5 active torsions:
REMARK  status: ('A' for Active; 'I' for Inactive)
REMARK    1  A    between atoms: C_2  and  C_3 
REMARK    2  A    between atoms: C_3  and  C_4 
REMARK       I    between atoms: C_4  and  N_5 
REMARK    3  A    between atoms: N_5  and  C_6 
REMARK    4  A    between atoms: C_9  and  N_10 
REMARK       I    between atoms: N_10  and  C_11 
REMARK       I    between atoms: C_11  and  N_12 
REMARK    5  A    between atoms: N_12  and  C_13 
ROOT
HETATM    1  C   UNL     1     -42.020  54.639 -52.277  1.00  0.00     0.043 C 
HETATM    2  C   UNL     1     -41.803  55.898 -52.880  1.00  0.00    -0.008 C 
HETATM    3  C   UNL     1     -40.609  56.175 -53.764  1.00  0.00     0.053 C 
HETATM    4  C   UNL     1     -42.671  56.976 -52.561  1.00  0.00     0.044 C 
HETATM    5  C   UNL     1     -43.657  56.817 -51.582  1.00  0.00     0.030 C 
HETATM    6  C   UNL     1     -43.791  55.605 -50.913  1.00  0.00     0.005 C 
HETATM    7  C   UNL     1     -42.982  54.526 -51.260  1.00  0.00     0.030 C 
ENDROOT
BRANCH   4   8
HETATM    8  N   UNL     1     -42.573  58.165 -53.317  1.00  0.00    -0.308 N 
HETATM    9  C   UNL     1     -42.862  58.441 -54.627  1.00  0.00     0.325 C 
HETATM   10  N   UNL     1     -43.815  57.649 -55.204  1.00  0.00    -0.305 N 
HETATM   11  O   UNL     1     -42.343  59.430 -55.137  1.00  0.00    -0.247 OA
HETATM   12  H   UNL     1     -44.428  57.186 -54.549  1.00  0.00     0.171 HD
HETATM   13  H   UNL     1     -42.103  58.944 -52.870  1.00  0.00     0.170 HD
BRANCH  10  14
HETATM   14  C   UNL     1     -44.256  57.733 -56.513  1.00  0.00     0.086 A 
HETATM   15  C   UNL     1     -45.130  58.642 -57.180  1.00  0.00     0.079 A 
HETATM   16  C   UNL     1     -45.827  59.850 -56.670  1.00  0.00     0.075 C 
HETATM   17  N   UNL     1     -45.263  58.327 -58.478  1.00  0.00    -0.177 NA
HETATM   18  N   UNL     1     -44.492  57.247 -58.635  1.00  0.00    -0.280 N 
HETATM   19  H   UNL     1     -44.453  56.823 -59.555  1.00  0.00     0.189 HD
HETATM   20  C   UNL     1     -43.843  56.857 -57.498  1.00  0.00     0.052 A 
HETATM   21  C   UNL     1     -42.940  55.684 -57.500  1.00  0.00     0.072 C 
ENDBRANCH  10  14
ENDBRANCH   4   8
BRANCH   1  22
HETATM   22  N   UNL     1     -41.332  53.440 -52.586  1.00  0.00    -0.327 N 
HETATM   23  C   UNL     1     -40.217  52.933 -51.941  1.00  0.00     0.222 C 
HETATM   24  O   UNL     1     -39.588  53.471 -51.037  1.00  0.00    -0.273 OA
HETATM   25  H   UNL     1     -41.490  53.071 -53.516  1.00  0.00     0.169 HD
BRANCH  23  26
HETATM   26  C   UNL     1     -39.748  51.613 -52.526  1.00  0.00     0.103 C 
BRANCH  26  27
HETATM   27  C   UNL     1     -40.129  51.472 -53.996  1.00  0.00     0.005 C 
HETATM   28  C   UNL     1     -39.950  50.051 -54.515  1.00  0.00     0.005 C 
ENDBRANCH  26  27
ENDBRANCH  23  26
ENDBRANCH   1  22
TORSDOF 5
ENDMDL
MODEL 10
REMARK VINA RESULT:      -6.8      3.328      4.414
REMARK  5 active torsions:
REMARK  status: ('A' for Active; 'I' for Inactive)
REMARK    1  A    between atoms: C_2  and  C_3 
REMARK    2  A    between atoms: C_3  and  C_4 
REMARK       I    between atoms: C_4  and  N_5 
REMARK    3  A    between atoms: N_5  and  C_6 
REMARK    4  A    between atoms: C_9  and  N_10 
REMARK       I    between atoms: N_10  and  C_11 
REMARK       I    between atoms: C_11  and  N_12 
REMARK    5  A    between atoms: N_12  and  C_13 
ROOT
HETATM    1  C   UNL     1     -41.998  54.653 -52.452  1.00  0.00     0.043 C 
HETATM    2  C   UNL     1     -41.730  55.879 -53.101  1.00  0.00    -0.008 C 
HETATM    3  C   UNL     1     -40.515  56.081 -53.976  1.00  0.00     0.053 C 
HETATM    4  C   UNL     1     -42.566  56.997 -52.839  1.00  0.00     0.044 C 
HETATM    5  C   UNL     1     -43.571  56.910 -51.870  1.00  0.00     0.030 C 
HETATM    6  C   UNL     1     -43.756  55.731 -51.155  1.00  0.00     0.005 C 
HETATM    7  C   UNL     1     -42.978  54.613 -51.447  1.00  0.00     0.030 C 
ENDROOT
BRANCH   4   8
HETATM    8  N   UNL     1     -42.418  58.151 -53.640  1.00  0.00    -0.308 N 
HETATM    9  C   UNL     1     -42.720  58.396 -54.953  1.00  0.00     0.325 C 
HETATM   10  N   UNL     1     -43.730  57.641 -55.480  1.00  0.00    -0.305 N 
HETATM   11  O   UNL     1     -42.157  59.335 -55.510  1.00  0.00    -0.247 OA
HETATM   12  H   UNL     1     -44.354  57.238 -54.796  1.00  0.00     0.171 HD
HETATM   13  H   UNL     1     -41.893  58.916 -53.232  1.00  0.00     0.170 HD
BRANCH  10  14
HETATM   14  C   UNL     1     -44.195  57.704 -56.782  1.00  0.00     0.086 A 
HETATM   15  C   UNL     1     -43.940  56.909 -57.938  1.00  0.00     0.079 A 
HETATM   16  C   UNL     1     -43.100  55.695 -58.099  1.00  0.00     0.075 C 
HETATM   17  N   UNL     1     -44.632  57.353 -58.999  1.00  0.00    -0.177 NA
HETATM   18  N   UNL     1     -45.314  58.402 -58.531  1.00  0.00    -0.280 N 
HETATM   19  H   UNL     1     -45.905  58.910 -59.180  1.00  0.00     0.189 HD
HETATM   20  C   UNL     1     -45.113  58.649 -57.202  1.00  0.00     0.052 A 
HETATM   21  C   UNL     1     -45.801  59.769 -56.522  1.00  0.00     0.072 C 
ENDBRANCH  10  14
ENDBRANCH   4   8
BRANCH   1  22
HETATM   22  N   UNL     1     -41.346  53.421 -52.702  1.00  0.00    -0.327 N 
HETATM   23  C   UNL     1     -40.258  52.904 -52.020  1.00  0.00     0.222 C 
HETATM   24  O   UNL     1     -39.625  53.456 -51.128  1.00  0.00    -0.273 OA
HETATM   25  H   UNL     1     -41.504  53.019 -53.618  1.00  0.00     0.169 HD
BRANCH  23  26
HETATM   26  C   UNL     1     -39.826  51.546 -52.544  1.00  0.00     0.103 C 
BRANCH  26  27
HETATM   27  C   UNL     1     -40.091  51.400 -54.039  1.00  0.00     0.005 C 
HETATM   28  C   UNL     1     -39.852  49.982 -54.542  1.00  0.00     0.005 C 
ENDBRANCH  26  27
ENDBRANCH  23  26
ENDBRANCH   1  22
TORSDOF 5
ENDMDL
