MODEL 1
REMARK VINA RESULT:      -8.5      0.000      0.000
REMARK  9 active torsions:
REMARK  status: ('A' for Active; 'I' for Inactive)
REMARK    1  A    between atoms: O_2  and  C_3 
REMARK    2  A    between atoms: C_4  and  O_5 
REMARK    3  A    between atoms: C_6  and  C_7 
REMARK    4  A    between atoms: N_8  and  N_9 
REMARK       I    between atoms: N_9  and  C_10 
REMARK    5  A    between atoms: C_10  and  C_11 
REMARK    6  A    between atoms: C_11  and  N_12 
REMARK       I    between atoms: N_12  and  C_13 
REMARK    7  A    between atoms: C_13  and  C_14 
REMARK    8  A    between atoms: C_15  and  C_16 
REMARK    9  A    between atoms: C_15  and  C_22 
ROOT
HETATM    1  N   UNL     1     -43.806  56.382 -55.490  1.00  0.00    -0.352 N 
HETATM    2  C   UNL     1     -44.032  56.315 -54.137  1.00  0.00     0.223 C 
HETATM    3  O   UNL     1     -44.668  57.164 -53.524  1.00  0.00    -0.273 OA
HETATM    4  H   UNL     1     -43.405  55.591 -55.976  1.00  0.00     0.162 HD
ENDROOT
BRANCH   1   5
HETATM    5  C   UNL     1     -44.245  57.520 -56.273  1.00  0.00     0.227 C 
BRANCH   5   6
HETATM    6  C   UNL     1     -43.096  58.447 -56.673  1.00  0.00     0.255 C 
HETATM    7  N   UNL     1     -42.764  58.325 -58.015  1.00  0.00    -0.246 N 
HETATM    8  H   UNL     1     -43.160  57.554 -58.560  1.00  0.00     0.192 HD
HETATM    9  O   UNL     1     -42.567  59.203 -55.860  1.00  0.00    -0.270 OA
BRANCH   7  10
HETATM   10  N   UNL     1     -41.866  59.175 -58.585  1.00  0.00    -0.184 NA
HETATM   11  C   UNL     1     -42.394  60.130 -59.287  1.00  0.00     0.153 C 
BRANCH  11  12
HETATM   12  C   UNL     1     -41.560  61.161 -59.939  1.00  0.00     0.019 A 
HETATM   13  C   UNL     1     -40.702  61.956 -59.178  1.00  0.00     0.110 A 
HETATM   14  C   UNL     1     -39.887  62.924 -59.787  1.00  0.00     0.102 A 
HETATM   15  C   UNL     1     -39.943  63.091 -61.172  1.00  0.00     0.040 A 
HETATM   16  C   UNL     1     -40.804  62.297 -61.937  1.00  0.00     0.004 A 
HETATM   17  C   UNL     1     -41.609  61.335 -61.325  1.00  0.00     0.016 A 
BRANCH  13  18
HETATM   18  O   UNL     1     -40.631  61.800 -57.816  1.00  0.00    -0.357 OA
HETATM   19  H   UNL     1     -40.358  60.870 -57.679  1.00  0.00     0.218 HD
ENDBRANCH  13  18
BRANCH  14  20
HETATM   20  O   UNL     1     -39.085  63.627 -58.922  1.00  0.00    -0.353 OA
HETATM   21  C   UNL     1     -38.303  64.675 -59.485  1.00  0.00     0.210 C 
ENDBRANCH  14  20
ENDBRANCH  11  12
ENDBRANCH   7  10
ENDBRANCH   5   6
ENDBRANCH   1   5
BRANCH   2  22
HETATM   22  C   UNL     1     -43.464  55.109 -53.491  1.00  0.00     0.097 A 
HETATM   23  C   UNL     1     -42.149  55.144 -52.699  1.00  0.00     0.027 A 
HETATM   24  C   UNL     1     -43.494  54.937 -52.002  1.00  0.00     0.035 A 
BRANCH  23  25
HETATM   25  C   UNL     1     -41.223  53.937 -52.904  1.00  0.00    -0.044 A 
HETATM   26  C   UNL     1     -40.648  53.276 -51.803  1.00  0.00     0.008 A 
HETATM   27  C   UNL     1     -39.817  52.164 -51.968  1.00  0.00     0.001 A 
HETATM   28  C   UNL     1     -39.539  51.689 -53.245  1.00  0.00     0.000 A 
HETATM   29  C   UNL     1     -40.097  52.319 -54.354  1.00  0.00     0.001 A 
HETATM   30  C   UNL     1     -40.933  53.427 -54.182  1.00  0.00     0.008 A 
ENDBRANCH  23  25
BRANCH  23  31
HETATM   31  C   UNL     1     -41.419  56.452 -52.373  1.00  0.00    -0.044 A 
HETATM   32  C   UNL     1     -40.884  57.249 -53.404  1.00  0.00     0.008 A 
HETATM   33  C   UNL     1     -40.244  58.462 -53.138  1.00  0.00     0.001 A 
HETATM   34  C   UNL     1     -40.126  58.911 -51.827  1.00  0.00     0.000 A 
HETATM   35  C   UNL     1     -40.652  58.150 -50.788  1.00  0.00     0.001 A 
HETATM   36  C   UNL     1     -41.297  56.941 -51.061  1.00  0.00     0.008 A 
ENDBRANCH  23  31
ENDBRANCH   2  22
TORSDOF 9
ENDMDL
MODEL 2
REMARK VINA RESULT:      -8.4      4.070      6.657
REMARK  9 active torsions:
REMARK  status: ('A' for Active; 'I' for Inactive)
REMARK    1  A    between atoms: O_2  and  C_3 
REMARK    2  A    between atoms: C_4  and  O_5 
REMARK    3  A    between atoms: C_6  and  C_7 
REMARK    4  A    between atoms: N_8  and  N_9 
REMARK       I    between atoms: N_9  and  C_10 
REMARK    5  A    between atoms: C_10  and  C_11 
REMARK    6  A    between atoms: C_11  and  N_12 
REMARK       I    between atoms: N_12  and  C_13 
REMARK    7  A    between atoms: C_13  and  C_14 
REMARK    8  A    between atoms: C_15  and  C_16 
REMARK    9  A    between atoms: C_15  and  C_22 
ROOT
HETATM    1  N   UNL     1     -44.284  56.707 -55.825  1.00  0.00    -0.352 N 
HETATM    2  C   UNL     1     -43.015  56.188 -55.894  1.00  0.00     0.223 C 
HETATM    3  O   UNL     1     -42.093  56.757 -56.467  1.00  0.00    -0.273 OA
HETATM    4  H   UNL     1     -44.974  56.278 -55.222  1.00  0.00     0.162 HD
ENDROOT
BRANCH   1   5
HETATM    5  C   UNL     1     -44.635  57.938 -56.505  1.00  0.00     0.227 C 
BRANCH   5   6
HETATM    6  C   UNL     1     -44.803  59.120 -55.549  1.00  0.00     0.255 C 
HETATM    7  N   UNL     1     -45.403  58.749 -54.354  1.00  0.00    -0.246 N 
HETATM    8  H   UNL     1     -45.822  57.818 -54.272  1.00  0.00     0.192 HD
HETATM    9  O   UNL     1     -44.424  60.250 -55.851  1.00  0.00    -0.270 OA
BRANCH   7  10
HETATM   10  N   UNL     1     -45.500  59.635 -53.325  1.00  0.00    -0.184 NA
HETATM   11  C   UNL     1     -44.614  59.480 -52.390  1.00  0.00     0.153 C 
BRANCH  11  12
HETATM   12  C   UNL     1     -44.556  60.384 -51.223  1.00  0.00     0.019 A 
HETATM   13  C   UNL     1     -45.397  60.174 -50.128  1.00  0.00     0.110 A 
HETATM   14  C   UNL     1     -45.337  61.011 -49.003  1.00  0.00     0.102 A 
HETATM   15  C   UNL     1     -44.425  62.068 -48.985  1.00  0.00     0.040 A 
HETATM   16  C   UNL     1     -43.583  62.283 -50.081  1.00  0.00     0.004 A 
HETATM   17  C   UNL     1     -43.646  61.444 -51.196  1.00  0.00     0.016 A 
BRANCH  13  18
HETATM   18  O   UNL     1     -46.295  59.136 -50.128  1.00  0.00    -0.357 OA
HETATM   19  H   UNL     1     -46.510  58.983 -49.187  1.00  0.00     0.218 HD
ENDBRANCH  13  18
BRANCH  14  20
HETATM   20  O   UNL     1     -46.213  60.686 -47.997  1.00  0.00    -0.353 OA
HETATM   21  C   UNL     1     -45.676  60.615 -46.681  1.00  0.00     0.210 C 
ENDBRANCH  14  20
ENDBRANCH  11  12
ENDBRANCH   7  10
ENDBRANCH   5   6
ENDBRANCH   1   5
BRANCH   2  22
HETATM   22  C   UNL     1     -42.852  54.896 -55.189  1.00  0.00     0.097 A 
HETATM   23  C   UNL     1     -42.251  54.800 -53.779  1.00  0.00     0.027 A 
HETATM   24  C   UNL     1     -43.733  54.523 -54.035  1.00  0.00     0.035 A 
BRANCH  23  25
HETATM   25  C   UNL     1     -41.301  53.617 -53.546  1.00  0.00    -0.044 A 
HETATM   26  C   UNL     1     -40.683  53.426 -52.296  1.00  0.00     0.008 A 
HETATM   27  C   UNL     1     -39.830  52.345 -52.058  1.00  0.00     0.001 A 
HETATM   28  C   UNL     1     -39.573  51.427 -53.072  1.00  0.00     0.000 A 
HETATM   29  C   UNL     1     -40.173  51.587 -54.317  1.00  0.00     0.001 A 
HETATM   30  C   UNL     1     -41.032  52.667 -54.547  1.00  0.00     0.008 A 
ENDBRANCH  23  25
BRANCH  23  31
HETATM   31  C   UNL     1     -41.936  56.039 -52.932  1.00  0.00    -0.044 A 
HETATM   32  C   UNL     1     -42.599  56.257 -51.709  1.00  0.00     0.008 A 
HETATM   33  C   UNL     1     -42.307  57.359 -50.901  1.00  0.00     0.001 A 
HETATM   34  C   UNL     1     -41.338  58.273 -51.299  1.00  0.00     0.000 A 
HETATM   35  C   UNL     1     -40.659  58.080 -52.498  1.00  0.00     0.001 A 
HETATM   36  C   UNL     1     -40.950  56.972 -53.299  1.00  0.00     0.008 A 
ENDBRANCH  23  31
ENDBRANCH   2  22
TORSDOF 9
ENDMDL
MODEL 3
REMARK VINA RESULT:      -8.1      3.849      5.280
REMARK  9 active torsions:
REMARK  status: ('A' for Active; 'I' for Inactive)
REMARK    1  A    between atoms: O_2  and  C_3 
REMARK    2  A    between atoms: C_4  and  O_5 
REMARK    3  A    between atoms: C_6  and  C_7 
REMARK    4  A    between atoms: N_8  and  N_9 
REMARK       I    between atoms: N_9  and  C_10 
REMARK    5  A    between atoms: C_10  and  C_11 
REMARK    6  A    between atoms: C_11  and  N_12 
REMARK       I    between atoms: N_12  and  C_13 
REMARK    7  A    between atoms: C_13  and  C_14 
REMARK    8  A    between atoms: C_15  and  C_16 
REMARK    9  A    between atoms: C_15  and  C_22 
ROOT
HETATM    1  N   UNL     1     -42.826  55.802 -51.009  1.00  0.00    -0.352 N 
HETATM    2  C   UNL     1     -42.993  54.441 -50.957  1.00  0.00     0.223 C 
HETATM    3  O   UNL     1     -44.094  53.904 -50.914  1.00  0.00    -0.273 OA
HETATM    4  H   UNL     1     -41.911  56.194 -51.190  1.00  0.00     0.162 HD
ENDROOT
BRANCH   1   5
HETATM    5  C   UNL     1     -43.958  56.705 -50.934  1.00  0.00     0.227 C 
BRANCH   5   6
HETATM    6  C   UNL     1     -44.056  57.641 -52.139  1.00  0.00     0.255 C 
HETATM    7  N   UNL     1     -44.763  57.074 -53.190  1.00  0.00    -0.246 N 
HETATM    8  H   UNL     1     -44.997  56.077 -53.155  1.00  0.00     0.192 HD
HETATM    9  O   UNL     1     -43.555  58.763 -52.124  1.00  0.00    -0.270 OA
BRANCH   7  10
HETATM   10  N   UNL     1     -45.079  57.812 -54.289  1.00  0.00    -0.184 NA
HETATM   11  C   UNL     1     -44.363  57.554 -55.340  1.00  0.00     0.153 C 
BRANCH  11  12
HETATM   12  C   UNL     1     -44.605  58.239 -56.626  1.00  0.00     0.019 A 
HETATM   13  C   UNL     1     -45.892  58.295 -57.163  1.00  0.00     0.110 A 
HETATM   14  C   UNL     1     -46.140  58.962 -58.373  1.00  0.00     0.102 A 
HETATM   15  C   UNL     1     -45.081  59.572 -59.046  1.00  0.00     0.040 A 
HETATM   16  C   UNL     1     -43.789  59.516 -58.513  1.00  0.00     0.004 A 
HETATM   17  C   UNL     1     -43.550  58.854 -57.308  1.00  0.00     0.016 A 
BRANCH  13  18
HETATM   18  O   UNL     1     -46.945  57.705 -56.509  1.00  0.00    -0.357 OA
HETATM   19  H   UNL     1     -46.984  56.792 -56.856  1.00  0.00     0.218 HD
ENDBRANCH  13  18
BRANCH  14  20
HETATM   20  O   UNL     1     -47.452  58.948 -58.779  1.00  0.00    -0.353 OA
HETATM   21  C   UNL     1     -48.186  60.155 -58.608  1.00  0.00     0.210 C 
ENDBRANCH  14  20
ENDBRANCH  11  12
ENDBRANCH   7  10
ENDBRANCH   5   6
ENDBRANCH   1   5
BRANCH   2  22
HETATM   22  C   UNL     1     -41.724  53.677 -50.988  1.00  0.00     0.097 A 
HETATM   23  C   UNL     1     -40.978  53.378 -52.297  1.00  0.00     0.027 A 
HETATM   24  C   UNL     1     -40.415  54.353 -51.263  1.00  0.00     0.035 A 
BRANCH  23  25
HETATM   25  C   UNL     1     -40.370  51.972 -52.404  1.00  0.00    -0.044 A 
HETATM   26  C   UNL     1     -40.121  51.390 -53.661  1.00  0.00     0.008 A 
HETATM   27  C   UNL     1     -39.551  50.119 -53.779  1.00  0.00     0.001 A 
HETATM   28  C   UNL     1     -39.218  49.398 -52.636  1.00  0.00     0.000 A 
HETATM   29  C   UNL     1     -39.449  49.950 -51.380  1.00  0.00     0.001 A 
HETATM   30  C   UNL     1     -40.013  51.225 -51.267  1.00  0.00     0.008 A 
ENDBRANCH  23  25
BRANCH  23  31
HETATM   31  C   UNL     1     -41.393  53.990 -53.640  1.00  0.00    -0.044 A 
HETATM   32  C   UNL     1     -42.542  53.530 -54.312  1.00  0.00     0.008 A 
HETATM   33  C   UNL     1     -42.962  54.093 -55.519  1.00  0.00     0.001 A 
HETATM   34  C   UNL     1     -42.241  55.139 -56.085  1.00  0.00     0.000 A 
HETATM   35  C   UNL     1     -41.106  55.621 -55.440  1.00  0.00     0.001 A 
HETATM   36  C   UNL     1     -40.694  55.058 -54.229  1.00  0.00     0.008 A 
ENDBRANCH  23  31
ENDBRANCH   2  22
TORSDOF 9
ENDMDL
MODEL 4
REMARK VINA RESULT:      -8.1      1.186      1.802
REMARK  9 active torsions:
REMARK  status: ('A' for Active; 'I' for Inactive)
REMARK    1  A    between atoms: O_2  and  C_3 
REMARK    2  A    between atoms: C_4  and  O_5 
REMARK    3  A    between atoms: C_6  and  C_7 
REMARK    4  A    between atoms: N_8  and  N_9 
REMARK       I    between atoms: N_9  and  C_10 
REMARK    5  A    between atoms: C_10  and  C_11 
REMARK    6  A    between atoms: C_11  and  N_12 
REMARK       I    between atoms: N_12  and  C_13 
REMARK    7  A    between atoms: C_13  and  C_14 
REMARK    8  A    between atoms: C_15  and  C_16 
REMARK    9  A    between atoms: C_15  and  C_22 
ROOT
HETATM    1  N   UNL     1     -43.686  56.241 -55.700  1.00  0.00    -0.352 N 
HETATM    2  C   UNL     1     -44.008  56.188 -54.367  1.00  0.00     0.223 C 
HETATM    3  O   UNL     1     -44.692  57.039 -53.811  1.00  0.00    -0.273 OA
HETATM    4  H   UNL     1     -43.245  55.447 -56.147  1.00  0.00     0.162 HD
ENDROOT
BRANCH   1   5
HETATM    5  C   UNL     1     -44.074  57.367 -56.526  1.00  0.00     0.227 C 
BRANCH   5   6
HETATM    6  C   UNL     1     -42.879  58.180 -57.026  1.00  0.00     0.255 C 
HETATM    7  N   UNL     1     -42.862  58.294 -58.409  1.00  0.00    -0.246 N 
HETATM    8  H   UNL     1     -43.501  57.719 -58.966  1.00  0.00     0.192 HD
HETATM    9  O   UNL     1     -42.059  58.664 -56.248  1.00  0.00    -0.270 OA
BRANCH   7  10
HETATM   10  N   UNL     1     -41.957  59.104 -59.025  1.00  0.00    -0.184 NA
HETATM   11  C   UNL     1     -42.223  60.371 -58.947  1.00  0.00     0.153 C 
BRANCH  11  12
HETATM   12  C   UNL     1     -41.320  61.386 -59.528  1.00  0.00     0.019 A 
HETATM   13  C   UNL     1     -41.317  61.619 -60.904  1.00  0.00     0.110 A 
HETATM   14  C   UNL     1     -40.481  62.597 -61.468  1.00  0.00     0.102 A 
HETATM   15  C   UNL     1     -39.643  63.340 -60.636  1.00  0.00     0.040 A 
HETATM   16  C   UNL     1     -39.642  63.108 -59.256  1.00  0.00     0.004 A 
HETATM   17  C   UNL     1     -40.478  62.136 -58.702  1.00  0.00     0.016 A 
BRANCH  13  18
HETATM   18  O   UNL     1     -42.141  60.900 -61.735  1.00  0.00    -0.357 OA
HETATM   19  H   UNL     1     -41.788  59.988 -61.719  1.00  0.00     0.218 HD
ENDBRANCH  13  18
BRANCH  14  20
HETATM   20  O   UNL     1     -40.586  62.727 -62.831  1.00  0.00    -0.353 OA
HETATM   21  C   UNL     1     -39.453  63.256 -63.510  1.00  0.00     0.210 C 
ENDBRANCH  14  20
ENDBRANCH  11  12
ENDBRANCH   7  10
ENDBRANCH   5   6
ENDBRANCH   1   5
BRANCH   2  22
HETATM   22  C   UNL     1     -43.481  54.993 -53.666  1.00  0.00     0.097 A 
HETATM   23  C   UNL     1     -42.221  55.044 -52.790  1.00  0.00     0.027 A 
HETATM   24  C   UNL     1     -43.610  54.842 -52.181  1.00  0.00     0.035 A 
BRANCH  23  25
HETATM   25  C   UNL     1     -41.280  53.838 -52.916  1.00  0.00    -0.044 A 
HETATM   26  C   UNL     1     -40.992  53.279 -54.174  1.00  0.00     0.008 A 
HETATM   27  C   UNL     1     -40.123  52.192 -54.311  1.00  0.00     0.001 A 
HETATM   28  C   UNL     1     -39.522  51.637 -53.186  1.00  0.00     0.000 A 
HETATM   29  C   UNL     1     -39.785  52.172 -51.928  1.00  0.00     0.001 A 
HETATM   30  C   UNL     1     -40.650  53.264 -51.797  1.00  0.00     0.008 A 
ENDBRANCH  23  25
BRANCH  23  31
HETATM   31  C   UNL     1     -41.518  56.360 -52.435  1.00  0.00    -0.044 A 
HETATM   32  C   UNL     1     -40.902  57.135 -53.437  1.00  0.00     0.008 A 
HETATM   33  C   UNL     1     -40.285  58.354 -53.147  1.00  0.00     0.001 A 
HETATM   34  C   UNL     1     -40.271  58.831 -51.840  1.00  0.00     0.000 A 
HETATM   35  C   UNL     1     -40.880  58.093 -50.831  1.00  0.00     0.001 A 
HETATM   36  C   UNL     1     -41.502  56.877 -51.128  1.00  0.00     0.008 A 
ENDBRANCH  23  31
ENDBRANCH   2  22
TORSDOF 9
ENDMDL
MODEL 5
REMARK VINA RESULT:      -8.0      3.111      4.789
REMARK  9 active torsions:
REMARK  status: ('A' for Active; 'I' for Inactive)
REMARK    1  A    between atoms: O_2  and  C_3 
REMARK    2  A    between atoms: C_4  and  O_5 
REMARK    3  A    between atoms: C_6  and  C_7 
REMARK    4  A    between atoms: N_8  and  N_9 
REMARK       I    between atoms: N_9  and  C_10 
REMARK    5  A    between atoms: C_10  and  C_11 
REMARK    6  A    between atoms: C_11  and  N_12 
REMARK       I    between atoms: N_12  and  C_13 
REMARK    7  A    between atoms: C_13  and  C_14 
REMARK    8  A    between atoms: C_15  and  C_16 
REMARK    9  A    between atoms: C_15  and  C_22 
ROOT
HETATM    1  N   UNL     1     -42.874  55.811 -51.006  1.00  0.00    -0.352 N 
HETATM    2  C   UNL     1     -43.021  54.454 -51.148  1.00  0.00     0.223 C 
HETATM    3  O   UNL     1     -44.114  53.901 -51.180  1.00  0.00    -0.273 OA
HETATM    4  H   UNL     1     -41.965  56.238 -51.131  1.00  0.00     0.162 HD
ENDROOT
BRANCH   1   5
HETATM    5  C   UNL     1     -44.018  56.677 -50.802  1.00  0.00     0.227 C 
BRANCH   5   6
HETATM    6  C   UNL     1     -44.453  57.400 -52.077  1.00  0.00     0.255 C 
HETATM    7  N   UNL     1     -44.458  56.562 -53.183  1.00  0.00    -0.246 N 
HETATM    8  H   UNL     1     -44.030  55.634 -53.108  1.00  0.00     0.192 HD
HETATM    9  O   UNL     1     -44.763  58.590 -52.068  1.00  0.00    -0.270 OA
BRANCH   7  10
HETATM   10  N   UNL     1     -44.957  56.991 -54.374  1.00  0.00    -0.184 NA
HETATM   11  C   UNL     1     -44.204  57.838 -55.005  1.00  0.00     0.153 C 
BRANCH  11  12
HETATM   12  C   UNL     1     -44.582  58.370 -56.330  1.00  0.00     0.019 A 
HETATM   13  C   UNL     1     -43.610  58.906 -57.176  1.00  0.00     0.110 A 
HETATM   14  C   UNL     1     -43.951  59.395 -58.448  1.00  0.00     0.102 A 
HETATM   15  C   UNL     1     -45.282  59.344 -58.864  1.00  0.00     0.040 A 
HETATM   16  C   UNL     1     -46.260  58.810 -58.018  1.00  0.00     0.004 A 
HETATM   17  C   UNL     1     -45.913  58.323 -56.756  1.00  0.00     0.016 A 
BRANCH  13  18
HETATM   18  O   UNL     1     -42.296  58.957 -56.784  1.00  0.00    -0.357 OA
HETATM   19  H   UNL     1     -41.782  58.696 -57.574  1.00  0.00     0.218 HD
ENDBRANCH  13  18
BRANCH  14  20
HETATM   20  O   UNL     1     -42.896  59.884 -59.178  1.00  0.00    -0.353 OA
HETATM   21  C   UNL     1     -42.444  59.083 -60.263  1.00  0.00     0.210 C 
ENDBRANCH  14  20
ENDBRANCH  11  12
ENDBRANCH   7  10
ENDBRANCH   5   6
ENDBRANCH   1   5
BRANCH   2  22
HETATM   22  C   UNL     1     -41.741  53.720 -51.289  1.00  0.00     0.097 A 
HETATM   23  C   UNL     1     -41.095  53.452 -52.656  1.00  0.00     0.027 A 
HETATM   24  C   UNL     1     -40.474  54.430 -51.658  1.00  0.00     0.035 A 
BRANCH  23  25
HETATM   25  C   UNL     1     -40.466  52.062 -52.827  1.00  0.00    -0.044 A 
HETATM   26  C   UNL     1     -40.350  51.477 -54.102  1.00  0.00     0.008 A 
HETATM   27  C   UNL     1     -39.764  50.221 -54.281  1.00  0.00     0.001 A 
HETATM   28  C   UNL     1     -39.280  49.518 -53.182  1.00  0.00     0.000 A 
HETATM   29  C   UNL     1     -39.376  50.073 -51.909  1.00  0.00     0.001 A 
HETATM   30  C   UNL     1     -39.958  51.333 -51.737  1.00  0.00     0.008 A 
ENDBRANCH  23  25
BRANCH  23  31
HETATM   31  C   UNL     1     -41.630  54.067 -53.954  1.00  0.00    -0.044 A 
HETATM   32  C   UNL     1     -40.952  55.136 -54.572  1.00  0.00     0.008 A 
HETATM   33  C   UNL     1     -41.398  55.693 -55.774  1.00  0.00     0.001 A 
HETATM   34  C   UNL     1     -42.538  55.189 -56.390  1.00  0.00     0.000 A 
HETATM   35  C   UNL     1     -43.225  54.128 -55.809  1.00  0.00     0.001 A 
HETATM   36  C   UNL     1     -42.770  53.570 -54.610  1.00  0.00     0.008 A 
ENDBRANCH  23  31
ENDBRANCH   2  22
TORSDOF 9
ENDMDL
MODEL 6
REMARK VINA RESULT:      -7.9      2.986      9.749
REMARK  9 active torsions:
REMARK  status: ('A' for Active; 'I' for Inactive)
REMARK    1  A    between atoms: O_2  and  C_3 
REMARK    2  A    between atoms: C_4  and  O_5 
REMARK    3  A    between atoms: C_6  and  C_7 
REMARK    4  A    between atoms: N_8  and  N_9 
REMARK       I    between atoms: N_9  and  C_10 
REMARK    5  A    between atoms: C_10  and  C_11 
REMARK    6  A    between atoms: C_11  and  N_12 
REMARK       I    between atoms: N_12  and  C_13 
REMARK    7  A    between atoms: C_13  and  C_14 
REMARK    8  A    between atoms: C_15  and  C_16 
REMARK    9  A    between atoms: C_15  and  C_22 
ROOT
HETATM    1  N   UNL     1     -44.940  58.741 -55.987  1.00  0.00    -0.352 N 
HETATM    2  C   UNL     1     -45.855  58.721 -57.010  1.00  0.00     0.223 C 
HETATM    3  O   UNL     1     -46.896  58.075 -56.963  1.00  0.00    -0.273 OA
HETATM    4  H   UNL     1     -44.171  59.398 -56.008  1.00  0.00     0.162 HD
ENDROOT
BRANCH   1   5
HETATM    5  C   UNL     1     -45.114  57.923 -54.803  1.00  0.00     0.227 C 
BRANCH   5   6
HETATM    6  C   UNL     1     -44.137  56.749 -54.740  1.00  0.00     0.255 C 
HETATM    7  N   UNL     1     -44.090  56.169 -53.480  1.00  0.00    -0.246 N 
HETATM    8  H   UNL     1     -44.544  56.644 -52.695  1.00  0.00     0.192 HD
HETATM    9  O   UNL     1     -43.495  56.393 -55.727  1.00  0.00    -0.270 OA
BRANCH   7  10
HETATM   10  N   UNL     1     -43.389  55.021 -53.272  1.00  0.00    -0.184 NA
HETATM   11  C   UNL     1     -42.207  55.192 -52.765  1.00  0.00     0.153 C 
BRANCH  11  12
HETATM   12  C   UNL     1     -41.333  54.046 -52.441  1.00  0.00     0.019 A 
HETATM   13  C   UNL     1     -40.947  53.151 -53.439  1.00  0.00     0.110 A 
HETATM   14  C   UNL     1     -40.098  52.071 -53.150  1.00  0.00     0.102 A 
HETATM   15  C   UNL     1     -39.640  51.893 -51.843  1.00  0.00     0.040 A 
HETATM   16  C   UNL     1     -40.027  52.787 -50.839  1.00  0.00     0.004 A 
HETATM   17  C   UNL     1     -40.869  53.861 -51.135  1.00  0.00     0.016 A 
BRANCH  13  18
HETATM   18  O   UNL     1     -41.384  53.316 -54.730  1.00  0.00    -0.357 OA
HETATM   19  H   UNL     1     -41.755  52.449 -54.988  1.00  0.00     0.218 HD
ENDBRANCH  13  18
BRANCH  14  20
HETATM   20  O   UNL     1     -39.791  51.276 -54.227  1.00  0.00    -0.353 OA
HETATM   21  C   UNL     1     -39.700  49.877 -53.982  1.00  0.00     0.210 C 
ENDBRANCH  14  20
ENDBRANCH  11  12
ENDBRANCH   7  10
ENDBRANCH   5   6
ENDBRANCH   1   5
BRANCH   2  22
HETATM   22  C   UNL     1     -45.487  59.574 -58.165  1.00  0.00     0.097 A 
HETATM   23  C   UNL     1     -44.870  58.997 -59.448  1.00  0.00     0.027 A 
HETATM   24  C   UNL     1     -46.292  59.562 -59.429  1.00  0.00     0.035 A 
BRANCH  23  25
HETATM   25  C   UNL     1     -43.745  59.833 -60.073  1.00  0.00    -0.044 A 
HETATM   26  C   UNL     1     -42.656  60.270 -59.296  1.00  0.00     0.008 A 
HETATM   27  C   UNL     1     -41.613  61.016 -59.850  1.00  0.00     0.001 A 
HETATM   28  C   UNL     1     -41.637  61.347 -61.201  1.00  0.00     0.000 A 
HETATM   29  C   UNL     1     -42.699  60.925 -61.997  1.00  0.00     0.001 A 
HETATM   30  C   UNL     1     -43.737  60.173 -61.437  1.00  0.00     0.008 A 
ENDBRANCH  23  25
BRANCH  23  31
HETATM   31  C   UNL     1     -44.751  57.490 -59.698  1.00  0.00    -0.044 A 
HETATM   32  C   UNL     1     -45.788  56.786 -60.341  1.00  0.00     0.008 A 
HETATM   33  C   UNL     1     -45.690  55.419 -60.612  1.00  0.00     0.001 A 
HETATM   34  C   UNL     1     -44.545  54.720 -60.248  1.00  0.00     0.000 A 
HETATM   35  C   UNL     1     -43.499  55.389 -59.619  1.00  0.00     0.001 A 
HETATM   36  C   UNL     1     -43.600  56.758 -59.357  1.00  0.00     0.008 A 
ENDBRANCH  23  31
ENDBRANCH   2  22
TORSDOF 9
ENDMDL
MODEL 7
REMARK VINA RESULT:      -7.9      2.325      4.067
REMARK  9 active torsions:
REMARK  status: ('A' for Active; 'I' for Inactive)
REMARK    1  A    between atoms: O_2  and  C_3 
REMARK    2  A    between atoms: C_4  and  O_5 
REMARK    3  A    between atoms: C_6  and  C_7 
REMARK    4  A    between atoms: N_8  and  N_9 
REMARK       I    between atoms: N_9  and  C_10 
REMARK    5  A    between atoms: C_10  and  C_11 
REMARK    6  A    between atoms: C_11  and  N_12 
REMARK       I    between atoms: N_12  and  C_13 
REMARK    7  A    between atoms: C_13  and  C_14 
REMARK    8  A    between atoms: C_15  and  C_16 
REMARK    9  A    between atoms: C_15  and  C_22 
ROOT
HETATM    1  N   UNL     1     -42.368  56.823 -51.061  1.00  0.00    -0.352 N 
HETATM    2  C   UNL     1     -42.690  55.545 -50.678  1.00  0.00     0.223 C 
HETATM    3  O   UNL     1     -43.845  55.170 -50.510  1.00  0.00    -0.273 OA
HETATM    4  H   UNL     1     -41.419  57.048 -51.329  1.00  0.00     0.162 HD
ENDROOT
BRANCH   1   5
HETATM    5  C   UNL     1     -43.385  57.844 -51.215  1.00  0.00     0.227 C 
BRANCH   5   6
HETATM    6  C   UNL     1     -43.830  58.030 -52.666  1.00  0.00     0.255 C 
HETATM    7  N   UNL     1     -43.103  59.017 -53.317  1.00  0.00    -0.246 N 
HETATM    8  H   UNL     1     -42.490  59.629 -52.770  1.00  0.00     0.192 HD
HETATM    9  O   UNL     1     -44.728  57.349 -53.156  1.00  0.00    -0.270 OA
BRANCH   7  10
HETATM   10  N   UNL     1     -43.257  59.221 -54.654  1.00  0.00    -0.184 NA
HETATM   11  C   UNL     1     -42.297  58.750 -55.388  1.00  0.00     0.153 C 
BRANCH  11  12
HETATM   12  C   UNL     1     -42.329  58.852 -56.862  1.00  0.00     0.019 A 
HETATM   13  C   UNL     1     -41.902  60.020 -57.495  1.00  0.00     0.110 A 
HETATM   14  C   UNL     1     -41.906  60.123 -58.896  1.00  0.00     0.102 A 
HETATM   15  C   UNL     1     -42.348  59.041 -59.659  1.00  0.00     0.040 A 
HETATM   16  C   UNL     1     -42.780  57.870 -59.027  1.00  0.00     0.004 A 
HETATM   17  C   UNL     1     -42.770  57.773 -57.634  1.00  0.00     0.016 A 
BRANCH  13  18
HETATM   18  O   UNL     1     -41.458  61.090 -56.759  1.00  0.00    -0.357 OA
HETATM   19  H   UNL     1     -41.876  60.988 -55.881  1.00  0.00     0.218 HD
ENDBRANCH  13  18
BRANCH  14  20
HETATM   20  O   UNL     1     -41.451  61.322 -59.386  1.00  0.00    -0.353 OA
HETATM   21  C   UNL     1     -42.293  61.992 -60.317  1.00  0.00     0.210 C 
ENDBRANCH  14  20
ENDBRANCH  11  12
ENDBRANCH   7  10
ENDBRANCH   5   6
ENDBRANCH   1   5
BRANCH   2  22
HETATM   22  C   UNL     1     -41.520  54.651 -50.515  1.00  0.00     0.097 A 
HETATM   23  C   UNL     1     -40.874  53.921 -51.701  1.00  0.00     0.027 A 
HETATM   24  C   UNL     1     -40.156  55.063 -50.981  1.00  0.00     0.035 A 
BRANCH  23  25
HETATM   25  C   UNL     1     -40.436  52.475 -51.427  1.00  0.00    -0.044 A 
HETATM   26  C   UNL     1     -39.866  51.690 -52.446  1.00  0.00     0.008 A 
HETATM   27  C   UNL     1     -39.445  50.378 -52.212  1.00  0.00     0.001 A 
HETATM   28  C   UNL     1     -39.587  49.819 -50.946  1.00  0.00     0.000 A 
HETATM   29  C   UNL     1     -40.143  50.573 -49.916  1.00  0.00     0.001 A 
HETATM   30  C   UNL     1     -40.556  51.887 -50.155  1.00  0.00     0.008 A 
ENDBRANCH  23  25
BRANCH  23  31
HETATM   31  C   UNL     1     -41.277  54.193 -53.155  1.00  0.00    -0.044 A 
HETATM   32  C   UNL     1     -42.554  53.828 -53.624  1.00  0.00     0.008 A 
HETATM   33  C   UNL     1     -42.960  54.095 -54.934  1.00  0.00     0.001 A 
HETATM   34  C   UNL     1     -42.094  54.741 -55.810  1.00  0.00     0.000 A 
HETATM   35  C   UNL     1     -40.830  55.123 -55.373  1.00  0.00     0.001 A 
HETATM   36  C   UNL     1     -40.432  54.859 -54.060  1.00  0.00     0.008 A 
ENDBRANCH  23  31
ENDBRANCH   2  22
TORSDOF 9
ENDMDL
MODEL 8
REMARK VINA RESULT:      -7.8      4.155      5.130
REMARK  9 active torsions:
REMARK  status: ('A' for Active; 'I' for Inactive)
REMARK    1  A    between atoms: O_2  and  C_3 
REMARK    2  A    between atoms: C_4  and  O_5 
REMARK    3  A    between atoms: C_6  and  C_7 
REMARK    4  A    between atoms: N_8  and  N_9 
REMARK       I    between atoms: N_9  and  C_10 
REMARK    5  A    between atoms: C_10  and  C_11 
REMARK    6  A    between atoms: C_11  and  N_12 
REMARK       I    between atoms: N_12  and  C_13 
REMARK    7  A    between atoms: C_13  and  C_14 
REMARK    8  A    between atoms: C_15  and  C_16 
REMARK    9  A    between atoms: C_15  and  C_22 
ROOT
HETATM    1  N   UNL     1     -44.432  57.006 -52.839  1.00  0.00    -0.352 N 
HETATM    2  C   UNL     1     -44.351  56.510 -51.561  1.00  0.00     0.223 C 
HETATM    3  O   UNL     1     -44.950  57.005 -50.614  1.00  0.00    -0.273 OA
HETATM    4  H   UNL     1     -44.040  56.483 -53.611  1.00  0.00     0.162 HD
ENDROOT
BRANCH   1   5
HETATM    5  C   UNL     1     -45.178  58.213 -53.134  1.00  0.00     0.227 C 
BRANCH   5   6
HETATM    6  C   UNL     1     -45.059  58.646 -54.595  1.00  0.00     0.255 C 
HETATM    7  N   UNL     1     -45.435  57.641 -55.475  1.00  0.00    -0.246 N 
HETATM    8  H   UNL     1     -45.584  56.693 -55.117  1.00  0.00     0.192 HD
HETATM    9  O   UNL     1     -44.675  59.773 -54.903  1.00  0.00    -0.270 OA
BRANCH   7  10
HETATM   10  N   UNL     1     -45.535  57.891 -56.809  1.00  0.00    -0.184 NA
HETATM   11  C   UNL     1     -46.733  58.173 -57.220  1.00  0.00     0.153 C 
BRANCH  11  12
HETATM   12  C   UNL     1     -47.006  58.508 -58.633  1.00  0.00     0.019 A 
HETATM   13  C   UNL     1     -47.114  57.496 -59.588  1.00  0.00     0.110 A 
HETATM   14  C   UNL     1     -47.396  57.799 -60.930  1.00  0.00     0.102 A 
HETATM   15  C   UNL     1     -47.565  59.132 -61.308  1.00  0.00     0.040 A 
HETATM   16  C   UNL     1     -47.456  60.149 -60.354  1.00  0.00     0.004 A 
HETATM   17  C   UNL     1     -47.178  59.840 -59.021  1.00  0.00     0.016 A 
BRANCH  13  18
HETATM   18  O   UNL     1     -46.956  56.180 -59.230  1.00  0.00    -0.357 OA
HETATM   19  H   UNL     1     -46.987  55.681 -60.070  1.00  0.00     0.218 HD
ENDBRANCH  13  18
BRANCH  14  20
HETATM   20  O   UNL     1     -47.483  56.709 -61.760  1.00  0.00    -0.353 OA
HETATM   21  C   UNL     1     -48.507  56.739 -62.748  1.00  0.00     0.210 C 
ENDBRANCH  14  20
ENDBRANCH  11  12
ENDBRANCH   7  10
ENDBRANCH   5   6
ENDBRANCH   1   5
BRANCH   2  22
HETATM   22  C   UNL     1     -43.499  55.304 -51.436  1.00  0.00     0.097 A 
HETATM   23  C   UNL     1     -41.974  55.356 -51.600  1.00  0.00     0.027 A 
HETATM   24  C   UNL     1     -42.621  55.093 -50.240  1.00  0.00     0.035 A 
BRANCH  23  25
HETATM   25  C   UNL     1     -41.352  54.181 -52.369  1.00  0.00    -0.044 A 
HETATM   26  C   UNL     1     -41.609  54.003 -53.741  1.00  0.00     0.008 A 
HETATM   27  C   UNL     1     -41.039  52.951 -54.463  1.00  0.00     0.001 A 
HETATM   28  C   UNL     1     -40.195  52.047 -53.823  1.00  0.00     0.000 A 
HETATM   29  C   UNL     1     -39.919  52.201 -52.468  1.00  0.00     0.001 A 
HETATM   30  C   UNL     1     -40.487  53.260 -51.753  1.00  0.00     0.008 A 
ENDBRANCH  23  25
BRANCH  23  31
HETATM   31  C   UNL     1     -41.204  56.675 -51.733  1.00  0.00    -0.044 A 
HETATM   32  C   UNL     1     -40.940  57.225 -53.003  1.00  0.00     0.008 A 
HETATM   33  C   UNL     1     -40.271  58.443 -53.151  1.00  0.00     0.001 A 
HETATM   34  C   UNL     1     -39.851  59.145 -52.027  1.00  0.00     0.000 A 
HETATM   35  C   UNL     1     -40.106  58.632 -50.759  1.00  0.00     0.001 A 
HETATM   36  C   UNL     1     -40.781  57.416 -50.616  1.00  0.00     0.008 A 
ENDBRANCH  23  31
ENDBRANCH   2  22
TORSDOF 9
ENDMDL
MODEL 9
REMARK VINA RESULT:      -7.8      3.583     10.120
REMARK  9 active torsions:
REMARK  status: ('A' for Active; 'I' for Inactive)
REMARK    1  A    between atoms: O_2  and  C_3 
REMARK    2  A    between atoms: C_4  and  O_5 
REMARK    3  A    between atoms: C_6  and  C_7 
REMARK    4  A    between atoms: N_8  and  N_9 
REMARK       I    between atoms: N_9  and  C_10 
REMARK    5  A    between atoms: C_10  and  C_11 
REMARK    6  A    between atoms: C_11  and  N_12 
REMARK       I    between atoms: N_12  and  C_13 
REMARK    7  A    between atoms: C_13  and  C_14 
REMARK    8  A    between atoms: C_15  and  C_16 
REMARK    9  A    between atoms: C_15  and  C_22 
ROOT
HETATM    1  N   UNL     1     -45.783  57.685 -55.944  1.00  0.00    -0.352 N 
HETATM    2  C   UNL     1     -45.745  58.793 -56.753  1.00  0.00     0.223 C 
HETATM    3  O   UNL     1     -45.028  59.761 -56.527  1.00  0.00    -0.273 OA
HETATM    4  H   UNL     1     -46.275  56.854 -56.245  1.00  0.00     0.162 HD
ENDROOT
BRANCH   1   5
HETATM    5  C   UNL     1     -45.025  57.627 -54.709  1.00  0.00     0.227 C 
BRANCH   5   6
HETATM    6  C   UNL     1     -44.020  56.474 -54.680  1.00  0.00     0.255 C 
HETATM    7  N   UNL     1     -43.996  55.827 -53.453  1.00  0.00    -0.246 N 
HETATM    8  H   UNL     1     -44.485  56.247 -52.657  1.00  0.00     0.192 HD
HETATM    9  O   UNL     1     -43.341  56.189 -55.664  1.00  0.00    -0.270 OA
BRANCH   7  10
HETATM   10  N   UNL     1     -43.272  54.687 -53.286  1.00  0.00    -0.184 NA
HETATM   11  C   UNL     1     -42.208  54.822 -52.556  1.00  0.00     0.153 C 
BRANCH  11  12
HETATM   12  C   UNL     1     -41.334  53.672 -52.245  1.00  0.00     0.019 A 
HETATM   13  C   UNL     1     -40.737  52.943 -53.274  1.00  0.00     0.110 A 
HETATM   14  C   UNL     1     -39.887  51.862 -52.993  1.00  0.00     0.102 A 
HETATM   15  C   UNL     1     -39.641  51.514 -51.663  1.00  0.00     0.040 A 
HETATM   16  C   UNL     1     -40.240  52.241 -50.629  1.00  0.00     0.004 A 
HETATM   17  C   UNL     1     -41.083  53.317 -50.916  1.00  0.00     0.016 A 
BRANCH  13  18
HETATM   18  O   UNL     1     -40.964  53.276 -54.587  1.00  0.00    -0.357 OA
HETATM   19  H   UNL     1     -41.932  53.391 -54.658  1.00  0.00     0.218 HD
ENDBRANCH  13  18
BRANCH  14  20
HETATM   20  O   UNL     1     -39.360  51.240 -54.098  1.00  0.00    -0.353 OA
HETATM   21  C   UNL     1     -39.875  49.951 -54.411  1.00  0.00     0.210 C 
ENDBRANCH  14  20
ENDBRANCH  11  12
ENDBRANCH   7  10
ENDBRANCH   5   6
ENDBRANCH   1   5
BRANCH   2  22
HETATM   22  C   UNL     1     -46.625  58.701 -57.942  1.00  0.00     0.097 A 
HETATM   23  C   UNL     1     -46.100  58.277 -59.321  1.00  0.00     0.027 A 
HETATM   24  C   UNL     1     -47.030  57.374 -58.509  1.00  0.00     0.035 A 
BRANCH  23  25
HETATM   25  C   UNL     1     -46.672  59.057 -60.514  1.00  0.00    -0.044 A 
HETATM   26  C   UNL     1     -47.701  58.511 -61.303  1.00  0.00     0.008 A 
HETATM   27  C   UNL     1     -48.247  59.212 -62.382  1.00  0.00     0.001 A 
HETATM   28  C   UNL     1     -47.772  60.481 -62.697  1.00  0.00     0.000 A 
HETATM   29  C   UNL     1     -46.757  61.049 -61.932  1.00  0.00     0.001 A 
HETATM   30  C   UNL     1     -46.219  60.345 -60.849  1.00  0.00     0.008 A 
ENDBRANCH  23  25
BRANCH  23  31
HETATM   31  C   UNL     1     -44.675  57.754 -59.534  1.00  0.00    -0.044 A 
HETATM   32  C   UNL     1     -44.403  56.373 -59.475  1.00  0.00     0.008 A 
HETATM   33  C   UNL     1     -43.120  55.866 -59.699  1.00  0.00     0.001 A 
HETATM   34  C   UNL     1     -42.073  56.733 -59.993  1.00  0.00     0.000 A 
HETATM   35  C   UNL     1     -42.312  58.102 -60.068  1.00  0.00     0.001 A 
HETATM   36  C   UNL     1     -43.599  58.602 -59.849  1.00  0.00     0.008 A 
ENDBRANCH  23  31
ENDBRANCH   2  22
TORSDOF 9
ENDMDL
MODEL 10
REMARK VINA RESULT:      -7.8      4.257      9.012
REMARK  9 active torsions:
REMARK  status: ('A' for Active; 'I' for Inactive)
REMARK    1  A    between atoms: O_2  and  C_3 
REMARK    2  A    between atoms: C_4  and  O_5 
REMARK    3  A    between atoms: C_6  and  C_7 
REMARK    4  A    between atoms: N_8  and  N_9 
REMARK       I    between atoms: N_9  and  C_10 
REMARK    5  A    between atoms: C_10  and  C_11 
REMARK    6  A    between atoms: C_11  and  N_12 
REMARK       I    between atoms: N_12  and  C_13 
REMARK    7  A    between atoms: C_13  and  C_14 
REMARK    8  A    between atoms: C_15  and  C_16 
REMARK    9  A    between atoms: C_15  and  C_22 
ROOT
HETATM    1  N   UNL     1     -42.721  58.031 -55.019  1.00  0.00    -0.352 N 
HETATM    2  C   UNL     1     -41.742  58.263 -54.085  1.00  0.00     0.223 C 
HETATM    3  O   UNL     1     -40.670  57.669 -54.080  1.00  0.00    -0.273 OA
HETATM    4  H   UNL     1     -43.525  58.643 -55.072  1.00  0.00     0.162 HD
ENDROOT
BRANCH   1   5
HETATM    5  C   UNL     1     -42.576  56.997 -56.024  1.00  0.00     0.227 C 
BRANCH   5   6
HETATM    6  C   UNL     1     -42.713  55.586 -55.452  1.00  0.00     0.255 C 
HETATM    7  N   UNL     1     -41.483  54.975 -55.256  1.00  0.00    -0.246 N 
HETATM    8  H   UNL     1     -40.641  55.409 -55.645  1.00  0.00     0.192 HD
HETATM    9  O   UNL     1     -43.814  55.097 -55.203  1.00  0.00    -0.270 OA
BRANCH   7  10
HETATM   10  N   UNL     1     -41.401  53.775 -54.617  1.00  0.00    -0.184 NA
HETATM   11  C   UNL     1     -40.227  53.223 -54.651  1.00  0.00     0.153 C 
BRANCH  11  12
HETATM   12  C   UNL     1     -39.958  51.938 -53.972  1.00  0.00     0.019 A 
HETATM   13  C   UNL     1     -39.804  51.895 -52.585  1.00  0.00     0.110 A 
HETATM   14  C   UNL     1     -39.571  50.678 -51.924  1.00  0.00     0.102 A 
HETATM   15  C   UNL     1     -39.490  49.500 -52.669  1.00  0.00     0.040 A 
HETATM   16  C   UNL     1     -39.642  49.541 -54.059  1.00  0.00     0.004 A 
HETATM   17  C   UNL     1     -39.876  50.754 -54.710  1.00  0.00     0.016 A 
BRANCH  13  18
HETATM   18  O   UNL     1     -39.887  53.043 -51.838  1.00  0.00    -0.357 OA
HETATM   19  H   UNL     1     -39.432  53.728 -52.369  1.00  0.00     0.218 HD
ENDBRANCH  13  18
BRANCH  14  20
HETATM   20  O   UNL     1     -39.448  50.779 -50.560  1.00  0.00    -0.353 OA
HETATM   21  C   UNL     1     -40.515  50.249 -49.782  1.00  0.00     0.210 C 
ENDBRANCH  14  20
ENDBRANCH  11  12
ENDBRANCH   7  10
ENDBRANCH   5   6
ENDBRANCH   1   5
BRANCH   2  22
HETATM   22  C   UNL     1     -42.085  59.316 -53.101  1.00  0.00     0.097 A 
HETATM   23  C   UNL     1     -42.540  58.988 -51.671  1.00  0.00     0.027 A 
HETATM   24  C   UNL     1     -41.179  59.629 -51.948  1.00  0.00     0.035 A 
BRANCH  23  25
HETATM   25  C   UNL     1     -43.677  59.861 -51.123  1.00  0.00    -0.044 A 
HETATM   26  C   UNL     1     -44.959  59.820 -51.703  1.00  0.00     0.008 A 
HETATM   27  C   UNL     1     -46.012  60.594 -51.207  1.00  0.00     0.001 A 
HETATM   28  C   UNL     1     -45.804  61.431 -50.116  1.00  0.00     0.000 A 
HETATM   29  C   UNL     1     -44.548  61.490 -49.519  1.00  0.00     0.001 A 
HETATM   30  C   UNL     1     -43.500  60.708 -50.015  1.00  0.00     0.008 A 
ENDBRANCH  23  25
BRANCH  23  31
HETATM   31  C   UNL     1     -42.507  57.564 -51.104  1.00  0.00    -0.044 A 
HETATM   32  C   UNL     1     -43.608  56.701 -51.271  1.00  0.00     0.008 A 
HETATM   33  C   UNL     1     -43.591  55.388 -50.794  1.00  0.00     0.001 A 
HETATM   34  C   UNL     1     -42.466  54.902 -50.137  1.00  0.00     0.000 A 
HETATM   35  C   UNL     1     -41.359  55.728 -49.965  1.00  0.00     0.001 A 
HETATM   36  C   UNL     1     -41.378  57.039 -50.450  1.00  0.00     0.008 A 
ENDBRANCH  23  31
ENDBRANCH   2  22
TORSDOF 9
ENDMDL
