MODEL 1
REMARK VINA RESULT:      -7.4      0.000      0.000
REMARK  4 active torsions:
REMARK  status: ('A' for Active; 'I' for Inactive)
REMARK    1  A    between atoms: C_6  and  C_7 
REMARK    2  A    between atoms: C_10  and  N_11 
REMARK       I    between atoms: N_11  and  C_12 
REMARK       I    between atoms: C_12  and  N_13 
REMARK    3  A    between atoms: N_13  and  C_14 
REMARK    4  A    between atoms: C_14  and  C_15 
ROOT
HETATM    1  N   UNL     1     -43.170  55.581 -53.497  1.00  0.00    -0.305 N 
HETATM    2  C   UNL     1     -41.910  55.108 -53.229  1.00  0.00     0.322 C 
HETATM    3  N   UNL     1     -41.816  54.251 -52.133  1.00  0.00    -0.334 N 
HETATM    4  C   UNL     1     -42.929  53.864 -51.275  1.00  0.00     0.155 C 
HETATM    5  O   UNL     1     -40.921  55.400 -53.897  1.00  0.00    -0.247 OA
HETATM    6  H   UNL     1     -43.943  55.150 -53.022  1.00  0.00     0.171 HD
ENDROOT
BRANCH   1   7
HETATM    7  C   UNL     1     -43.524  56.510 -54.468  1.00  0.00     0.092 A 
HETATM    8  C   UNL     1     -44.054  57.738 -54.112  1.00  0.00     0.053 A 
HETATM    9  C   UNL     1     -44.354  58.358 -52.800  1.00  0.00     0.072 C 
HETATM   10  N   UNL     1     -44.307  58.389 -55.282  1.00  0.00    -0.280 N 
HETATM   11  H   UNL     1     -44.707  59.314 -55.414  1.00  0.00     0.189 HD
HETATM   12  N   UNL     1     -43.971  57.695 -56.370  1.00  0.00    -0.171 NA
HETATM   13  C   UNL     1     -43.450  56.542 -55.897  1.00  0.00     0.147 A 
BRANCH  13  14
HETATM   14  C   UNL     1     -42.867  55.538 -56.855  1.00  0.00     0.409 C 
HETATM   15  F   UNL     1     -43.172  54.250 -56.502  1.00  0.00    -0.207 F 
HETATM   16  F   UNL     1     -43.387  55.689 -58.108  1.00  0.00    -0.207 F 
ENDBRANCH  13  14
ENDBRANCH   1   7
BRANCH   3  17
HETATM   17  C   UNL     1     -40.476  53.920 -51.646  1.00  0.00     0.165 C 
BRANCH  17  18
HETATM   18  C   UNL     1     -40.162  52.448 -51.794  1.00  0.00    -0.039 A 
HETATM   19  C   UNL     1     -39.996  51.876 -53.065  1.00  0.00     0.032 A 
HETATM   20  C   UNL     1     -39.730  50.512 -53.191  1.00  0.00     0.034 A 
HETATM   21 CL   UNL     1     -39.539  49.824 -54.758  1.00  0.00    -0.084 Cl
HETATM   22  C   UNL     1     -39.626  49.703 -52.062  1.00  0.00     0.024 A 
HETATM   23  C   UNL     1     -39.788  50.262 -50.795  1.00  0.00     0.002 A 
HETATM   24  C   UNL     1     -40.056  51.626 -50.661  1.00  0.00     0.009 A 
ENDBRANCH  17  18
ENDBRANCH   3  17
TORSDOF 4
ENDMDL
MODEL 2
REMARK VINA RESULT:      -7.3      1.807      2.239
REMARK  4 active torsions:
REMARK  status: ('A' for Active; 'I' for Inactive)
REMARK    1  A    between atoms: C_6  and  C_7 
REMARK    2  A    between atoms: C_10  and  N_11 
REMARK       I    between atoms: N_11  and  C_12 
REMARK       I    between atoms: C_12  and  N_13 
REMARK    3  A    between atoms: N_13  and  C_14 
REMARK    4  A    between atoms: C_14  and  C_15 
ROOT
HETATM    1  N   UNL     1     -42.653  56.084 -55.099  1.00  0.00    -0.305 N 
HETATM    2  C   UNL     1     -41.534  55.503 -54.555  1.00  0.00     0.322 C 
HETATM    3  N   UNL     1     -41.771  54.646 -53.481  1.00  0.00    -0.334 N 
HETATM    4  C   UNL     1     -43.082  54.362 -52.909  1.00  0.00     0.155 C 
HETATM    5  O   UNL     1     -40.397  55.705 -54.972  1.00  0.00    -0.247 OA
HETATM    6  H   UNL     1     -43.548  55.725 -54.822  1.00  0.00     0.171 HD
ENDROOT
BRANCH   1   7
HETATM    7  C   UNL     1     -42.690  57.036 -56.110  1.00  0.00     0.092 A 
HETATM    8  C   UNL     1     -42.326  58.347 -55.861  1.00  0.00     0.053 A 
HETATM    9  C   UNL     1     -41.847  59.040 -54.642  1.00  0.00     0.072 C 
HETATM   10  N   UNL     1     -42.496  59.013 -57.038  1.00  0.00    -0.280 N 
HETATM   11  H   UNL     1     -42.334  59.997 -57.234  1.00  0.00     0.189 HD
HETATM   12  N   UNL     1     -42.924  58.241 -58.037  1.00  0.00    -0.171 NA
HETATM   13  C   UNL     1     -43.019  57.005 -57.503  1.00  0.00     0.147 A 
BRANCH  13  14
HETATM   14  C   UNL     1     -43.389  55.839 -58.380  1.00  0.00     0.409 C 
HETATM   15  F   UNL     1     -42.469  55.626 -59.372  1.00  0.00    -0.207 F 
HETATM   16  F   UNL     1     -43.413  54.673 -57.671  1.00  0.00    -0.207 F 
ENDBRANCH  13  14
ENDBRANCH   1   7
BRANCH   3  17
HETATM   17  C   UNL     1     -40.614  54.201 -52.703  1.00  0.00     0.165 C 
BRANCH  17  18
HETATM   18  C   UNL     1     -40.315  52.734 -52.912  1.00  0.00    -0.039 A 
HETATM   19  C   UNL     1     -39.948  51.917 -51.832  1.00  0.00     0.032 A 
HETATM   20  C   UNL     1     -39.651  50.570 -52.040  1.00  0.00     0.034 A 
HETATM   21 CL   UNL     1     -39.192  49.584 -50.705  1.00  0.00    -0.084 Cl
HETATM   22  C   UNL     1     -39.716  50.018 -53.318  1.00  0.00     0.024 A 
HETATM   23  C   UNL     1     -40.081  50.822 -54.398  1.00  0.00     0.002 A 
HETATM   24  C   UNL     1     -40.378  52.172 -54.197  1.00  0.00     0.009 A 
ENDBRANCH  17  18
ENDBRANCH   3  17
TORSDOF 4
ENDMDL
MODEL 3
REMARK VINA RESULT:      -7.3      3.190      4.049
REMARK  4 active torsions:
REMARK  status: ('A' for Active; 'I' for Inactive)
REMARK    1  A    between atoms: C_6  and  C_7 
REMARK    2  A    between atoms: C_10  and  N_11 
REMARK       I    between atoms: N_11  and  C_12 
REMARK       I    between atoms: C_12  and  N_13 
REMARK    3  A    between atoms: N_13  and  C_14 
REMARK    4  A    between atoms: C_14  and  C_15 
ROOT
HETATM    1  N   UNL     1     -41.901  57.729 -52.366  1.00  0.00    -0.305 N 
HETATM    2  C   UNL     1     -42.245  56.401 -52.345  1.00  0.00     0.322 C 
HETATM    3  N   UNL     1     -41.675  55.622 -53.351  1.00  0.00    -0.334 N 
HETATM    4  C   UNL     1     -40.789  56.121 -54.396  1.00  0.00     0.155 C 
HETATM    5  O   UNL     1     -42.996  55.909 -51.506  1.00  0.00    -0.247 OA
HETATM    6  H   UNL     1     -41.145  58.008 -52.965  1.00  0.00     0.171 HD
ENDROOT
BRANCH   1   7
HETATM    7  C   UNL     1     -42.393  58.731 -51.539  1.00  0.00     0.092 A 
HETATM    8  C   UNL     1     -41.542  59.468 -50.735  1.00  0.00     0.053 A 
HETATM    9  C   UNL     1     -40.073  59.439 -50.540  1.00  0.00     0.072 C 
HETATM   10  N   UNL     1     -42.334  60.337 -50.047  1.00  0.00    -0.280 N 
HETATM   11  H   UNL     1     -42.058  61.029 -49.357  1.00  0.00     0.189 HD
HETATM   12  N   UNL     1     -43.630  60.239 -50.347  1.00  0.00    -0.171 NA
HETATM   13  C   UNL     1     -43.694  59.279 -51.294  1.00  0.00     0.147 A 
BRANCH  13  14
HETATM   14  C   UNL     1     -45.011  58.961 -51.948  1.00  0.00     0.409 C 
HETATM   15  F   UNL     1     -44.891  58.802 -53.303  1.00  0.00    -0.207 F 
HETATM   16  F   UNL     1     -45.513  57.773 -51.500  1.00  0.00    -0.207 F 
ENDBRANCH  13  14
ENDBRANCH   1   7
BRANCH   3  17
HETATM   17  C   UNL     1     -42.197  54.267 -53.536  1.00  0.00     0.165 C 
BRANCH  17  18
HETATM   18  C   UNL     1     -41.188  53.209 -53.149  1.00  0.00    -0.039 A 
HETATM   19  C   UNL     1     -40.866  52.169 -54.034  1.00  0.00     0.032 A 
HETATM   20  C   UNL     1     -39.952  51.184 -53.657  1.00  0.00     0.034 A 
HETATM   21 CL   UNL     1     -39.576  49.910 -54.752  1.00  0.00    -0.084 Cl
HETATM   22  C   UNL     1     -39.348  51.220 -52.402  1.00  0.00     0.024 A 
HETATM   23  C   UNL     1     -39.661  52.250 -51.516  1.00  0.00     0.002 A 
HETATM   24  C   UNL     1     -40.577  53.238 -51.886  1.00  0.00     0.009 A 
ENDBRANCH  17  18
ENDBRANCH   3  17
TORSDOF 4
ENDMDL
MODEL 4
REMARK VINA RESULT:      -7.1      3.166      3.995
REMARK  4 active torsions:
REMARK  status: ('A' for Active; 'I' for Inactive)
REMARK    1  A    between atoms: C_6  and  C_7 
REMARK    2  A    between atoms: C_10  and  N_11 
REMARK       I    between atoms: N_11  and  C_12 
REMARK       I    between atoms: C_12  and  N_13 
REMARK    3  A    between atoms: N_13  and  C_14 
REMARK    4  A    between atoms: C_14  and  C_15 
ROOT
HETATM    1  N   UNL     1     -42.932  57.314 -52.732  1.00  0.00    -0.305 N 
HETATM    2  C   UNL     1     -41.921  56.814 -53.514  1.00  0.00     0.322 C 
HETATM    3  N   UNL     1     -42.133  55.529 -54.012  1.00  0.00    -0.334 N 
HETATM    4  C   UNL     1     -43.307  54.709 -53.742  1.00  0.00     0.155 C 
HETATM    5  O   UNL     1     -40.895  57.439 -53.773  1.00  0.00    -0.247 OA
HETATM    6  H   UNL     1     -43.805  56.818 -52.723  1.00  0.00     0.171 HD
ENDROOT
BRANCH   1   7
HETATM    7  C   UNL     1     -42.937  58.521 -52.045  1.00  0.00     0.092 A 
HETATM    8  C   UNL     1     -43.939  59.451 -52.255  1.00  0.00     0.053 A 
HETATM    9  C   UNL     1     -45.139  59.453 -53.126  1.00  0.00     0.072 C 
HETATM   10  N   UNL     1     -43.638  60.514 -51.456  1.00  0.00    -0.280 N 
HETATM   11  H   UNL     1     -44.146  61.387 -51.352  1.00  0.00     0.189 HD
HETATM   12  N   UNL     1     -42.532  60.347 -50.731  1.00  0.00    -0.171 NA
HETATM   13  C   UNL     1     -42.096  59.108 -51.046  1.00  0.00     0.147 A 
BRANCH  13  14
HETATM   14  C   UNL     1     -40.900  58.535 -50.334  1.00  0.00     0.409 C 
HETATM   15  F   UNL     1     -41.056  57.203 -50.053  1.00  0.00    -0.207 F 
HETATM   16  F   UNL     1     -39.781  58.597 -51.115  1.00  0.00    -0.207 F 
ENDBRANCH  13  14
ENDBRANCH   1   7
BRANCH   3  17
HETATM   17  C   UNL     1     -40.995  54.849 -54.633  1.00  0.00     0.165 C 
BRANCH  17  18
HETATM   18  C   UNL     1     -40.530  53.660 -53.823  1.00  0.00    -0.039 A 
HETATM   19  C   UNL     1     -40.277  52.426 -54.443  1.00  0.00     0.032 A 
HETATM   20  C   UNL     1     -39.872  51.328 -53.683  1.00  0.00     0.034 A 
HETATM   21 CL   UNL     1     -39.576  49.820 -54.458  1.00  0.00    -0.084 Cl
HETATM   22  C   UNL     1     -39.712  51.441 -52.304  1.00  0.00     0.024 A 
HETATM   23  C   UNL     1     -39.959  52.663 -51.678  1.00  0.00     0.002 A 
HETATM   24  C   UNL     1     -40.367  53.765 -52.433  1.00  0.00     0.009 A 
ENDBRANCH  17  18
ENDBRANCH   3  17
TORSDOF 4
ENDMDL
MODEL 5
REMARK VINA RESULT:      -7.1      2.056      2.843
REMARK  4 active torsions:
REMARK  status: ('A' for Active; 'I' for Inactive)
REMARK    1  A    between atoms: C_6  and  C_7 
REMARK    2  A    between atoms: C_10  and  N_11 
REMARK       I    between atoms: N_11  and  C_12 
REMARK       I    between atoms: C_12  and  N_13 
REMARK    3  A    between atoms: N_13  and  C_14 
REMARK    4  A    between atoms: C_14  and  C_15 
ROOT
HETATM    1  N   UNL     1     -42.066  56.479 -56.605  1.00  0.00    -0.305 N 
HETATM    2  C   UNL     1     -42.582  55.895 -55.476  1.00  0.00     0.322 C 
HETATM    3  N   UNL     1     -41.662  55.206 -54.688  1.00  0.00    -0.334 N 
HETATM    4  C   UNL     1     -40.244  55.056 -54.993  1.00  0.00     0.155 C 
HETATM    5  O   UNL     1     -43.767  55.965 -55.160  1.00  0.00    -0.247 OA
HETATM    6  H   UNL     1     -41.067  56.531 -56.690  1.00  0.00     0.171 HD
ENDROOT
BRANCH   1   7
HETATM    7  C   UNL     1     -42.773  57.143 -57.599  1.00  0.00     0.092 A 
HETATM    8  C   UNL     1     -42.771  58.525 -57.668  1.00  0.00     0.053 A 
HETATM    9  C   UNL     1     -42.113  59.568 -56.846  1.00  0.00     0.072 C 
HETATM   10  N   UNL     1     -43.567  58.849 -58.725  1.00  0.00    -0.280 N 
HETATM   11  H   UNL     1     -43.806  59.773 -59.073  1.00  0.00     0.189 HD
HETATM   12  N   UNL     1     -44.074  57.793 -59.362  1.00  0.00    -0.171 NA
HETATM   13  C   UNL     1     -43.572  56.722 -58.711  1.00  0.00     0.147 A 
BRANCH  13  14
HETATM   14  C   UNL     1     -43.859  55.336 -59.221  1.00  0.00     0.409 C 
HETATM   15  F   UNL     1     -43.830  54.401 -58.220  1.00  0.00    -0.207 F 
HETATM   16  F   UNL     1     -45.119  55.250 -59.741  1.00  0.00    -0.207 F 
ENDBRANCH  13  14
ENDBRANCH   1   7
BRANCH   3  17
HETATM   17  C   UNL     1     -42.189  54.355 -53.619  1.00  0.00     0.165 C 
BRANCH  17  18
HETATM   18  C   UNL     1     -41.195  53.302 -53.185  1.00  0.00    -0.039 A 
HETATM   19  C   UNL     1     -40.885  52.221 -54.024  1.00  0.00     0.032 A 
HETATM   20  C   UNL     1     -39.985  51.241 -53.603  1.00  0.00     0.034 A 
HETATM   21 CL   UNL     1     -39.623  49.916 -54.641  1.00  0.00    -0.084 Cl
HETATM   22  C   UNL     1     -39.382  51.324 -52.350  1.00  0.00     0.024 A 
HETATM   23  C   UNL     1     -39.682  52.395 -51.509  1.00  0.00     0.002 A 
HETATM   24  C   UNL     1     -40.585  53.378 -51.923  1.00  0.00     0.009 A 
ENDBRANCH  17  18
ENDBRANCH   3  17
TORSDOF 4
ENDMDL
MODEL 6
REMARK VINA RESULT:      -7.0      1.860      2.615
REMARK  4 active torsions:
REMARK  status: ('A' for Active; 'I' for Inactive)
REMARK    1  A    between atoms: C_6  and  C_7 
REMARK    2  A    between atoms: C_10  and  N_11 
REMARK       I    between atoms: N_11  and  C_12 
REMARK       I    between atoms: C_12  and  N_13 
REMARK    3  A    between atoms: N_13  and  C_14 
REMARK    4  A    between atoms: C_14  and  C_15 
ROOT
HETATM    1  N   UNL     1     -43.117  55.644 -53.579  1.00  0.00    -0.305 N 
HETATM    2  C   UNL     1     -41.867  55.189 -53.240  1.00  0.00     0.322 C 
HETATM    3  N   UNL     1     -41.833  54.260 -52.201  1.00  0.00    -0.334 N 
HETATM    4  C   UNL     1     -42.997  53.780 -51.467  1.00  0.00     0.155 C 
HETATM    5  O   UNL     1     -40.838  55.557 -53.802  1.00  0.00    -0.247 OA
HETATM    6  H   UNL     1     -43.910  55.158 -53.200  1.00  0.00     0.171 HD
ENDROOT
BRANCH   1   7
HETATM    7  C   UNL     1     -43.423  56.629 -54.509  1.00  0.00     0.092 A 
HETATM    8  C   UNL     1     -43.276  56.392 -55.865  1.00  0.00     0.053 A 
HETATM    9  C   UNL     1     -42.831  55.205 -56.633  1.00  0.00     0.072 C 
HETATM   10  N   UNL     1     -43.632  57.550 -56.488  1.00  0.00    -0.280 N 
HETATM   11  H   UNL     1     -43.642  57.752 -57.483  1.00  0.00     0.189 HD
HETATM   12  N   UNL     1     -44.015  58.516 -55.653  1.00  0.00    -0.171 NA
HETATM   13  C   UNL     1     -43.931  57.964 -54.423  1.00  0.00     0.147 A 
BRANCH  13  14
HETATM   14  C   UNL     1     -44.384  58.747 -53.221  1.00  0.00     0.409 C 
HETATM   15  F   UNL     1     -45.486  59.515 -53.489  1.00  0.00    -0.207 F 
HETATM   16  F   UNL     1     -44.775  57.919 -52.208  1.00  0.00    -0.207 F 
ENDBRANCH  13  14
ENDBRANCH   1   7
BRANCH   3  17
HETATM   17  C   UNL     1     -40.525  53.934 -51.629  1.00  0.00     0.165 C 
BRANCH  17  18
HETATM   18  C   UNL     1     -40.189  52.466 -51.773  1.00  0.00    -0.039 A 
HETATM   19  C   UNL     1     -40.008  51.895 -53.041  1.00  0.00     0.032 A 
HETATM   20  C   UNL     1     -39.722  50.534 -53.164  1.00  0.00     0.034 A 
HETATM   21 CL   UNL     1     -39.513  49.846 -54.728  1.00  0.00    -0.084 Cl
HETATM   22  C   UNL     1     -39.611  49.729 -52.032  1.00  0.00     0.024 A 
HETATM   23  C   UNL     1     -39.787  50.288 -50.767  1.00  0.00     0.002 A 
HETATM   24  C   UNL     1     -40.076  51.648 -50.638  1.00  0.00     0.009 A 
ENDBRANCH  17  18
ENDBRANCH   3  17
TORSDOF 4
ENDMDL
MODEL 7
REMARK VINA RESULT:      -6.9      2.460      3.410
REMARK  4 active torsions:
REMARK  status: ('A' for Active; 'I' for Inactive)
REMARK    1  A    between atoms: C_6  and  C_7 
REMARK    2  A    between atoms: C_10  and  N_11 
REMARK       I    between atoms: N_11  and  C_12 
REMARK       I    between atoms: C_12  and  N_13 
REMARK    3  A    between atoms: N_13  and  C_14 
REMARK    4  A    between atoms: C_14  and  C_15 
ROOT
HETATM    1  N   UNL     1     -43.700  56.505 -53.518  1.00  0.00    -0.305 N 
HETATM    2  C   UNL     1     -42.380  56.297 -53.829  1.00  0.00     0.322 C 
HETATM    3  N   UNL     1     -42.135  55.251 -54.717  1.00  0.00    -0.334 N 
HETATM    4  C   UNL     1     -43.157  54.385 -55.294  1.00  0.00     0.155 C 
HETATM    5  O   UNL     1     -41.462  56.974 -53.372  1.00  0.00    -0.247 OA
HETATM    6  H   UNL     1     -44.392  56.033 -54.072  1.00  0.00     0.171 HD
ENDROOT
BRANCH   1   7
HETATM    7  C   UNL     1     -44.207  57.415 -52.599  1.00  0.00     0.092 A 
HETATM    8  C   UNL     1     -44.383  57.059 -51.274  1.00  0.00     0.053 A 
HETATM    9  C   UNL     1     -44.119  55.805 -50.529  1.00  0.00     0.072 C 
HETATM   10  N   UNL     1     -44.909  58.155 -50.658  1.00  0.00    -0.280 N 
HETATM   11  H   UNL     1     -45.177  58.262 -49.684  1.00  0.00     0.189 HD
HETATM   12  N   UNL     1     -45.076  59.201 -51.468  1.00  0.00    -0.171 NA
HETATM   13  C   UNL     1     -44.616  58.785 -52.668  1.00  0.00     0.147 A 
BRANCH  13  14
HETATM   14  C   UNL     1     -44.560  59.751 -53.820  1.00  0.00     0.409 C 
HETATM   15  F   UNL     1     -43.531  59.470 -54.680  1.00  0.00    -0.207 F 
HETATM   16  F   UNL     1     -45.686  59.674 -54.588  1.00  0.00    -0.207 F 
ENDBRANCH  13  14
ENDBRANCH   1   7
BRANCH   3  17
HETATM   17  C   UNL     1     -40.747  54.818 -54.887  1.00  0.00     0.165 C 
BRANCH  17  18
HETATM   18  C   UNL     1     -40.401  53.646 -53.996  1.00  0.00    -0.039 A 
HETATM   19  C   UNL     1     -40.108  52.390 -54.549  1.00  0.00     0.032 A 
HETATM   20  C   UNL     1     -39.814  51.308 -53.716  1.00  0.00     0.034 A 
HETATM   21 CL   UNL     1     -39.467  49.771 -54.410  1.00  0.00    -0.084 Cl
HETATM   22  C   UNL     1     -39.806  51.462 -52.332  1.00  0.00     0.024 A 
HETATM   23  C   UNL     1     -40.095  52.707 -51.774  1.00  0.00     0.002 A 
HETATM   24  C   UNL     1     -40.392  53.792 -52.601  1.00  0.00     0.009 A 
ENDBRANCH  17  18
ENDBRANCH   3  17
TORSDOF 4
ENDMDL
MODEL 8
REMARK VINA RESULT:      -6.9      3.004      3.803
REMARK  4 active torsions:
REMARK  status: ('A' for Active; 'I' for Inactive)
REMARK    1  A    between atoms: C_6  and  C_7 
REMARK    2  A    between atoms: C_10  and  N_11 
REMARK       I    between atoms: N_11  and  C_12 
REMARK       I    between atoms: C_12  and  N_13 
REMARK    3  A    between atoms: N_13  and  C_14 
REMARK    4  A    between atoms: C_14  and  C_15 
ROOT
HETATM    1  N   UNL     1     -42.167  55.504 -56.688  1.00  0.00    -0.305 N 
HETATM    2  C   UNL     1     -42.507  54.888 -55.508  1.00  0.00     0.322 C 
HETATM    3  N   UNL     1     -41.485  54.159 -54.902  1.00  0.00    -0.334 N 
HETATM    4  C   UNL     1     -40.138  53.999 -55.438  1.00  0.00     0.155 C 
HETATM    5  O   UNL     1     -43.623  54.964 -55.003  1.00  0.00    -0.247 OA
HETATM    6  H   UNL     1     -41.194  55.545 -56.931  1.00  0.00     0.171 HD
ENDROOT
BRANCH   1   7
HETATM    7  C   UNL     1     -43.013  56.212 -57.532  1.00  0.00     0.092 A 
HETATM    8  C   UNL     1     -43.178  57.578 -57.386  1.00  0.00     0.053 A 
HETATM    9  C   UNL     1     -42.593  58.564 -56.446  1.00  0.00     0.072 C 
HETATM   10  N   UNL     1     -44.076  57.951 -58.342  1.00  0.00    -0.280 N 
HETATM   11  H   UNL     1     -44.445  58.879 -58.531  1.00  0.00     0.189 HD
HETATM   12  N   UNL     1     -44.497  56.945 -59.108  1.00  0.00    -0.171 NA
HETATM   13  C   UNL     1     -43.829  55.862 -58.655  1.00  0.00     0.147 A 
BRANCH  13  14
HETATM   14  C   UNL     1     -43.985  54.541 -59.359  1.00  0.00     0.409 C 
HETATM   15  F   UNL     1     -44.359  53.540 -58.501  1.00  0.00    -0.207 F 
HETATM   16  F   UNL     1     -44.980  54.591 -60.292  1.00  0.00    -0.207 F 
ENDBRANCH  13  14
ENDBRANCH   1   7
BRANCH   3  17
HETATM   17  C   UNL     1     -41.849  53.280 -53.790  1.00  0.00     0.165 C 
BRANCH  17  18
HETATM   18  C   UNL     1     -41.268  53.750 -52.476  1.00  0.00    -0.039 A 
HETATM   19  C   UNL     1     -41.545  55.038 -51.991  1.00  0.00     0.032 A 
HETATM   20  C   UNL     1     -40.983  55.470 -50.789  1.00  0.00     0.034 A 
HETATM   21 CL   UNL     1     -41.324  57.057 -50.214  1.00  0.00    -0.084 Cl
HETATM   22  C   UNL     1     -40.146  54.633 -50.056  1.00  0.00     0.024 A 
HETATM   23  C   UNL     1     -39.866  53.351 -50.528  1.00  0.00     0.002 A 
HETATM   24  C   UNL     1     -40.423  52.912 -51.732  1.00  0.00     0.009 A 
ENDBRANCH  17  18
ENDBRANCH   3  17
TORSDOF 4
ENDMDL
MODEL 9
REMARK VINA RESULT:      -6.9      3.318      6.966
REMARK  4 active torsions:
REMARK  status: ('A' for Active; 'I' for Inactive)
REMARK    1  A    between atoms: C_6  and  C_7 
REMARK    2  A    between atoms: C_10  and  N_11 
REMARK       I    between atoms: N_11  and  C_12 
REMARK       I    between atoms: C_12  and  N_13 
REMARK    3  A    between atoms: N_13  and  C_14 
REMARK    4  A    between atoms: C_14  and  C_15 
ROOT
HETATM    1  N   UNL     1     -40.714  54.623 -52.734  1.00  0.00    -0.305 N 
HETATM    2  C   UNL     1     -41.771  54.871 -53.575  1.00  0.00     0.322 C 
HETATM    3  N   UNL     1     -41.873  56.185 -54.031  1.00  0.00    -0.334 N 
HETATM    4  C   UNL     1     -40.973  57.271 -53.663  1.00  0.00     0.155 C 
HETATM    5  O   UNL     1     -42.579  54.011 -53.917  1.00  0.00    -0.247 OA
HETATM    6  H   UNL     1     -40.003  55.328 -52.655  1.00  0.00     0.171 HD
ENDROOT
BRANCH   1   7
HETATM    7  C   UNL     1     -40.435  53.433 -52.074  1.00  0.00     0.092 A 
HETATM    8  C   UNL     1     -40.606  53.327 -50.705  1.00  0.00     0.053 A 
HETATM    9  C   UNL     1     -41.075  54.286 -49.676  1.00  0.00     0.072 C 
HETATM   10  N   UNL     1     -40.229  52.059 -50.377  1.00  0.00    -0.280 N 
HETATM   11  H   UNL     1     -40.213  51.625 -49.459  1.00  0.00     0.189 HD
HETATM   12  N   UNL     1     -39.842  51.325 -51.420  1.00  0.00    -0.171 NA
HETATM   13  C   UNL     1     -39.994  52.136 -52.489  1.00  0.00     0.147 A 
BRANCH  13  14
HETATM   14  C   UNL     1     -39.738  51.603 -53.873  1.00  0.00     0.409 C 
HETATM   15  F   UNL     1     -39.118  50.382 -53.850  1.00  0.00    -0.207 F 
HETATM   16  F   UNL     1     -40.907  51.388 -54.545  1.00  0.00    -0.207 F 
ENDBRANCH  13  14
ENDBRANCH   1   7
BRANCH   3  17
HETATM   17  C   UNL     1     -43.109  56.568 -54.715  1.00  0.00     0.165 C 
BRANCH  17  18
HETATM   18  C   UNL     1     -42.915  56.707 -56.208  1.00  0.00    -0.039 A 
HETATM   19  C   UNL     1     -42.545  57.938 -56.771  1.00  0.00     0.032 A 
HETATM   20  C   UNL     1     -42.393  58.061 -58.153  1.00  0.00     0.034 A 
HETATM   21 CL   UNL     1     -41.949  59.581 -58.828  1.00  0.00    -0.084 Cl
HETATM   22  C   UNL     1     -42.604  56.967 -58.989  1.00  0.00     0.024 A 
HETATM   23  C   UNL     1     -42.970  55.739 -58.439  1.00  0.00     0.002 A 
HETATM   24  C   UNL     1     -43.126  55.609 -57.058  1.00  0.00     0.009 A 
ENDBRANCH  17  18
ENDBRANCH   3  17
TORSDOF 4
ENDMDL
MODEL 10
REMARK VINA RESULT:      -6.6     14.692     16.846
REMARK  4 active torsions:
REMARK  status: ('A' for Active; 'I' for Inactive)
REMARK    1  A    between atoms: C_6  and  C_7 
REMARK    2  A    between atoms: C_10  and  N_11 
REMARK       I    between atoms: N_11  and  C_12 
REMARK       I    between atoms: C_12  and  N_13 
REMARK    3  A    between atoms: N_13  and  C_14 
REMARK    4  A    between atoms: C_14  and  C_15 
ROOT
HETATM    1  N   UNL     1     -33.988  40.861 -53.964  1.00  0.00    -0.305 N 
HETATM    2  C   UNL     1     -35.201  40.533 -54.514  1.00  0.00     0.322 C 
HETATM    3  N   UNL     1     -35.685  41.428 -55.468  1.00  0.00    -0.334 N 
HETATM    4  C   UNL     1     -35.015  42.656 -55.879  1.00  0.00     0.155 C 
HETATM    5  O   UNL     1     -35.832  39.524 -54.208  1.00  0.00    -0.247 OA
HETATM    6  H   UNL     1     -33.459  41.595 -54.400  1.00  0.00     0.171 HD
ENDROOT
BRANCH   1   7
HETATM    7  C   UNL     1     -33.329  40.195 -52.938  1.00  0.00     0.092 A 
HETATM    8  C   UNL     1     -32.198  39.441 -53.195  1.00  0.00     0.053 A 
HETATM    9  C   UNL     1     -31.444  39.158 -54.439  1.00  0.00     0.072 C 
HETATM   10  N   UNL     1     -31.820  38.912 -51.997  1.00  0.00    -0.280 N 
HETATM   11  H   UNL     1     -31.036  38.298 -51.800  1.00  0.00     0.189 HD
HETATM   12  N   UNL     1     -32.601  39.272 -50.978  1.00  0.00    -0.171 NA
HETATM   13  C   UNL     1     -33.522  40.095 -51.523  1.00  0.00     0.147 A 
BRANCH  13  14
HETATM   14  C   UNL     1     -34.528  40.780 -50.637  1.00  0.00     0.409 C 
HETATM   15  F   UNL     1     -34.477  42.144 -50.755  1.00  0.00    -0.207 F 
HETATM   16  F   UNL     1     -35.805  40.447 -50.987  1.00  0.00    -0.207 F 
ENDBRANCH  13  14
ENDBRANCH   1   7
BRANCH   3  17
HETATM   17  C   UNL     1     -37.075  41.271 -55.899  1.00  0.00     0.165 C 
BRANCH  17  18
HETATM   18  C   UNL     1     -37.187  41.043 -57.390  1.00  0.00    -0.039 A 
HETATM   19  C   UNL     1     -37.207  42.128 -58.280  1.00  0.00     0.032 A 
HETATM   20  C   UNL     1     -37.336  41.907 -59.652  1.00  0.00     0.034 A 
HETATM   21 CL   UNL     1     -37.369  43.249 -60.730  1.00  0.00    -0.084 Cl
HETATM   22  C   UNL     1     -37.445  40.612 -60.155  1.00  0.00     0.024 A 
HETATM   23  C   UNL     1     -37.425  39.528 -59.278  1.00  0.00     0.002 A 
HETATM   24  C   UNL     1     -37.298  39.742 -57.904  1.00  0.00     0.009 A 
ENDBRANCH  17  18
ENDBRANCH   3  17
TORSDOF 4
ENDMDL
