MODEL 1
REMARK VINA RESULT:      -8.1      0.000      0.000
REMARK  4 active torsions:
REMARK  status: ('A' for Active; 'I' for Inactive)
REMARK    1  A    between atoms: C_5  and  C_6 
REMARK    2  A    between atoms: C_6  and  N_7 
REMARK    3  A    between atoms: C_6  and  C_18 
REMARK    4  A    between atoms: N_7  and  C_8 
ROOT
HETATM    1  C   UNL     1     -41.450  56.298 -54.307  1.00  0.00     0.288 C 
ENDROOT
BRANCH   1   2
HETATM    2  C   UNL     1     -41.317  57.398 -53.267  1.00  0.00    -0.003 A 
HETATM    3  C   UNL     1     -40.239  58.278 -53.217  1.00  0.00     0.126 A 
HETATM    4  N   UNL     1     -40.086  59.254 -52.295  1.00  0.00    -0.272 NA
HETATM    5  C   UNL     1     -41.081  59.406 -51.397  1.00  0.00     0.116 A 
HETATM    6  C   UNL     1     -42.213  58.610 -51.369  1.00  0.00     0.020 A 
HETATM    7  C   UNL     1     -42.329  57.595 -52.316  1.00  0.00     0.012 A 
ENDBRANCH   1   2
BRANCH   1   8
HETATM    8  N   UNL     1     -42.796  56.134 -54.893  1.00  0.00     0.101 N 
HETATM    9  H   UNL     1     -43.477  56.545 -54.255  1.00  0.00     0.317 HD
BRANCH   8  10
HETATM   10  C   UNL     1     -42.988  56.585 -56.273  1.00  0.00     0.225 C 
HETATM   11  C   UNL     1     -43.217  55.413 -57.251  1.00  0.00     0.069 C 
HETATM   12  C   UNL     1     -43.547  55.956 -58.630  1.00  0.00     0.190 C 
HETATM   13  N   UNL     1     -44.779  56.811 -58.529  1.00  0.00    -0.067 N 
HETATM   14  C   UNL     1     -43.969  54.953 -59.684  1.00  0.00     0.035 C 
HETATM   15  H   UNL     1     -45.519  56.252 -58.077  1.00  0.00     0.280 HD
HETATM   16  C   UNL     1     -44.562  58.024 -57.684  1.00  0.00     0.237 C 
HETATM   17  C   UNL     1     -45.233  57.034 -59.949  1.00  0.00     0.235 C 
HETATM   18  C   UNL     1     -44.192  57.555 -56.280  1.00  0.00     0.063 C 
HETATM   19  C   UNL     1     -44.693  55.822 -60.711  1.00  0.00     0.030 C 
ENDBRANCH   8  10
ENDBRANCH   1   8
BRANCH   1  20
HETATM   20  C   UNL     1     -40.955  54.934 -53.822  1.00  0.00    -0.021 A 
HETATM   21  C   UNL     1     -40.571  53.965 -54.770  1.00  0.00     0.012 A 
HETATM   22  C   UNL     1     -40.139  52.700 -54.365  1.00  0.00     0.043 A 
HETATM   23  C   UNL     1     -40.097  52.390 -53.014  1.00  0.00     0.116 A 
HETATM   24  F   UNL     1     -39.685  51.177 -52.626  1.00  0.00    -0.206 F 
HETATM   25  C   UNL     1     -40.482  53.320 -52.057  1.00  0.00     0.043 A 
HETATM   26  C   UNL     1     -40.915  54.586 -52.458  1.00  0.00     0.012 A 
ENDBRANCH   1  20
TORSDOF 4
ENDMDL
MODEL 2
REMARK VINA RESULT:      -8.0      1.300      1.880
REMARK  4 active torsions:
REMARK  status: ('A' for Active; 'I' for Inactive)
REMARK    1  A    between atoms: C_5  and  C_6 
REMARK    2  A    between atoms: C_6  and  N_7 
REMARK    3  A    between atoms: C_6  and  C_18 
REMARK    4  A    between atoms: N_7  and  C_8 
ROOT
HETATM    1  C   UNL     1     -41.602  56.295 -54.237  1.00  0.00     0.288 C 
ENDROOT
BRANCH   1   2
HETATM    2  C   UNL     1     -41.400  57.406 -53.220  1.00  0.00    -0.003 A 
HETATM    3  C   UNL     1     -40.277  58.229 -53.198  1.00  0.00     0.126 A 
HETATM    4  N   UNL     1     -40.063  59.213 -52.297  1.00  0.00    -0.272 NA
HETATM    5  C   UNL     1     -41.039  59.434 -51.392  1.00  0.00     0.116 A 
HETATM    6  C   UNL     1     -42.211  58.699 -51.338  1.00  0.00     0.020 A 
HETATM    7  C   UNL     1     -42.390  57.674 -52.263  1.00  0.00     0.012 A 
ENDBRANCH   1   2
BRANCH   1   8
HETATM    8  N   UNL     1     -42.986  56.117 -54.720  1.00  0.00     0.101 N 
HETATM    9  H   UNL     1     -43.622  56.523 -54.033  1.00  0.00     0.317 HD
BRANCH   8  10
HETATM   10  C   UNL     1     -43.286  56.564 -56.082  1.00  0.00     0.225 C 
HETATM   11  C   UNL     1     -42.504  57.835 -56.473  1.00  0.00     0.069 C 
HETATM   12  C   UNL     1     -42.754  58.160 -57.935  1.00  0.00     0.190 C 
HETATM   13  N   UNL     1     -42.315  56.989 -58.771  1.00  0.00    -0.067 N 
HETATM   14  C   UNL     1     -41.936  59.281 -58.544  1.00  0.00     0.035 C 
HETATM   15  H   UNL     1     -41.340  56.767 -58.519  1.00  0.00     0.280 HD
HETATM   16  C   UNL     1     -43.130  55.766 -58.507  1.00  0.00     0.237 C 
HETATM   17  C   UNL     1     -42.276  57.498 -60.188  1.00  0.00     0.235 C 
HETATM   18  C   UNL     1     -42.954  55.394 -57.038  1.00  0.00     0.063 C 
HETATM   19  C   UNL     1     -42.040  59.002 -60.042  1.00  0.00     0.030 C 
ENDBRANCH   8  10
ENDBRANCH   1   8
BRANCH   1  20
HETATM   20  C   UNL     1     -41.063  54.939 -53.778  1.00  0.00    -0.021 A 
HETATM   21  C   UNL     1     -40.569  54.034 -54.738  1.00  0.00     0.012 A 
HETATM   22  C   UNL     1     -40.093  52.777 -54.358  1.00  0.00     0.043 A 
HETATM   23  C   UNL     1     -40.116  52.411 -53.021  1.00  0.00     0.116 A 
HETATM   24  F   UNL     1     -39.663  51.205 -52.658  1.00  0.00    -0.206 F 
HETATM   25  C   UNL     1     -40.609  53.277 -52.053  1.00  0.00     0.043 A 
HETATM   26  C   UNL     1     -41.087  54.535 -52.429  1.00  0.00     0.012 A 
ENDBRANCH   1  20
TORSDOF 4
ENDMDL
MODEL 3
REMARK VINA RESULT:      -7.8      3.440      6.659
REMARK  4 active torsions:
REMARK  status: ('A' for Active; 'I' for Inactive)
REMARK    1  A    between atoms: C_5  and  C_6 
REMARK    2  A    between atoms: C_6  and  N_7 
REMARK    3  A    between atoms: C_6  and  C_18 
REMARK    4  A    between atoms: N_7  and  C_8 
ROOT
HETATM    1  C   UNL     1     -40.576  54.360 -52.128  1.00  0.00     0.288 C 
ENDROOT
BRANCH   1   2
HETATM    2  C   UNL     1     -40.275  52.916 -51.764  1.00  0.00    -0.003 A 
HETATM    3  C   UNL     1     -40.491  52.385 -50.495  1.00  0.00     0.126 A 
HETATM    4  N   UNL     1     -40.218  51.110 -50.139  1.00  0.00    -0.272 NA
HETATM    5  C   UNL     1     -39.749  50.294 -51.105  1.00  0.00     0.116 A 
HETATM    6  C   UNL     1     -39.525  50.703 -52.408  1.00  0.00     0.020 A 
HETATM    7  C   UNL     1     -39.791  52.030 -52.738  1.00  0.00     0.012 A 
ENDBRANCH   1   2
BRANCH   1   8
HETATM    8  N   UNL     1     -41.317  55.132 -51.110  1.00  0.00     0.101 N 
HETATM    9  H   UNL     1     -40.795  55.096 -50.234  1.00  0.00     0.317 HD
BRANCH   8  10
HETATM   10  C   UNL     1     -41.718  56.497 -51.460  1.00  0.00     0.225 C 
HETATM   11  C   UNL     1     -43.219  56.754 -51.214  1.00  0.00     0.069 C 
HETATM   12  C   UNL     1     -43.534  58.218 -51.462  1.00  0.00     0.190 C 
HETATM   13  N   UNL     1     -42.695  59.055 -50.538  1.00  0.00    -0.067 N 
HETATM   14  C   UNL     1     -44.928  58.694 -51.108  1.00  0.00     0.035 C 
HETATM   15  H   UNL     1     -42.849  58.719 -49.575  1.00  0.00     0.280 HD
HETATM   16  C   UNL     1     -41.234  58.926 -50.823  1.00  0.00     0.237 C 
HETATM   17  C   UNL     1     -43.287  60.439 -50.597  1.00  0.00     0.235 C 
HETATM   18  C   UNL     1     -40.847  57.464 -50.624  1.00  0.00     0.063 C 
HETATM   19  C   UNL     1     -44.749  60.207 -50.983  1.00  0.00     0.030 C 
ENDBRANCH   8  10
ENDBRANCH   1   8
BRANCH   1  20
HETATM   20  C   UNL     1     -41.282  54.519 -53.476  1.00  0.00    -0.021 A 
HETATM   21  C   UNL     1     -42.594  54.029 -53.627  1.00  0.00     0.012 A 
HETATM   22  C   UNL     1     -43.260  54.132 -54.851  1.00  0.00     0.043 A 
HETATM   23  C   UNL     1     -42.618  54.715 -55.933  1.00  0.00     0.116 A 
HETATM   24  F   UNL     1     -43.255  54.811 -57.106  1.00  0.00    -0.206 F 
HETATM   25  C   UNL     1     -41.320  55.194 -55.818  1.00  0.00     0.043 A 
HETATM   26  C   UNL     1     -40.650  55.092 -54.596  1.00  0.00     0.012 A 
ENDBRANCH   1  20
TORSDOF 4
ENDMDL
MODEL 4
REMARK VINA RESULT:      -7.7      3.237      6.859
REMARK  4 active torsions:
REMARK  status: ('A' for Active; 'I' for Inactive)
REMARK    1  A    between atoms: C_5  and  C_6 
REMARK    2  A    between atoms: C_6  and  N_7 
REMARK    3  A    between atoms: C_6  and  C_18 
REMARK    4  A    between atoms: N_7  and  C_8 
ROOT
HETATM    1  C   UNL     1     -41.112  53.825 -52.610  1.00  0.00     0.288 C 
ENDROOT
BRANCH   1   2
HETATM    2  C   UNL     1     -40.458  52.456 -52.694  1.00  0.00    -0.003 A 
HETATM    3  C   UNL     1     -39.998  51.759 -51.580  1.00  0.00     0.126 A 
HETATM    4  N   UNL     1     -39.399  50.548 -51.625  1.00  0.00    -0.272 NA
HETATM    5  C   UNL     1     -39.290  49.966 -52.837  1.00  0.00     0.116 A 
HETATM    6  C   UNL     1     -39.738  50.552 -54.008  1.00  0.00     0.020 A 
HETATM    7  C   UNL     1     -40.328  51.812 -53.933  1.00  0.00     0.012 A 
ENDBRANCH   1   2
BRANCH   1   8
HETATM    8  N   UNL     1     -42.152  53.972 -51.572  1.00  0.00     0.101 N 
HETATM    9  H   UNL     1     -42.020  53.238 -50.877  1.00  0.00     0.317 HD
BRANCH   8  10
HETATM   10  C   UNL     1     -42.309  55.293 -50.959  1.00  0.00     0.225 C 
HETATM   11  C   UNL     1     -41.024  56.142 -51.047  1.00  0.00     0.069 C 
HETATM   12  C   UNL     1     -41.297  57.540 -50.522  1.00  0.00     0.190 C 
HETATM   13  N   UNL     1     -42.397  58.156 -51.341  1.00  0.00    -0.067 N 
HETATM   14  C   UNL     1     -40.196  58.567 -50.685  1.00  0.00     0.035 C 
HETATM   15  H   UNL     1     -42.127  58.094 -52.334  1.00  0.00     0.280 HD
HETATM   16  C   UNL     1     -43.694  57.431 -51.188  1.00  0.00     0.237 C 
HETATM   17  C   UNL     1     -42.384  59.623 -50.995  1.00  0.00     0.235 C 
HETATM   18  C   UNL     1     -43.488  55.998 -51.670  1.00  0.00     0.063 C 
HETATM   19  C   UNL     1     -40.945  59.892 -50.553  1.00  0.00     0.030 C 
ENDBRANCH   8  10
ENDBRANCH   1   8
BRANCH   1  20
HETATM   20  C   UNL     1     -41.675  54.318 -53.945  1.00  0.00    -0.021 A 
HETATM   21  C   UNL     1     -41.073  55.421 -54.581  1.00  0.00     0.012 A 
HETATM   22  C   UNL     1     -41.576  55.915 -55.787  1.00  0.00     0.043 A 
HETATM   23  C   UNL     1     -42.689  55.318 -56.360  1.00  0.00     0.116 A 
HETATM   24  F   UNL     1     -43.173  55.793 -57.514  1.00  0.00    -0.206 F 
HETATM   25  C   UNL     1     -43.312  54.237 -55.750  1.00  0.00     0.043 A 
HETATM   26  C   UNL     1     -42.812  53.741 -54.544  1.00  0.00     0.012 A 
ENDBRANCH   1  20
TORSDOF 4
ENDMDL
MODEL 5
REMARK VINA RESULT:      -7.4      1.905      2.979
REMARK  4 active torsions:
REMARK  status: ('A' for Active; 'I' for Inactive)
REMARK    1  A    between atoms: C_5  and  C_6 
REMARK    2  A    between atoms: C_6  and  N_7 
REMARK    3  A    between atoms: C_6  and  C_18 
REMARK    4  A    between atoms: N_7  and  C_8 
ROOT
HETATM    1  C   UNL     1     -41.813  56.080 -53.574  1.00  0.00     0.288 C 
ENDROOT
BRANCH   1   2
HETATM    2  C   UNL     1     -41.178  57.174 -52.732  1.00  0.00    -0.003 A 
HETATM    3  C   UNL     1     -40.378  58.182 -53.264  1.00  0.00     0.126 A 
HETATM    4  N   UNL     1     -39.787  59.157 -52.538  1.00  0.00    -0.272 NA
HETATM    5  C   UNL     1     -40.039  59.169 -51.213  1.00  0.00     0.116 A 
HETATM    6  C   UNL     1     -40.842  58.236 -50.580  1.00  0.00     0.020 A 
HETATM    7  C   UNL     1     -41.415  57.228 -51.351  1.00  0.00     0.012 A 
ENDBRANCH   1   2
BRANCH   1   8
HETATM    8  N   UNL     1     -43.271  55.914 -53.407  1.00  0.00     0.101 N 
HETATM    9  H   UNL     1     -43.497  56.023 -52.418  1.00  0.00     0.317 HD
BRANCH   8  10
HETATM   10  C   UNL     1     -44.143  56.718 -54.265  1.00  0.00     0.225 C 
HETATM   11  C   UNL     1     -44.422  58.118 -53.679  1.00  0.00     0.069 C 
HETATM   12  C   UNL     1     -45.211  58.944 -54.679  1.00  0.00     0.190 C 
HETATM   13  N   UNL     1     -44.415  59.051 -55.950  1.00  0.00    -0.067 N 
HETATM   14  C   UNL     1     -45.434  60.405 -54.346  1.00  0.00     0.035 C 
HETATM   15  H   UNL     1     -43.479  59.410 -55.710  1.00  0.00     0.280 HD
HETATM   16  C   UNL     1     -44.225  57.727 -56.615  1.00  0.00     0.237 C 
HETATM   17  C   UNL     1     -45.085  60.134 -56.754  1.00  0.00     0.235 C 
HETATM   18  C   UNL     1     -43.461  56.825 -55.650  1.00  0.00     0.063 C 
HETATM   19  C   UNL     1     -45.764  61.017 -55.706  1.00  0.00     0.030 C 
ENDBRANCH   8  10
ENDBRANCH   1   8
BRANCH   1  20
HETATM   20  C   UNL     1     -41.140  54.715 -53.415  1.00  0.00    -0.021 A 
HETATM   21  C   UNL     1     -40.746  54.004 -54.566  1.00  0.00     0.012 A 
HETATM   22  C   UNL     1     -40.153  52.744 -54.460  1.00  0.00     0.043 A 
HETATM   23  C   UNL     1     -39.959  52.181 -53.208  1.00  0.00     0.116 A 
HETATM   24  F   UNL     1     -39.393  50.972 -53.107  1.00  0.00    -0.206 F 
HETATM   25  C   UNL     1     -40.349  52.852 -52.056  1.00  0.00     0.043 A 
HETATM   26  C   UNL     1     -40.944  54.113 -52.158  1.00  0.00     0.012 A 
ENDBRANCH   1  20
TORSDOF 4
ENDMDL
MODEL 6
REMARK VINA RESULT:      -7.3      3.356      7.478
REMARK  4 active torsions:
REMARK  status: ('A' for Active; 'I' for Inactive)
REMARK    1  A    between atoms: C_5  and  C_6 
REMARK    2  A    between atoms: C_6  and  N_7 
REMARK    3  A    between atoms: C_6  and  C_18 
REMARK    4  A    between atoms: N_7  and  C_8 
ROOT
HETATM    1  C   UNL     1     -43.220  56.801 -57.378  1.00  0.00     0.288 C 
ENDROOT
BRANCH   1   2
HETATM    2  C   UNL     1     -44.106  56.402 -58.545  1.00  0.00    -0.003 A 
HETATM    3  C   UNL     1     -45.239  57.116 -58.926  1.00  0.00     0.126 A 
HETATM    4  N   UNL     1     -46.054  56.776 -59.949  1.00  0.00    -0.272 NA
HETATM    5  C   UNL     1     -45.705  55.692 -60.672  1.00  0.00     0.116 A 
HETATM    6  C   UNL     1     -44.586  54.924 -60.405  1.00  0.00     0.020 A 
HETATM    7  C   UNL     1     -43.780  55.284 -59.328  1.00  0.00     0.012 A 
ENDBRANCH   1   2
BRANCH   1   8
HETATM    8  N   UNL     1     -43.831  56.670 -56.040  1.00  0.00     0.101 N 
HETATM    9  H   UNL     1     -44.842  56.768 -56.136  1.00  0.00     0.317 HD
BRANCH   8  10
HETATM   10  C   UNL     1     -43.463  55.497 -55.244  1.00  0.00     0.225 C 
HETATM   11  C   UNL     1     -42.070  54.946 -55.612  1.00  0.00     0.069 C 
HETATM   12  C   UNL     1     -41.695  53.825 -54.660  1.00  0.00     0.190 C 
HETATM   13  N   UNL     1     -41.699  54.363 -53.256  1.00  0.00    -0.067 N 
HETATM   14  C   UNL     1     -40.287  53.273 -54.761  1.00  0.00     0.035 C 
HETATM   15  H   UNL     1     -41.090  55.195 -53.233  1.00  0.00     0.280 HD
HETATM   16  C   UNL     1     -43.059  54.798 -52.817  1.00  0.00     0.237 C 
HETATM   17  C   UNL     1     -41.008  53.316 -52.421  1.00  0.00     0.235 C 
HETATM   18  C   UNL     1     -43.519  55.910 -53.755  1.00  0.00     0.063 C 
HETATM   19  C   UNL     1     -40.091  52.592 -53.408  1.00  0.00     0.030 C 
ENDBRANCH   8  10
ENDBRANCH   1   8
BRANCH   1  20
HETATM   20  C   UNL     1     -42.626  58.205 -57.512  1.00  0.00    -0.021 A 
HETATM   21  C   UNL     1     -42.605  59.054 -56.388  1.00  0.00     0.012 A 
HETATM   22  C   UNL     1     -42.094  60.351 -56.479  1.00  0.00     0.043 A 
HETATM   23  C   UNL     1     -41.612  60.812 -57.694  1.00  0.00     0.116 A 
HETATM   24  F   UNL     1     -41.126  62.056 -57.783  1.00  0.00    -0.206 F 
HETATM   25  C   UNL     1     -41.632  60.004 -58.823  1.00  0.00     0.043 A 
HETATM   26  C   UNL     1     -42.142  58.706 -58.736  1.00  0.00     0.012 A 
ENDBRANCH   1  20
TORSDOF 4
ENDMDL
MODEL 7
REMARK VINA RESULT:      -7.3      2.863      6.263
REMARK  4 active torsions:
REMARK  status: ('A' for Active; 'I' for Inactive)
REMARK    1  A    between atoms: C_5  and  C_6 
REMARK    2  A    between atoms: C_6  and  N_7 
REMARK    3  A    between atoms: C_6  and  C_18 
REMARK    4  A    between atoms: N_7  and  C_8 
ROOT
HETATM    1  C   UNL     1     -42.817  56.543 -54.896  1.00  0.00     0.288 C 
ENDROOT
BRANCH   1   2
HETATM    2  C   UNL     1     -43.319  57.769 -54.152  1.00  0.00    -0.003 A 
HETATM    3  C   UNL     1     -42.499  58.583 -53.375  1.00  0.00     0.126 A 
HETATM    4  N   UNL     1     -42.920  59.669 -52.690  1.00  0.00    -0.272 NA
HETATM    5  C   UNL     1     -44.221  60.003 -52.817  1.00  0.00     0.116 A 
HETATM    6  C   UNL     1     -45.122  59.286 -53.586  1.00  0.00     0.020 A 
HETATM    7  C   UNL     1     -44.663  58.156 -54.259  1.00  0.00     0.012 A 
ENDBRANCH   1   2
BRANCH   1   8
HETATM    8  N   UNL     1     -41.527  55.998 -54.427  1.00  0.00     0.101 N 
HETATM    9  H   UNL     1     -41.077  56.697 -53.836  1.00  0.00     0.317 HD
BRANCH   8  10
HETATM   10  C   UNL     1     -41.544  54.674 -53.801  1.00  0.00     0.225 C 
HETATM   11  C   UNL     1     -40.824  53.608 -54.652  1.00  0.00     0.069 C 
HETATM   12  C   UNL     1     -40.756  52.300 -53.885  1.00  0.00     0.190 C 
HETATM   13  N   UNL     1     -40.020  52.535 -52.595  1.00  0.00    -0.067 N 
HETATM   14  C   UNL     1     -39.935  51.182 -54.494  1.00  0.00     0.035 C 
HETATM   15  H   UNL     1     -39.113  52.971 -52.821  1.00  0.00     0.280 HD
HETATM   16  C   UNL     1     -40.747  53.473 -51.688  1.00  0.00     0.237 C 
HETATM   17  C   UNL     1     -39.703  51.164 -52.056  1.00  0.00     0.235 C 
HETATM   18  C   UNL     1     -40.883  54.810 -52.409  1.00  0.00     0.063 C 
HETATM   19  C   UNL     1     -39.658  50.273 -53.298  1.00  0.00     0.030 C 
ENDBRANCH   8  10
ENDBRANCH   1   8
BRANCH   1  20
HETATM   20  C   UNL     1     -42.749  56.731 -56.413  1.00  0.00    -0.021 A 
HETATM   21  C   UNL     1     -43.050  55.644 -57.256  1.00  0.00     0.012 A 
HETATM   22  C   UNL     1     -42.973  55.771 -58.644  1.00  0.00     0.043 A 
HETATM   23  C   UNL     1     -42.586  56.981 -59.200  1.00  0.00     0.116 A 
HETATM   24  F   UNL     1     -42.509  57.102 -60.531  1.00  0.00    -0.206 F 
HETATM   25  C   UNL     1     -42.270  58.067 -58.395  1.00  0.00     0.043 A 
HETATM   26  C   UNL     1     -42.345  57.943 -57.006  1.00  0.00     0.012 A 
ENDBRANCH   1  20
TORSDOF 4
ENDMDL
MODEL 8
REMARK VINA RESULT:      -7.0      3.498      7.114
REMARK  4 active torsions:
REMARK  status: ('A' for Active; 'I' for Inactive)
REMARK    1  A    between atoms: C_5  and  C_6 
REMARK    2  A    between atoms: C_6  and  N_7 
REMARK    3  A    between atoms: C_6  and  C_18 
REMARK    4  A    between atoms: N_7  and  C_8 
ROOT
HETATM    1  C   UNL     1     -43.274  57.681 -57.501  1.00  0.00     0.288 C 
ENDROOT
BRANCH   1   2
HETATM    2  C   UNL     1     -42.588  58.946 -57.988  1.00  0.00    -0.003 A 
HETATM    3  C   UNL     1     -41.914  59.825 -57.144  1.00  0.00     0.126 A 
HETATM    4  N   UNL     1     -41.309  60.965 -57.546  1.00  0.00    -0.272 NA
HETATM    5  C   UNL     1     -41.325  61.230 -58.869  1.00  0.00     0.116 A 
HETATM    6  C   UNL     1     -41.937  60.413 -59.804  1.00  0.00     0.020 A 
HETATM    7  C   UNL     1     -42.576  59.259 -59.355  1.00  0.00     0.012 A 
ENDBRANCH   1   2
BRANCH   1   8
HETATM    8  N   UNL     1     -42.388  56.521 -57.277  1.00  0.00     0.101 N 
HETATM    9  H   UNL     1     -41.525  56.669 -57.800  1.00  0.00     0.317 HD
BRANCH   8  10
HETATM   10  C   UNL     1     -42.134  56.127 -55.890  1.00  0.00     0.225 C 
HETATM   11  C   UNL     1     -43.003  56.909 -54.883  1.00  0.00     0.069 C 
HETATM   12  C   UNL     1     -42.792  56.355 -53.486  1.00  0.00     0.190 C 
HETATM   13  N   UNL     1     -43.160  54.897 -53.484  1.00  0.00    -0.067 N 
HETATM   14  C   UNL     1     -43.690  56.888 -52.388  1.00  0.00     0.035 C 
HETATM   15  H   UNL     1     -44.116  54.810 -53.863  1.00  0.00     0.280 HD
HETATM   16  C   UNL     1     -42.262  54.083 -54.357  1.00  0.00     0.237 C 
HETATM   17  C   UNL     1     -43.248  54.505 -52.032  1.00  0.00     0.235 C 
HETATM   18  C   UNL     1     -42.397  54.606 -55.784  1.00  0.00     0.063 C 
HETATM   19  C   UNL     1     -43.584  55.811 -51.309  1.00  0.00     0.030 C 
ENDBRANCH   8  10
ENDBRANCH   1   8
BRANCH   1  20
HETATM   20  C   UNL     1     -44.447  57.242 -58.380  1.00  0.00    -0.021 A 
HETATM   21  C   UNL     1     -45.692  57.885 -58.238  1.00  0.00     0.012 A 
HETATM   22  C   UNL     1     -46.792  57.494 -59.005  1.00  0.00     0.043 A 
HETATM   23  C   UNL     1     -46.659  56.453 -59.911  1.00  0.00     0.116 A 
HETATM   24  F   UNL     1     -47.713  56.075 -60.644  1.00  0.00    -0.206 F 
HETATM   25  C   UNL     1     -45.447  55.791 -60.064  1.00  0.00     0.043 A 
HETATM   26  C   UNL     1     -44.345  56.179 -59.298  1.00  0.00     0.012 A 
ENDBRANCH   1  20
TORSDOF 4
ENDMDL
MODEL 9
REMARK VINA RESULT:      -7.0     16.169     18.138
REMARK  4 active torsions:
REMARK  status: ('A' for Active; 'I' for Inactive)
REMARK    1  A    between atoms: C_5  and  C_6 
REMARK    2  A    between atoms: C_6  and  N_7 
REMARK    3  A    between atoms: C_6  and  C_18 
REMARK    4  A    between atoms: N_7  and  C_8 
ROOT
HETATM    1  C   UNL     1     -33.655  40.167 -54.204  1.00  0.00     0.288 C 
ENDROOT
BRANCH   1   2
HETATM    2  C   UNL     1     -32.657  39.434 -55.085  1.00  0.00    -0.003 A 
HETATM    3  C   UNL     1     -32.673  38.054 -55.274  1.00  0.00     0.126 A 
HETATM    4  N   UNL     1     -31.789  37.374 -56.038  1.00  0.00    -0.272 NA
HETATM    5  C   UNL     1     -30.863  38.102 -56.695  1.00  0.00     0.116 A 
HETATM    6  C   UNL     1     -30.771  39.480 -56.606  1.00  0.00     0.020 A 
HETATM    7  C   UNL     1     -31.679  40.151 -55.790  1.00  0.00     0.012 A 
ENDBRANCH   1   2
BRANCH   1   8
HETATM    8  N   UNL     1     -33.993  41.540 -54.631  1.00  0.00     0.101 N 
HETATM    9  H   UNL     1     -33.195  41.927 -55.135  1.00  0.00     0.317 HD
BRANCH   8  10
HETATM   10  C   UNL     1     -35.250  41.727 -55.359  1.00  0.00     0.225 C 
HETATM   11  C   UNL     1     -35.076  41.587 -56.886  1.00  0.00     0.069 C 
HETATM   12  C   UNL     1     -36.432  41.652 -57.564  1.00  0.00     0.190 C 
HETATM   13  N   UNL     1     -37.294  40.544 -57.026  1.00  0.00    -0.067 N 
HETATM   14  C   UNL     1     -36.476  41.365 -59.051  1.00  0.00     0.035 C 
HETATM   15  H   UNL     1     -36.778  39.658 -57.136  1.00  0.00     0.280 HD
HETATM   16  C   UNL     1     -37.587  40.708 -55.570  1.00  0.00     0.237 C 
HETATM   17  C   UNL     1     -38.474  40.461 -57.960  1.00  0.00     0.235 C 
HETATM   18  C   UNL     1     -36.258  40.685 -54.820  1.00  0.00     0.063 C 
HETATM   19  C   UNL     1     -37.944  41.009 -59.285  1.00  0.00     0.030 C 
ENDBRANCH   8  10
ENDBRANCH   1   8
BRANCH   1  20
HETATM   20  C   UNL     1     -33.262  40.195 -52.725  1.00  0.00    -0.021 A 
HETATM   21  C   UNL     1     -34.197  40.647 -51.773  1.00  0.00     0.012 A 
HETATM   22  C   UNL     1     -33.865  40.711 -50.418  1.00  0.00     0.043 A 
HETATM   23  C   UNL     1     -32.596  40.335 -50.006  1.00  0.00     0.116 A 
HETATM   24  F   UNL     1     -32.277  40.399 -48.707  1.00  0.00    -0.206 F 
HETATM   25  C   UNL     1     -31.649  39.897 -50.922  1.00  0.00     0.043 A 
HETATM   26  C   UNL     1     -31.977  39.832 -52.279  1.00  0.00     0.012 A 
ENDBRANCH   1  20
TORSDOF 4
ENDMDL
MODEL 10
REMARK VINA RESULT:      -7.0      2.419      4.638
REMARK  4 active torsions:
REMARK  status: ('A' for Active; 'I' for Inactive)
REMARK    1  A    between atoms: C_5  and  C_6 
REMARK    2  A    between atoms: C_6  and  N_7 
REMARK    3  A    between atoms: C_6  and  C_18 
REMARK    4  A    between atoms: N_7  and  C_8 
ROOT
HETATM    1  C   UNL     1     -41.903  55.755 -54.265  1.00  0.00     0.288 C 
ENDROOT
BRANCH   1   2
HETATM    2  C   UNL     1     -41.223  54.494 -53.757  1.00  0.00    -0.003 A 
HETATM    3  C   UNL     1     -40.960  54.255 -52.411  1.00  0.00     0.126 A 
HETATM    4  N   UNL     1     -40.344  53.152 -51.932  1.00  0.00    -0.272 NA
HETATM    5  C   UNL     1     -40.010  52.201 -52.830  1.00  0.00     0.116 A 
HETATM    6  C   UNL     1     -40.250  52.317 -54.188  1.00  0.00     0.020 A 
HETATM    7  C   UNL     1     -40.863  53.478 -54.654  1.00  0.00     0.012 A 
ENDBRANCH   1   2
BRANCH   1   8
HETATM    8  N   UNL     1     -41.539  56.166 -55.635  1.00  0.00     0.101 N 
HETATM    9  H   UNL     1     -40.997  55.416 -56.065  1.00  0.00     0.317 HD
BRANCH   8  10
HETATM   10  C   UNL     1     -42.619  56.636 -56.506  1.00  0.00     0.225 C 
HETATM   11  C   UNL     1     -42.285  57.978 -57.191  1.00  0.00     0.069 C 
HETATM   12  C   UNL     1     -43.380  58.333 -58.181  1.00  0.00     0.190 C 
HETATM   13  N   UNL     1     -43.487  57.231 -59.197  1.00  0.00    -0.067 N 
HETATM   14  C   UNL     1     -43.143  59.535 -59.072  1.00  0.00     0.035 C 
HETATM   15  H   UNL     1     -42.550  57.077 -59.600  1.00  0.00     0.280 HD
HETATM   16  C   UNL     1     -43.926  55.938 -58.591  1.00  0.00     0.237 C 
HETATM   17  C   UNL     1     -44.334  57.791 -60.311  1.00  0.00     0.235 C 
HETATM   18  C   UNL     1     -42.883  55.530 -57.555  1.00  0.00     0.063 C 
HETATM   19  C   UNL     1     -44.120  59.302 -60.223  1.00  0.00     0.030 C 
ENDBRANCH   8  10
ENDBRANCH   1   8
BRANCH   1  20
HETATM   20  C   UNL     1     -41.741  56.956 -53.331  1.00  0.00    -0.021 A 
HETATM   21  C   UNL     1     -42.745  57.228 -52.380  1.00  0.00     0.012 A 
HETATM   22  C   UNL     1     -42.644  58.331 -51.529  1.00  0.00     0.043 A 
HETATM   23  C   UNL     1     -41.548  59.174 -51.627  1.00  0.00     0.116 A 
HETATM   24  F   UNL     1     -41.453  60.232 -50.813  1.00  0.00    -0.206 F 
HETATM   25  C   UNL     1     -40.549  58.939 -52.563  1.00  0.00     0.043 A 
HETATM   26  C   UNL     1     -40.646  57.837 -53.417  1.00  0.00     0.012 A 
ENDBRANCH   1  20
TORSDOF 4
ENDMDL
