MODEL 1
REMARK VINA RESULT:      -8.5      0.000      0.000
REMARK  6 active torsions:
REMARK  status: ('A' for Active; 'I' for Inactive)
REMARK    1  A    between atoms: C_2  and  O_3 
REMARK    2  A    between atoms: O_3  and  C_4 
REMARK    3  A    between atoms: C_5  and  C_6 
REMARK    4  A    between atoms: C_10  and  C_11 
REMARK       I    between atoms: C_11  and  N_12 
REMARK    5  A    between atoms: N_12  and  N_13 
REMARK    6  A    between atoms: C_14  and  C_15 
ROOT
HETATM    1  C   UNL     1     -42.847  55.976 -55.733  1.00  0.00     0.289 C 
HETATM    2  N   UNL     1     -42.528  56.517 -56.970  1.00  0.00    -0.242 N 
HETATM    3  O   UNL     1     -43.825  56.297 -55.065  1.00  0.00    -0.264 OA
HETATM    4  H   UNL     1     -41.695  56.217 -57.456  1.00  0.00     0.192 HD
ENDROOT
BRANCH   1   5
HETATM    5  C   UNL     1     -41.920  54.976 -55.265  1.00  0.00     0.121 A 
HETATM    6  N   UNL     1     -40.592  55.035 -55.579  1.00  0.00    -0.272 N 
HETATM    7  N   UNL     1     -39.857  54.042 -55.057  1.00  0.00    -0.174 NA
HETATM    8  H   UNL     1     -40.134  55.743 -56.145  1.00  0.00     0.189 HD
HETATM    9  C   UNL     1     -40.739  53.280 -54.386  1.00  0.00     0.092 A 
HETATM   10  C   UNL     1     -42.042  53.846 -54.482  1.00  0.00     0.071 A 
BRANCH   9  11
HETATM   11  C   UNL     1     -40.313  52.078 -53.652  1.00  0.00     0.028 A 
HETATM   12  C   UNL     1     -39.934  52.104 -52.292  1.00  0.00     0.081 A 
HETATM   13  C   UNL     1     -39.515  50.915 -51.673  1.00  0.00     0.038 A 
HETATM   14  C   UNL     1     -39.487  49.711 -52.381  1.00  0.00     0.003 A 
HETATM   15  C   UNL     1     -39.876  49.676 -53.714  1.00  0.00     0.001 A 
HETATM   16  C   UNL     1     -40.286  50.852 -54.343  1.00  0.00     0.017 A 
BRANCH  12  17
HETATM   17  O   UNL     1     -39.995  53.310 -51.639  1.00  0.00    -0.351 OA
BRANCH  17  18
HETATM   18  C   UNL     1     -40.886  53.425 -50.531  1.00  0.00     0.171 C 
HETATM   19  C   UNL     1     -40.091  53.960 -49.352  1.00  0.00     0.034 C 
ENDBRANCH  17  18
ENDBRANCH  12  17
ENDBRANCH   9  11
ENDBRANCH   1   5
BRANCH   2  20
HETATM   20  N   UNL     1     -43.342  57.454 -57.546  1.00  0.00    -0.183 NA
HETATM   21  C   UNL     1     -44.052  57.040 -58.545  1.00  0.00     0.152 C 
BRANCH  21  22
HETATM   22  C   UNL     1     -44.955  57.952 -59.213  1.00  0.00     0.011 A 
HETATM   23  C   UNL     1     -46.035  57.619 -60.092  1.00  0.00     0.004 A 
HETATM   24  C   UNL     1     -46.633  58.817 -60.489  1.00  0.00     0.043 A 
HETATM   25  C   UNL     1     -46.567  56.409 -60.589  1.00  0.00     0.014 A 
HETATM   26  C   UNL     1     -47.732  58.867 -61.356  1.00  0.00     0.030 A 
HETATM   27  N   UNL     1     -45.942  59.838 -59.880  1.00  0.00    -0.364 N 
HETATM   28  C   UNL     1     -48.238  57.654 -61.832  1.00  0.00     0.002 A 
HETATM   29  C   UNL     1     -47.665  56.441 -61.456  1.00  0.00     0.001 A 
HETATM   30  H   UNL     1     -46.155  60.821 -59.986  1.00  0.00     0.165 HD
HETATM   31  C   UNL     1     -44.932  59.331 -59.111  1.00  0.00     0.102 A 
ENDBRANCH  21  22
ENDBRANCH   2  20
TORSDOF 6
ENDMDL
MODEL 2
REMARK VINA RESULT:      -8.5      1.781      2.610
REMARK  6 active torsions:
REMARK  status: ('A' for Active; 'I' for Inactive)
REMARK    1  A    between atoms: C_2  and  O_3 
REMARK    2  A    between atoms: O_3  and  C_4 
REMARK    3  A    between atoms: C_5  and  C_6 
REMARK    4  A    between atoms: C_10  and  C_11 
REMARK       I    between atoms: C_11  and  N_12 
REMARK    5  A    between atoms: N_12  and  N_13 
REMARK    6  A    between atoms: C_14  and  C_15 
ROOT
HETATM    1  C   UNL     1     -42.770  55.699 -56.126  1.00  0.00     0.289 C 
HETATM    2  N   UNL     1     -42.599  55.812 -57.498  1.00  0.00    -0.242 N 
HETATM    3  O   UNL     1     -43.624  56.299 -55.480  1.00  0.00    -0.264 OA
HETATM    4  H   UNL     1     -41.862  55.300 -57.961  1.00  0.00     0.192 HD
ENDROOT
BRANCH   1   5
HETATM    5  C   UNL     1     -41.846  54.799 -55.483  1.00  0.00     0.121 A 
HETATM    6  N   UNL     1     -40.501  55.034 -55.494  1.00  0.00    -0.272 N 
HETATM    7  N   UNL     1     -39.774  54.115 -54.841  1.00  0.00    -0.174 NA
HETATM    8  H   UNL     1     -40.026  55.819 -55.930  1.00  0.00     0.189 HD
HETATM    9  C   UNL     1     -40.675  53.220 -54.398  1.00  0.00     0.092 A 
HETATM   10  C   UNL     1     -41.988  53.626 -54.769  1.00  0.00     0.071 A 
BRANCH   9  11
HETATM   11  C   UNL     1     -40.268  52.044 -53.611  1.00  0.00     0.028 A 
HETATM   12  C   UNL     1     -39.960  52.112 -52.235  1.00  0.00     0.081 A 
HETATM   13  C   UNL     1     -39.553  50.947 -51.564  1.00  0.00     0.038 A 
HETATM   14  C   UNL     1     -39.467  49.726 -52.237  1.00  0.00     0.003 A 
HETATM   15  C   UNL     1     -39.786  49.651 -53.587  1.00  0.00     0.001 A 
HETATM   16  C   UNL     1     -40.183  50.802 -54.267  1.00  0.00     0.017 A 
BRANCH  12  17
HETATM   17  O   UNL     1     -40.075  53.333 -51.618  1.00  0.00    -0.351 OA
BRANCH  17  18
HETATM   18  C   UNL     1     -41.000  53.451 -50.539  1.00  0.00     0.171 C 
HETATM   19  C   UNL     1     -42.315  53.955 -51.109  1.00  0.00     0.034 C 
ENDBRANCH  17  18
ENDBRANCH  12  17
ENDBRANCH   9  11
ENDBRANCH   1   5
BRANCH   2  20
HETATM   20  N   UNL     1     -43.430  56.610 -58.235  1.00  0.00    -0.183 NA
HETATM   21  C   UNL     1     -42.845  57.400 -59.076  1.00  0.00     0.152 C 
BRANCH  21  22
HETATM   22  C   UNL     1     -43.639  58.274 -59.913  1.00  0.00     0.011 A 
HETATM   23  C   UNL     1     -43.182  59.392 -60.683  1.00  0.00     0.004 A 
HETATM   24  C   UNL     1     -44.293  59.930 -61.336  1.00  0.00     0.043 A 
HETATM   25  C   UNL     1     -41.924  60.001 -60.890  1.00  0.00     0.014 A 
HETATM   26  C   UNL     1     -44.211  61.042 -62.184  1.00  0.00     0.030 A 
HETATM   27  N   UNL     1     -45.383  59.172 -60.976  1.00  0.00    -0.364 N 
HETATM   28  C   UNL     1     -42.954  61.624 -62.371  1.00  0.00     0.002 A 
HETATM   29  C   UNL     1     -41.826  61.113 -61.734  1.00  0.00     0.001 A 
HETATM   30  H   UNL     1     -46.327  59.331 -61.300  1.00  0.00     0.165 HD
HETATM   31  C   UNL     1     -45.002  58.176 -60.122  1.00  0.00     0.102 A 
ENDBRANCH  21  22
ENDBRANCH   2  20
TORSDOF 6
ENDMDL
MODEL 3
REMARK VINA RESULT:      -8.2      6.429      8.239
REMARK  6 active torsions:
REMARK  status: ('A' for Active; 'I' for Inactive)
REMARK    1  A    between atoms: C_2  and  O_3 
REMARK    2  A    between atoms: O_3  and  C_4 
REMARK    3  A    between atoms: C_5  and  C_6 
REMARK    4  A    between atoms: C_10  and  C_11 
REMARK       I    between atoms: C_11  and  N_12 
REMARK    5  A    between atoms: N_12  and  N_13 
REMARK    6  A    between atoms: C_14  and  C_15 
ROOT
HETATM    1  C   UNL     1     -44.133  57.238 -51.270  1.00  0.00     0.289 C 
HETATM    2  N   UNL     1     -44.007  58.580 -51.599  1.00  0.00    -0.242 N 
HETATM    3  O   UNL     1     -45.028  56.776 -50.569  1.00  0.00    -0.264 OA
HETATM    4  H   UNL     1     -43.233  58.892 -52.168  1.00  0.00     0.192 HD
ENDROOT
BRANCH   1   5
HETATM    5  C   UNL     1     -43.108  56.390 -51.826  1.00  0.00     0.121 A 
HETATM    6  N   UNL     1     -42.101  56.902 -52.593  1.00  0.00    -0.272 N 
HETATM    7  N   UNL     1     -41.217  55.990 -53.023  1.00  0.00    -0.174 NA
HETATM    8  H   UNL     1     -41.968  57.876 -52.846  1.00  0.00     0.189 HD
HETATM    9  C   UNL     1     -41.670  54.820 -52.539  1.00  0.00     0.092 A 
HETATM   10  C   UNL     1     -42.848  55.036 -51.768  1.00  0.00     0.071 A 
BRANCH   9  11
HETATM   11  C   UNL     1     -40.956  53.558 -52.787  1.00  0.00     0.028 A 
HETATM   12  C   UNL     1     -40.063  52.986 -51.855  1.00  0.00     0.081 A 
HETATM   13  C   UNL     1     -39.401  51.791 -52.182  1.00  0.00     0.038 A 
HETATM   14  C   UNL     1     -39.630  51.157 -53.406  1.00  0.00     0.003 A 
HETATM   15  C   UNL     1     -40.522  51.706 -54.319  1.00  0.00     0.001 A 
HETATM   16  C   UNL     1     -41.179  52.897 -54.010  1.00  0.00     0.017 A 
BRANCH  12  17
HETATM   17  O   UNL     1     -39.886  53.641 -50.662  1.00  0.00    -0.351 OA
BRANCH  17  18
HETATM   18  C   UNL     1     -40.532  53.110 -49.506  1.00  0.00     0.171 C 
HETATM   19  C   UNL     1     -40.251  54.051 -48.347  1.00  0.00     0.034 C 
ENDBRANCH  17  18
ENDBRANCH  12  17
ENDBRANCH   9  11
ENDBRANCH   1   5
BRANCH   2  20
HETATM   20  N   UNL     1     -44.931  59.489 -51.163  1.00  0.00    -0.183 NA
HETATM   21  C   UNL     1     -44.535  60.279 -50.218  1.00  0.00     0.152 C 
BRANCH  21  22
HETATM   22  C   UNL     1     -45.436  61.286 -49.698  1.00  0.00     0.011 A 
HETATM   23  C   UNL     1     -45.560  61.723 -48.340  1.00  0.00     0.004 A 
HETATM   24  C   UNL     1     -46.546  62.712 -48.310  1.00  0.00     0.043 A 
HETATM   25  C   UNL     1     -44.926  61.374 -47.128  1.00  0.00     0.014 A 
HETATM   26  C   UNL     1     -46.929  63.368 -47.133  1.00  0.00     0.030 A 
HETATM   27  N   UNL     1     -47.005  62.868 -49.597  1.00  0.00    -0.364 N 
HETATM   28  C   UNL     1     -46.284  63.002 -45.948  1.00  0.00     0.002 A 
HETATM   29  C   UNL     1     -45.297  62.019 -45.942  1.00  0.00     0.001 A 
HETATM   30  H   UNL     1     -47.725  63.520 -49.876  1.00  0.00     0.165 HD
HETATM   31  C   UNL     1     -46.346  62.017 -50.439  1.00  0.00     0.102 A 
ENDBRANCH  21  22
ENDBRANCH   2  20
TORSDOF 6
ENDMDL
MODEL 4
REMARK VINA RESULT:      -8.1      3.168      4.855
REMARK  6 active torsions:
REMARK  status: ('A' for Active; 'I' for Inactive)
REMARK    1  A    between atoms: C_2  and  O_3 
REMARK    2  A    between atoms: O_3  and  C_4 
REMARK    3  A    between atoms: C_5  and  C_6 
REMARK    4  A    between atoms: C_10  and  C_11 
REMARK       I    between atoms: C_11  and  N_12 
REMARK    5  A    between atoms: N_12  and  N_13 
REMARK    6  A    between atoms: C_14  and  C_15 
ROOT
HETATM    1  C   UNL     1     -42.726  56.086 -57.122  1.00  0.00     0.289 C 
HETATM    2  N   UNL     1     -42.156  57.343 -57.266  1.00  0.00    -0.242 N 
HETATM    3  O   UNL     1     -43.330  55.492 -58.010  1.00  0.00    -0.264 OA
HETATM    4  H   UNL     1     -41.687  57.781 -56.485  1.00  0.00     0.192 HD
ENDROOT
BRANCH   1   5
HETATM    5  C   UNL     1     -42.556  55.503 -55.815  1.00  0.00     0.121 A 
HETATM    6  N   UNL     1     -43.587  54.873 -55.179  1.00  0.00    -0.272 N 
HETATM    7  N   UNL     1     -43.269  54.368 -53.978  1.00  0.00    -0.174 NA
HETATM    8  H   UNL     1     -44.533  54.753 -55.529  1.00  0.00     0.189 HD
HETATM    9  C   UNL     1     -41.978  54.698 -53.800  1.00  0.00     0.092 A 
HETATM   10  C   UNL     1     -41.492  55.397 -54.942  1.00  0.00     0.071 A 
BRANCH   9  11
HETATM   11  C   UNL     1     -41.244  54.307 -52.585  1.00  0.00     0.028 A 
HETATM   12  C   UNL     1     -40.492  53.115 -52.493  1.00  0.00     0.081 A 
HETATM   13  C   UNL     1     -39.844  52.804 -51.288  1.00  0.00     0.038 A 
HETATM   14  C   UNL     1     -39.921  53.665 -50.190  1.00  0.00     0.003 A 
HETATM   15  C   UNL     1     -40.646  54.847 -50.281  1.00  0.00     0.001 A 
HETATM   16  C   UNL     1     -41.301  55.164 -51.470  1.00  0.00     0.017 A 
BRANCH  12  17
HETATM   17  O   UNL     1     -40.436  52.313 -53.606  1.00  0.00    -0.351 OA
BRANCH  17  18
HETATM   18  C   UNL     1     -39.530  51.211 -53.590  1.00  0.00     0.171 C 
HETATM   19  C   UNL     1     -40.194  50.057 -54.322  1.00  0.00     0.034 C 
ENDBRANCH  17  18
ENDBRANCH  12  17
ENDBRANCH   9  11
ENDBRANCH   1   5
BRANCH   2  20
HETATM   20  N   UNL     1     -42.216  57.997 -58.466  1.00  0.00    -0.183 NA
HETATM   21  C   UNL     1     -42.006  59.273 -58.419  1.00  0.00     0.152 C 
BRANCH  21  22
HETATM   22  C   UNL     1     -42.035  60.052 -59.638  1.00  0.00     0.011 A 
HETATM   23  C   UNL     1     -41.330  61.269 -59.909  1.00  0.00     0.004 A 
HETATM   24  C   UNL     1     -41.653  61.656 -61.211  1.00  0.00     0.043 A 
HETATM   25  C   UNL     1     -40.444  62.083 -59.170  1.00  0.00     0.014 A 
HETATM   26  C   UNL     1     -41.136  62.811 -61.811  1.00  0.00     0.030 A 
HETATM   27  N   UNL     1     -42.522  60.714 -61.712  1.00  0.00    -0.364 N 
HETATM   28  C   UNL     1     -40.260  63.597 -61.057  1.00  0.00     0.002 A 
HETATM   29  C   UNL     1     -39.918  63.241 -59.755  1.00  0.00     0.001 A 
HETATM   30  H   UNL     1     -42.923  60.737 -62.639  1.00  0.00     0.165 HD
HETATM   31  C   UNL     1     -42.758  59.747 -60.776  1.00  0.00     0.102 A 
ENDBRANCH  21  22
ENDBRANCH   2  20
TORSDOF 6
ENDMDL
MODEL 5
REMARK VINA RESULT:      -8.0      2.370     10.422
REMARK  6 active torsions:
REMARK  status: ('A' for Active; 'I' for Inactive)
REMARK    1  A    between atoms: C_2  and  O_3 
REMARK    2  A    between atoms: O_3  and  C_4 
REMARK    3  A    between atoms: C_5  and  C_6 
REMARK    4  A    between atoms: C_10  and  C_11 
REMARK       I    between atoms: C_11  and  N_12 
REMARK    5  A    between atoms: N_12  and  N_13 
REMARK    6  A    between atoms: C_14  and  C_15 
ROOT
HETATM    1  C   UNL     1     -42.586  56.250 -56.330  1.00  0.00     0.289 C 
HETATM    2  N   UNL     1     -42.031  54.979 -56.341  1.00  0.00    -0.242 N 
HETATM    3  O   UNL     1     -43.000  56.819 -55.324  1.00  0.00    -0.264 OA
HETATM    4  H   UNL     1     -41.727  54.566 -57.212  1.00  0.00     0.192 HD
ENDROOT
BRANCH   1   5
HETATM    5  C   UNL     1     -42.650  56.883 -57.624  1.00  0.00     0.121 A 
HETATM    6  N   UNL     1     -42.470  56.170 -58.774  1.00  0.00    -0.272 N 
HETATM    7  N   UNL     1     -42.574  56.896 -59.896  1.00  0.00    -0.174 NA
HETATM    8  H   UNL     1     -42.281  55.174 -58.846  1.00  0.00     0.189 HD
HETATM    9  C   UNL     1     -42.809  58.150 -59.471  1.00  0.00     0.092 A 
HETATM   10  C   UNL     1     -42.880  58.176 -58.049  1.00  0.00     0.071 A 
BRANCH   9  11
HETATM   11  C   UNL     1     -42.999  59.260 -60.418  1.00  0.00     0.028 A 
HETATM   12  C   UNL     1     -44.260  59.609 -60.949  1.00  0.00     0.081 A 
HETATM   13  C   UNL     1     -44.349  60.666 -61.869  1.00  0.00     0.038 A 
HETATM   14  C   UNL     1     -43.211  61.383 -62.249  1.00  0.00     0.003 A 
HETATM   15  C   UNL     1     -41.971  61.056 -61.716  1.00  0.00     0.001 A 
HETATM   16  C   UNL     1     -41.868  60.003 -60.807  1.00  0.00     0.017 A 
BRANCH  12  17
HETATM   17  O   UNL     1     -45.347  58.882 -60.532  1.00  0.00    -0.351 OA
BRANCH  17  18
HETATM   18  C   UNL     1     -46.343  59.553 -59.762  1.00  0.00     0.171 C 
HETATM   19  C   UNL     1     -46.506  58.795 -58.456  1.00  0.00     0.034 C 
ENDBRANCH  17  18
ENDBRANCH  12  17
ENDBRANCH   9  11
ENDBRANCH   1   5
BRANCH   2  20
HETATM   20  N   UNL     1     -41.882  54.278 -55.176  1.00  0.00    -0.183 NA
HETATM   21  C   UNL     1     -40.670  54.183 -54.732  1.00  0.00     0.152 C 
BRANCH  21  22
HETATM   22  C   UNL     1     -40.411  53.473 -53.498  1.00  0.00     0.011 A 
HETATM   23  C   UNL     1     -40.117  52.079 -53.343  1.00  0.00     0.004 A 
HETATM   24  C   UNL     1     -39.931  51.843 -51.979  1.00  0.00     0.043 A 
HETATM   25  C   UNL     1     -39.989  50.992 -54.233  1.00  0.00     0.014 A 
HETATM   26  C   UNL     1     -39.623  50.578 -51.462  1.00  0.00     0.030 A 
HETATM   27  N   UNL     1     -40.107  53.043 -51.330  1.00  0.00    -0.364 N 
HETATM   28  C   UNL     1     -39.502  49.520 -52.367  1.00  0.00     0.002 A 
HETATM   29  C   UNL     1     -39.682  49.721 -53.733  1.00  0.00     0.001 A 
HETATM   30  H   UNL     1     -40.032  53.174 -50.331  1.00  0.00     0.165 HD
HETATM   31  C   UNL     1     -40.396  54.029 -52.233  1.00  0.00     0.102 A 
ENDBRANCH  21  22
ENDBRANCH   2  20
TORSDOF 6
ENDMDL
MODEL 6
REMARK VINA RESULT:      -7.9      3.253      4.534
REMARK  6 active torsions:
REMARK  status: ('A' for Active; 'I' for Inactive)
REMARK    1  A    between atoms: C_2  and  O_3 
REMARK    2  A    between atoms: O_3  and  C_4 
REMARK    3  A    between atoms: C_5  and  C_6 
REMARK    4  A    between atoms: C_10  and  C_11 
REMARK       I    between atoms: C_11  and  N_12 
REMARK    5  A    between atoms: N_12  and  N_13 
REMARK    6  A    between atoms: C_14  and  C_15 
ROOT
HETATM    1  C   UNL     1     -43.134  56.790 -56.953  1.00  0.00     0.289 C 
HETATM    2  N   UNL     1     -42.024  57.251 -57.648  1.00  0.00    -0.242 N 
HETATM    3  O   UNL     1     -44.289  57.137 -57.180  1.00  0.00    -0.264 OA
HETATM    4  H   UNL     1     -41.099  56.934 -57.394  1.00  0.00     0.192 HD
ENDROOT
BRANCH   1   5
HETATM    5  C   UNL     1     -42.831  55.842 -55.910  1.00  0.00     0.121 A 
HETATM    6  N   UNL     1     -43.814  55.311 -55.125  1.00  0.00    -0.272 N 
HETATM    7  N   UNL     1     -43.377  54.433 -54.210  1.00  0.00    -0.174 NA
HETATM    8  H   UNL     1     -44.809  55.511 -55.181  1.00  0.00     0.189 HD
HETATM    9  C   UNL     1     -42.044  54.399 -54.380  1.00  0.00     0.092 A 
HETATM   10  C   UNL     1     -41.667  55.259 -55.451  1.00  0.00     0.071 A 
BRANCH   9  11
HETATM   11  C   UNL     1     -41.186  53.530 -53.559  1.00  0.00     0.028 A 
HETATM   12  C   UNL     1     -40.925  53.778 -52.193  1.00  0.00     0.081 A 
HETATM   13  C   UNL     1     -40.074  52.913 -51.488  1.00  0.00     0.038 A 
HETATM   14  C   UNL     1     -39.499  51.805 -52.116  1.00  0.00     0.003 A 
HETATM   15  C   UNL     1     -39.766  51.546 -53.454  1.00  0.00     0.001 A 
HETATM   16  C   UNL     1     -40.604  52.402 -54.168  1.00  0.00     0.017 A 
BRANCH  12  17
HETATM   17  O   UNL     1     -41.528  54.871 -51.621  1.00  0.00    -0.351 OA
BRANCH  17  18
HETATM   18  C   UNL     1     -40.934  55.424 -50.448  1.00  0.00     0.171 C 
HETATM   19  C   UNL     1     -41.174  56.924 -50.471  1.00  0.00     0.034 C 
ENDBRANCH  17  18
ENDBRANCH  12  17
ENDBRANCH   9  11
ENDBRANCH   1   5
BRANCH   2  20
HETATM   20  N   UNL     1     -42.173  58.130 -58.685  1.00  0.00    -0.183 NA
HETATM   21  C   UNL     1     -41.881  59.362 -58.419  1.00  0.00     0.152 C 
BRANCH  21  22
HETATM   22  C   UNL     1     -41.993  60.367 -59.454  1.00  0.00     0.011 A 
HETATM   23  C   UNL     1     -41.214  61.560 -59.596  1.00  0.00     0.004 A 
HETATM   24  C   UNL     1     -41.666  62.219 -60.742  1.00  0.00     0.043 A 
HETATM   25  C   UNL     1     -40.162  62.146 -58.859  1.00  0.00     0.014 A 
HETATM   26  C   UNL     1     -41.120  63.429 -61.187  1.00  0.00     0.030 A 
HETATM   27  N   UNL     1     -42.681  61.459 -61.275  1.00  0.00    -0.364 N 
HETATM   28  C   UNL     1     -40.080  63.986 -60.438  1.00  0.00     0.002 A 
HETATM   29  C   UNL     1     -39.606  63.357 -59.290  1.00  0.00     0.001 A 
HETATM   30  H   UNL     1     -43.197  61.692 -62.112  1.00  0.00     0.165 HD
HETATM   31  C   UNL     1     -42.886  60.344 -60.510  1.00  0.00     0.102 A 
ENDBRANCH  21  22
ENDBRANCH   2  20
TORSDOF 6
ENDMDL
MODEL 7
REMARK VINA RESULT:      -7.8      2.891     10.127
REMARK  6 active torsions:
REMARK  status: ('A' for Active; 'I' for Inactive)
REMARK    1  A    between atoms: C_2  and  O_3 
REMARK    2  A    between atoms: O_3  and  C_4 
REMARK    3  A    between atoms: C_5  and  C_6 
REMARK    4  A    between atoms: C_10  and  C_11 
REMARK       I    between atoms: C_11  and  N_12 
REMARK    5  A    between atoms: N_12  and  N_13 
REMARK    6  A    between atoms: C_14  and  C_15 
ROOT
HETATM    1  C   UNL     1     -42.876  55.511 -56.181  1.00  0.00     0.289 C 
HETATM    2  N   UNL     1     -42.187  55.932 -55.053  1.00  0.00    -0.242 N 
HETATM    3  O   UNL     1     -43.285  54.367 -56.358  1.00  0.00    -0.264 OA
HETATM    4  H   UNL     1     -41.865  56.887 -54.982  1.00  0.00     0.192 HD
ENDROOT
BRANCH   1   5
HETATM    5  C   UNL     1     -43.089  56.540 -57.167  1.00  0.00     0.121 A 
HETATM    6  N   UNL     1     -44.232  56.585 -57.913  1.00  0.00    -0.272 N 
HETATM    7  N   UNL     1     -44.288  57.610 -58.776  1.00  0.00    -0.174 NA
HETATM    8  H   UNL     1     -45.013  55.937 -57.865  1.00  0.00     0.189 HD
HETATM    9  C   UNL     1     -43.123  58.260 -58.611  1.00  0.00     0.092 A 
HETATM   10  C   UNL     1     -42.351  57.625 -57.596  1.00  0.00     0.071 A 
BRANCH   9  11
HETATM   11  C   UNL     1     -42.802  59.471 -59.383  1.00  0.00     0.028 A 
HETATM   12  C   UNL     1     -43.152  60.770 -58.954  1.00  0.00     0.081 A 
HETATM   13  C   UNL     1     -42.832  61.870 -59.764  1.00  0.00     0.038 A 
HETATM   14  C   UNL     1     -42.159  61.696 -60.976  1.00  0.00     0.003 A 
HETATM   15  C   UNL     1     -41.797  60.422 -61.395  1.00  0.00     0.001 A 
HETATM   16  C   UNL     1     -42.117  59.320 -60.603  1.00  0.00     0.017 A 
BRANCH  12  17
HETATM   17  O   UNL     1     -43.798  60.887 -57.748  1.00  0.00    -0.351 OA
BRANCH  17  18
HETATM   18  C   UNL     1     -43.811  62.167 -57.118  1.00  0.00     0.171 C 
HETATM   19  C   UNL     1     -43.286  61.992 -55.704  1.00  0.00     0.034 C 
ENDBRANCH  17  18
ENDBRANCH  12  17
ENDBRANCH   9  11
ENDBRANCH   1   5
BRANCH   2  20
HETATM   20  N   UNL     1     -41.946  55.063 -54.024  1.00  0.00    -0.183 NA
HETATM   21  C   UNL     1     -40.787  54.487 -54.041  1.00  0.00     0.152 C 
BRANCH  21  22
HETATM   22  C   UNL     1     -40.431  53.560 -52.988  1.00  0.00     0.011 A 
HETATM   23  C   UNL     1     -40.158  52.160 -53.117  1.00  0.00     0.004 A 
HETATM   24  C   UNL     1     -39.851  51.676 -51.844  1.00  0.00     0.043 A 
HETATM   25  C   UNL     1     -40.141  51.253 -54.199  1.00  0.00     0.014 A 
HETATM   26  C   UNL     1     -39.528  50.335 -51.598  1.00  0.00     0.030 A 
HETATM   27  N   UNL     1     -39.937  52.738 -50.973  1.00  0.00    -0.364 N 
HETATM   28  C   UNL     1     -39.518  49.460 -52.687  1.00  0.00     0.002 A 
HETATM   29  C   UNL     1     -39.820  49.910 -53.970  1.00  0.00     0.001 A 
HETATM   30  H   UNL     1     -39.765  52.682 -49.979  1.00  0.00     0.165 HD
HETATM   31  C   UNL     1     -40.284  53.874 -51.649  1.00  0.00     0.102 A 
ENDBRANCH  21  22
ENDBRANCH   2  20
TORSDOF 6
ENDMDL
MODEL 8
REMARK VINA RESULT:      -7.7      1.957     10.255
REMARK  6 active torsions:
REMARK  status: ('A' for Active; 'I' for Inactive)
REMARK    1  A    between atoms: C_2  and  O_3 
REMARK    2  A    between atoms: O_3  and  C_4 
REMARK    3  A    between atoms: C_5  and  C_6 
REMARK    4  A    between atoms: C_10  and  C_11 
REMARK       I    between atoms: C_11  and  N_12 
REMARK    5  A    between atoms: N_12  and  N_13 
REMARK    6  A    between atoms: C_14  and  C_15 
ROOT
HETATM    1  C   UNL     1     -42.153  56.946 -56.009  1.00  0.00     0.289 C 
HETATM    2  N   UNL     1     -41.699  55.635 -56.013  1.00  0.00    -0.242 N 
HETATM    3  O   UNL     1     -42.015  57.726 -55.071  1.00  0.00    -0.264 OA
HETATM    4  H   UNL     1     -41.864  55.043 -56.815  1.00  0.00     0.192 HD
ENDROOT
BRANCH   1   5
HETATM    5  C   UNL     1     -42.821  57.348 -57.221  1.00  0.00     0.121 A 
HETATM    6  N   UNL     1     -42.140  57.484 -58.397  1.00  0.00    -0.272 N 
HETATM    7  N   UNL     1     -42.903  57.849 -59.438  1.00  0.00    -0.174 NA
HETATM    8  H   UNL     1     -41.147  57.330 -58.543  1.00  0.00     0.189 HD
HETATM    9  C   UNL     1     -44.138  57.982 -58.925  1.00  0.00     0.092 A 
HETATM   10  C   UNL     1     -44.128  57.659 -57.538  1.00  0.00     0.071 A 
BRANCH   9  11
HETATM   11  C   UNL     1     -45.282  58.367 -59.768  1.00  0.00     0.028 A 
HETATM   12  C   UNL     1     -46.291  57.457 -60.154  1.00  0.00     0.081 A 
HETATM   13  C   UNL     1     -47.334  57.900 -60.982  1.00  0.00     0.038 A 
HETATM   14  C   UNL     1     -47.394  59.228 -61.411  1.00  0.00     0.003 A 
HETATM   15  C   UNL     1     -46.414  60.131 -61.020  1.00  0.00     0.001 A 
HETATM   16  C   UNL     1     -45.368  59.702 -60.204  1.00  0.00     0.017 A 
BRANCH  12  17
HETATM   17  O   UNL     1     -46.193  56.168 -59.693  1.00  0.00    -0.351 OA
BRANCH  17  18
HETATM   18  C   UNL     1     -45.627  55.188 -60.561  1.00  0.00     0.171 C 
HETATM   19  C   UNL     1     -44.460  54.544 -59.833  1.00  0.00     0.034 C 
ENDBRANCH  17  18
ENDBRANCH  12  17
ENDBRANCH   9  11
ENDBRANCH   1   5
BRANCH   2  20
HETATM   20  N   UNL     1     -41.020  55.134 -54.936  1.00  0.00    -0.183 NA
HETATM   21  C   UNL     1     -41.674  54.291 -54.205  1.00  0.00     0.152 C 
BRANCH  21  22
HETATM   22  C   UNL     1     -41.037  53.695 -53.050  1.00  0.00     0.011 A 
HETATM   23  C   UNL     1     -41.037  54.188 -51.705  1.00  0.00     0.004 A 
HETATM   24  C   UNL     1     -40.305  53.285 -50.931  1.00  0.00     0.043 A 
HETATM   25  C   UNL     1     -41.592  55.319 -51.068  1.00  0.00     0.014 A 
HETATM   26  C   UNL     1     -40.102  53.454 -49.556  1.00  0.00     0.030 A 
HETATM   27  N   UNL     1     -39.875  52.284 -51.771  1.00  0.00    -0.364 N 
HETATM   28  C   UNL     1     -40.663  54.582 -48.951  1.00  0.00     0.002 A 
HETATM   29  C   UNL     1     -41.398  55.503 -49.694  1.00  0.00     0.001 A 
HETATM   30  H   UNL     1     -39.320  51.490 -51.483  1.00  0.00     0.165 HD
HETATM   31  C   UNL     1     -40.308  52.520 -53.046  1.00  0.00     0.102 A 
ENDBRANCH  21  22
ENDBRANCH   2  20
TORSDOF 6
ENDMDL
MODEL 9
REMARK VINA RESULT:      -7.6      2.047     10.463
REMARK  6 active torsions:
REMARK  status: ('A' for Active; 'I' for Inactive)
REMARK    1  A    between atoms: C_2  and  O_3 
REMARK    2  A    between atoms: O_3  and  C_4 
REMARK    3  A    between atoms: C_5  and  C_6 
REMARK    4  A    between atoms: C_10  and  C_11 
REMARK       I    between atoms: C_11  and  N_12 
REMARK    5  A    between atoms: N_12  and  N_13 
REMARK    6  A    between atoms: C_14  and  C_15 
ROOT
HETATM    1  C   UNL     1     -42.368  56.622 -56.447  1.00  0.00     0.289 C 
HETATM    2  N   UNL     1     -41.793  55.360 -56.503  1.00  0.00    -0.242 N 
HETATM    3  O   UNL     1     -42.326  57.362 -55.469  1.00  0.00    -0.264 OA
HETATM    4  H   UNL     1     -41.883  54.798 -57.337  1.00  0.00     0.192 HD
ENDROOT
BRANCH   1   5
HETATM    5  C   UNL     1     -43.045  57.021 -57.656  1.00  0.00     0.121 A 
HETATM    6  N   UNL     1     -42.548  56.702 -58.887  1.00  0.00    -0.272 N 
HETATM    7  N   UNL     1     -43.297  57.130 -59.913  1.00  0.00    -0.174 NA
HETATM    8  H   UNL     1     -41.697  56.182 -59.081  1.00  0.00     0.189 HD
HETATM    9  C   UNL     1     -44.324  57.781 -59.337  1.00  0.00     0.092 A 
HETATM   10  C   UNL     1     -44.206  57.718 -57.920  1.00  0.00     0.071 A 
BRANCH   9  11
HETATM   11  C   UNL     1     -45.391  58.398 -60.142  1.00  0.00     0.028 A 
HETATM   12  C   UNL     1     -45.279  59.688 -60.705  1.00  0.00     0.081 A 
HETATM   13  C   UNL     1     -46.355  60.213 -61.438  1.00  0.00     0.038 A 
HETATM   14  C   UNL     1     -47.523  59.469 -61.629  1.00  0.00     0.003 A 
HETATM   15  C   UNL     1     -47.631  58.192 -61.092  1.00  0.00     0.001 A 
HETATM   16  C   UNL     1     -46.572  57.662 -60.355  1.00  0.00     0.017 A 
BRANCH  12  17
HETATM   17  O   UNL     1     -44.105  60.370 -60.500  1.00  0.00    -0.351 OA
BRANCH  17  18
HETATM   18  C   UNL     1     -43.200  60.487 -61.597  1.00  0.00     0.171 C 
HETATM   19  C   UNL     1     -41.808  60.693 -61.027  1.00  0.00     0.034 C 
ENDBRANCH  17  18
ENDBRANCH  12  17
ENDBRANCH   9  11
ENDBRANCH   1   5
BRANCH   2  20
HETATM   20  N   UNL     1     -41.093  54.871 -55.434  1.00  0.00    -0.183 NA
HETATM   21  C   UNL     1     -41.729  54.025 -54.690  1.00  0.00     0.152 C 
BRANCH  21  22
HETATM   22  C   UNL     1     -41.070  53.440 -53.542  1.00  0.00     0.011 A 
HETATM   23  C   UNL     1     -40.542  52.113 -53.425  1.00  0.00     0.004 A 
HETATM   24  C   UNL     1     -39.992  51.995 -52.147  1.00  0.00     0.043 A 
HETATM   25  C   UNL     1     -40.477  50.997 -54.287  1.00  0.00     0.014 A 
HETATM   26  C   UNL     1     -39.380  50.821 -51.689  1.00  0.00     0.030 A 
HETATM   27  N   UNL     1     -40.180  53.200 -51.511  1.00  0.00    -0.364 N 
HETATM   28  C   UNL     1     -39.330  49.732 -52.563  1.00  0.00     0.002 A 
HETATM   29  C   UNL     1     -39.870  49.816 -53.844  1.00  0.00     0.001 A 
HETATM   30  H   UNL     1     -39.880  53.405 -50.568  1.00  0.00     0.165 HD
HETATM   31  C   UNL     1     -40.826  54.075 -52.338  1.00  0.00     0.102 A 
ENDBRANCH  21  22
ENDBRANCH   2  20
TORSDOF 6
ENDMDL
MODEL 10
REMARK VINA RESULT:      -7.6      2.211      3.445
REMARK  6 active torsions:
REMARK  status: ('A' for Active; 'I' for Inactive)
REMARK    1  A    between atoms: C_2  and  O_3 
REMARK    2  A    between atoms: O_3  and  C_4 
REMARK    3  A    between atoms: C_5  and  C_6 
REMARK    4  A    between atoms: C_10  and  C_11 
REMARK       I    between atoms: C_11  and  N_12 
REMARK    5  A    between atoms: N_12  and  N_13 
REMARK    6  A    between atoms: C_14  and  C_15 
ROOT
HETATM    1  C   UNL     1     -42.741  55.966 -57.251  1.00  0.00     0.289 C 
HETATM    2  N   UNL     1     -42.091  57.170 -57.480  1.00  0.00    -0.242 N 
HETATM    3  O   UNL     1     -43.409  55.367 -58.088  1.00  0.00    -0.264 OA
HETATM    4  H   UNL     1     -41.572  57.616 -56.737  1.00  0.00     0.192 HD
ENDROOT
BRANCH   1   5
HETATM    5  C   UNL     1     -42.576  55.446 -55.917  1.00  0.00     0.121 A 
HETATM    6  N   UNL     1     -43.623  54.896 -55.234  1.00  0.00    -0.272 N 
HETATM    7  N   UNL     1     -43.308  54.442 -54.012  1.00  0.00    -0.174 NA
HETATM    8  H   UNL     1     -44.578  54.799 -55.564  1.00  0.00     0.189 HD
HETATM    9  C   UNL     1     -42.001  54.724 -53.870  1.00  0.00     0.092 A 
HETATM   10  C   UNL     1     -41.504  55.340 -55.054  1.00  0.00     0.071 A 
BRANCH   9  11
HETATM   11  C   UNL     1     -41.266  54.366 -52.646  1.00  0.00     0.028 A 
HETATM   12  C   UNL     1     -40.516  53.176 -52.522  1.00  0.00     0.081 A 
HETATM   13  C   UNL     1     -39.866  52.898 -51.309  1.00  0.00     0.038 A 
HETATM   14  C   UNL     1     -39.939  53.789 -50.235  1.00  0.00     0.003 A 
HETATM   15  C   UNL     1     -40.662  54.969 -50.358  1.00  0.00     0.001 A 
HETATM   16  C   UNL     1     -41.319  55.254 -51.555  1.00  0.00     0.017 A 
BRANCH  12  17
HETATM   17  O   UNL     1     -40.463  52.343 -53.611  1.00  0.00    -0.351 OA
BRANCH  17  18
HETATM   18  C   UNL     1     -39.523  51.271 -53.588  1.00  0.00     0.171 C 
HETATM   19  C   UNL     1     -40.069  50.158 -54.466  1.00  0.00     0.034 C 
ENDBRANCH  17  18
ENDBRANCH  12  17
ENDBRANCH   9  11
ENDBRANCH   1   5
BRANCH   2  20
HETATM   20  N   UNL     1     -42.139  57.759 -58.714  1.00  0.00    -0.183 NA
HETATM   21  C   UNL     1     -42.897  58.804 -58.805  1.00  0.00     0.152 C 
BRANCH  21  22
HETATM   22  C   UNL     1     -43.004  59.506 -60.066  1.00  0.00     0.011 A 
HETATM   23  C   UNL     1     -44.203  59.884 -60.752  1.00  0.00     0.004 A 
HETATM   24  C   UNL     1     -43.823  60.547 -61.920  1.00  0.00     0.043 A 
HETATM   25  C   UNL     1     -45.582  59.726 -60.490  1.00  0.00     0.014 A 
HETATM   26  C   UNL     1     -44.749  61.060 -62.838  1.00  0.00     0.030 A 
HETATM   27  N   UNL     1     -42.448  60.569 -61.947  1.00  0.00    -0.364 N 
HETATM   28  C   UNL     1     -46.106  60.890 -62.553  1.00  0.00     0.002 A 
HETATM   29  C   UNL     1     -46.520  60.233 -61.397  1.00  0.00     0.001 A 
HETATM   30  H   UNL     1     -41.893  60.988 -62.680  1.00  0.00     0.165 HD
HETATM   31  C   UNL     1     -41.945  59.947 -60.838  1.00  0.00     0.102 A 
ENDBRANCH  21  22
ENDBRANCH   2  20
TORSDOF 6
ENDMDL
