MODEL 1
REMARK VINA RESULT:      -9.0      0.000      0.000
REMARK  8 active torsions:
REMARK  status: ('A' for Active; 'I' for Inactive)
REMARK    1  A    between atoms: C_7  and  C_8 
REMARK       I    between atoms: C_8  and  N_9 
REMARK    2  A    between atoms: N_9  and  N_10 
REMARK    3  A    between atoms: N_10  and  C_11 
REMARK    4  A    between atoms: C_11  and  N_12 
REMARK    5  A    between atoms: N_12  and  C_13 
REMARK    6  A    between atoms: N_15  and  C_16 
REMARK    7  A    between atoms: C_16  and  C_17 
REMARK    8  A    between atoms: C_29  and  C_30 
ROOT
HETATM    1  C   UNL     1     -42.247  58.599 -54.498  1.00  0.00     0.290 C 
HETATM    2  N   UNL     1     -43.291  58.441 -53.609  1.00  0.00    -0.262 N 
HETATM    3  O   UNL     1     -41.222  59.237 -54.269  1.00  0.00    -0.264 OA
HETATM    4  H   UNL     1     -44.042  57.797 -53.859  1.00  0.00     0.190 HD
ENDROOT
BRANCH   2   5
HETATM    5  N   UNL     1     -43.186  58.856 -52.283  1.00  0.00    -0.273 N 
HETATM    6  H   UNL     1     -42.720  59.750 -52.094  1.00  0.00     0.189 HD
BRANCH   5   7
HETATM    7  C   UNL     1     -43.940  58.285 -51.292  1.00  0.00     0.192 C 
HETATM    8  S   UNL     1     -45.392  58.905 -50.723  1.00  0.00    -0.039 SA
BRANCH   7   9
HETATM    9  N   UNL     1     -43.470  57.138 -50.720  1.00  0.00    -0.315 N 
HETATM   10  H   UNL     1     -43.429  57.143 -49.710  1.00  0.00     0.170 HD
BRANCH   9  11
HETATM   11  C   UNL     1     -42.972  56.020 -51.353  1.00  0.00     0.151 A 
HETATM   12  N   UNL     1     -41.860  55.999 -52.093  1.00  0.00    -0.154 NA
HETATM   13  N   UNL     1     -41.746  54.713 -52.489  1.00  0.00    -0.275 N 
HETATM   14  C   UNL     1     -42.760  53.921 -52.032  1.00  0.00     0.116 A 
HETATM   15  C   UNL     1     -43.577  54.744 -51.294  1.00  0.00     0.071 A 
BRANCH  13  16
HETATM   16  C   UNL     1     -40.670  54.314 -53.385  1.00  0.00     0.192 C 
BRANCH  16  17
HETATM   17  C   UNL     1     -40.343  52.855 -53.249  1.00  0.00     0.000 A 
HETATM   18  C   UNL     1     -39.756  52.368 -52.079  1.00  0.00     0.124 A 
HETATM   19  F   UNL     1     -39.493  53.209 -51.068  1.00  0.00    -0.205 F 
HETATM   20  C   UNL     1     -39.442  51.020 -51.931  1.00  0.00     0.043 A 
HETATM   21  C   UNL     1     -39.715  50.133 -52.971  1.00  0.00     0.003 A 
HETATM   22  C   UNL     1     -40.292  50.600 -54.152  1.00  0.00     0.001 A 
HETATM   23  C   UNL     1     -40.600  51.956 -54.294  1.00  0.00     0.012 A 
ENDBRANCH  16  17
ENDBRANCH  13  16
ENDBRANCH   9  11
ENDBRANCH   7   9
ENDBRANCH   5   7
ENDBRANCH   2   5
BRANCH   1  24
HETATM   24  C   UNL     1     -42.503  57.911 -55.774  1.00  0.00     0.150 A 
HETATM   25  N   UNL     1     -42.134  58.454 -56.956  1.00  0.00    -0.165 NA
HETATM   26  N   UNL     1     -42.544  57.555 -57.866  1.00  0.00    -0.240 N 
HETATM   27  C   UNL     1     -43.123  56.442 -57.321  1.00  0.00     0.123 A 
HETATM   28  C   UNL     1     -42.280  57.741 -59.278  1.00  0.00     0.221 C 
HETATM   29  N   UNL     1     -43.537  55.409 -58.087  1.00  0.00    -0.371 N 
HETATM   30  C   UNL     1     -43.127  56.647 -55.965  1.00  0.00     0.089 A 
HETATM   31  C   UNL     1     -43.593  55.517 -59.539  1.00  0.00     0.081 C 
HETATM   32  H   UNL     1     -44.100  54.665 -57.675  1.00  0.00     0.161 HD
HETATM   33  C   UNL     1     -44.994  55.925 -59.980  1.00  0.00     0.032 C 
HETATM   34  C   UNL     1     -42.462  56.422 -60.053  1.00  0.00     0.061 C 
BRANCH  28  35
HETATM   35  C   UNL     1     -43.096  58.885 -59.838  1.00  0.00     0.409 C 
HETATM   36  F   UNL     1     -44.207  59.137 -59.111  1.00  0.00    -0.169 F 
HETATM   37  F   UNL     1     -42.361  60.029 -59.812  1.00  0.00    -0.169 F 
HETATM   38  F   UNL     1     -43.477  58.704 -61.118  1.00  0.00    -0.169 F 
ENDBRANCH  28  35
ENDBRANCH   1  24
TORSDOF 8
ENDMDL
MODEL 2
REMARK VINA RESULT:      -8.6      1.858      2.209
REMARK  8 active torsions:
REMARK  status: ('A' for Active; 'I' for Inactive)
REMARK    1  A    between atoms: C_7  and  C_8 
REMARK       I    between atoms: C_8  and  N_9 
REMARK    2  A    between atoms: N_9  and  N_10 
REMARK    3  A    between atoms: N_10  and  C_11 
REMARK    4  A    between atoms: C_11  and  N_12 
REMARK    5  A    between atoms: N_12  and  C_13 
REMARK    6  A    between atoms: N_15  and  C_16 
REMARK    7  A    between atoms: C_16  and  C_17 
REMARK    8  A    between atoms: C_29  and  C_30 
ROOT
HETATM    1  C   UNL     1     -41.830  57.102 -54.437  1.00  0.00     0.290 C 
HETATM    2  N   UNL     1     -41.737  58.274 -53.714  1.00  0.00    -0.262 N 
HETATM    3  O   UNL     1     -41.174  56.088 -54.217  1.00  0.00    -0.264 OA
HETATM    4  H   UNL     1     -42.410  59.016 -53.909  1.00  0.00     0.190 HD
ENDROOT
BRANCH   2   5
HETATM    5  N   UNL     1     -40.997  58.343 -52.535  1.00  0.00    -0.273 N 
HETATM    6  H   UNL     1     -39.991  58.531 -52.608  1.00  0.00     0.189 HD
BRANCH   5   7
HETATM    7  C   UNL     1     -41.603  58.482 -51.315  1.00  0.00     0.192 C 
HETATM    8  S   UNL     1     -41.430  59.817 -50.311  1.00  0.00    -0.039 SA
BRANCH   7   9
HETATM    9  N   UNL     1     -42.395  57.458 -50.881  1.00  0.00    -0.315 N 
HETATM   10  H   UNL     1     -43.268  57.736 -50.455  1.00  0.00     0.170 HD
BRANCH   9  11
HETATM   11  C   UNL     1     -42.108  56.110 -50.880  1.00  0.00     0.151 A 
HETATM   12  N   UNL     1     -40.875  55.596 -50.825  1.00  0.00    -0.154 NA
HETATM   13  N   UNL     1     -41.070  54.260 -50.824  1.00  0.00    -0.275 N 
HETATM   14  C   UNL     1     -42.388  53.911 -50.887  1.00  0.00     0.116 A 
HETATM   15  C   UNL     1     -43.088  55.093 -50.931  1.00  0.00     0.071 A 
BRANCH  13  16
HETATM   16  C   UNL     1     -39.930  53.354 -50.840  1.00  0.00     0.192 C 
BRANCH  16  17
HETATM   17  C   UNL     1     -39.964  52.437 -52.029  1.00  0.00     0.000 A 
HETATM   18  C   UNL     1     -39.707  51.073 -51.877  1.00  0.00     0.124 A 
HETATM   19  F   UNL     1     -39.438  50.579 -50.659  1.00  0.00    -0.205 F 
HETATM   20  C   UNL     1     -39.731  50.204 -52.964  1.00  0.00     0.043 A 
HETATM   21  C   UNL     1     -40.014  50.701 -54.235  1.00  0.00     0.003 A 
HETATM   22  C   UNL     1     -40.264  52.063 -54.410  1.00  0.00     0.001 A 
HETATM   23  C   UNL     1     -40.235  52.929 -53.314  1.00  0.00     0.012 A 
ENDBRANCH  16  17
ENDBRANCH  13  16
ENDBRANCH   9  11
ENDBRANCH   7   9
ENDBRANCH   5   7
ENDBRANCH   2   5
BRANCH   1  24
HETATM   24  C   UNL     1     -42.819  57.205 -55.524  1.00  0.00     0.150 A 
HETATM   25  N   UNL     1     -42.610  56.624 -56.726  1.00  0.00    -0.165 NA
HETATM   26  N   UNL     1     -43.703  56.950 -57.436  1.00  0.00    -0.240 N 
HETATM   27  C   UNL     1     -44.622  57.679 -56.732  1.00  0.00     0.123 A 
HETATM   28  C   UNL     1     -43.896  56.461 -58.786  1.00  0.00     0.221 C 
HETATM   29  N   UNL     1     -45.807  58.039 -57.271  1.00  0.00    -0.371 N 
HETATM   30  C   UNL     1     -44.073  57.876 -55.491  1.00  0.00     0.089 A 
HETATM   31  C   UNL     1     -46.077  57.865 -58.693  1.00  0.00     0.081 C 
HETATM   32  H   UNL     1     -46.404  58.708 -56.784  1.00  0.00     0.161 HD
HETATM   33  C   UNL     1     -45.761  59.151 -59.447  1.00  0.00     0.032 C 
HETATM   34  C   UNL     1     -45.366  56.610 -59.223  1.00  0.00     0.061 C 
BRANCH  28  35
HETATM   35  C   UNL     1     -42.916  57.103 -59.743  1.00  0.00     0.409 C 
HETATM   36  F   UNL     1     -42.365  58.231 -59.244  1.00  0.00    -0.169 F 
HETATM   37  F   UNL     1     -41.881  56.251 -59.979  1.00  0.00    -0.169 F 
HETATM   38  F   UNL     1     -43.448  57.402 -60.943  1.00  0.00    -0.169 F 
ENDBRANCH  28  35
ENDBRANCH   1  24
TORSDOF 8
ENDMDL
MODEL 3
REMARK VINA RESULT:      -8.3      1.400      2.104
REMARK  8 active torsions:
REMARK  status: ('A' for Active; 'I' for Inactive)
REMARK    1  A    between atoms: C_7  and  C_8 
REMARK       I    between atoms: C_8  and  N_9 
REMARK    2  A    between atoms: N_9  and  N_10 
REMARK    3  A    between atoms: N_10  and  C_11 
REMARK    4  A    between atoms: C_11  and  N_12 
REMARK    5  A    between atoms: N_12  and  C_13 
REMARK    6  A    between atoms: N_15  and  C_16 
REMARK    7  A    between atoms: C_16  and  C_17 
REMARK    8  A    between atoms: C_29  and  C_30 
ROOT
HETATM    1  C   UNL     1     -41.885  59.488 -54.473  1.00  0.00     0.290 C 
HETATM    2  N   UNL     1     -43.051  60.086 -54.037  1.00  0.00    -0.262 N 
HETATM    3  O   UNL     1     -40.793  59.599 -53.923  1.00  0.00    -0.264 OA
HETATM    4  H   UNL     1     -43.924  59.835 -54.502  1.00  0.00     0.190 HD
ENDROOT
BRANCH   2   5
HETATM    5  N   UNL     1     -43.117  60.739 -52.808  1.00  0.00    -0.273 N 
HETATM    6  H   UNL     1     -43.002  61.758 -52.797  1.00  0.00     0.189 HD
BRANCH   5   7
HETATM    7  C   UNL     1     -43.631  60.125 -51.697  1.00  0.00     0.192 C 
HETATM    8  S   UNL     1     -43.875  60.879 -50.218  1.00  0.00    -0.039 SA
BRANCH   7   9
HETATM    9  N   UNL     1     -43.956  58.802 -51.798  1.00  0.00    -0.315 N 
HETATM   10  H   UNL     1     -44.900  58.611 -52.101  1.00  0.00     0.170 HD
BRANCH   9  11
HETATM   11  C   UNL     1     -43.182  57.713 -51.459  1.00  0.00     0.151 A 
HETATM   12  N   UNL     1     -43.595  56.443 -51.510  1.00  0.00    -0.154 NA
HETATM   13  N   UNL     1     -42.519  55.726 -51.121  1.00  0.00    -0.275 N 
HETATM   14  C   UNL     1     -41.440  56.505 -50.813  1.00  0.00     0.116 A 
HETATM   15  C   UNL     1     -41.843  57.803 -51.018  1.00  0.00     0.071 A 
BRANCH  13  16
HETATM   16  C   UNL     1     -42.613  54.280 -50.985  1.00  0.00     0.192 C 
BRANCH  16  17
HETATM   17  C   UNL     1     -41.700  53.569 -51.941  1.00  0.00     0.000 A 
HETATM   18  C   UNL     1     -41.970  53.573 -53.311  1.00  0.00     0.124 A 
HETATM   19  F   UNL     1     -43.048  54.223 -53.774  1.00  0.00    -0.205 F 
HETATM   20  C   UNL     1     -41.139  52.920 -54.217  1.00  0.00     0.043 A 
HETATM   21  C   UNL     1     -40.012  52.244 -53.752  1.00  0.00     0.003 A 
HETATM   22  C   UNL     1     -39.729  52.220 -52.387  1.00  0.00     0.001 A 
HETATM   23  C   UNL     1     -40.570  52.875 -51.483  1.00  0.00     0.012 A 
ENDBRANCH  16  17
ENDBRANCH  13  16
ENDBRANCH   9  11
ENDBRANCH   7   9
ENDBRANCH   5   7
ENDBRANCH   2   5
BRANCH   1  24
HETATM   24  C   UNL     1     -42.100  58.691 -55.692  1.00  0.00     0.150 A 
HETATM   25  N   UNL     1     -42.029  59.247 -56.922  1.00  0.00    -0.165 NA
HETATM   26  N   UNL     1     -42.293  58.226 -57.754  1.00  0.00    -0.240 N 
HETATM   27  C   UNL     1     -42.491  57.032 -57.117  1.00  0.00     0.123 A 
HETATM   28  C   UNL     1     -42.256  58.400 -59.191  1.00  0.00     0.221 C 
HETATM   29  N   UNL     1     -42.706  55.888 -57.803  1.00  0.00    -0.371 N 
HETATM   30  C   UNL     1     -42.388  57.300 -55.776  1.00  0.00     0.089 A 
HETATM   31  C   UNL     1     -42.960  55.902 -59.238  1.00  0.00     0.081 C 
HETATM   32  H   UNL     1     -43.002  55.047 -57.308  1.00  0.00     0.161 HD
HETATM   33  C   UNL     1     -44.461  55.911 -59.505  1.00  0.00     0.032 C 
HETATM   34  C   UNL     1     -42.175  57.039 -59.910  1.00  0.00     0.061 C 
BRANCH  28  35
HETATM   35  C   UNL     1     -43.404  59.263 -59.666  1.00  0.00     0.409 C 
HETATM   36  F   UNL     1     -43.071  60.569 -59.757  1.00  0.00    -0.169 F 
HETATM   37  F   UNL     1     -43.778  58.881 -60.917  1.00  0.00    -0.169 F 
HETATM   38  F   UNL     1     -44.504  59.174 -58.893  1.00  0.00    -0.169 F 
ENDBRANCH  28  35
ENDBRANCH   1  24
TORSDOF 8
ENDMDL
MODEL 4
REMARK VINA RESULT:      -8.3      1.990      2.447
REMARK  8 active torsions:
REMARK  status: ('A' for Active; 'I' for Inactive)
REMARK    1  A    between atoms: C_7  and  C_8 
REMARK       I    between atoms: C_8  and  N_9 
REMARK    2  A    between atoms: N_9  and  N_10 
REMARK    3  A    between atoms: N_10  and  C_11 
REMARK    4  A    between atoms: C_11  and  N_12 
REMARK    5  A    between atoms: N_12  and  C_13 
REMARK    6  A    between atoms: N_15  and  C_16 
REMARK    7  A    between atoms: C_16  and  C_17 
REMARK    8  A    between atoms: C_29  and  C_30 
ROOT
HETATM    1  C   UNL     1     -43.593  59.164 -54.757  1.00  0.00     0.290 C 
HETATM    2  N   UNL     1     -42.347  59.613 -54.369  1.00  0.00    -0.262 N 
HETATM    3  O   UNL     1     -44.635  59.369 -54.140  1.00  0.00    -0.264 OA
HETATM    4  H   UNL     1     -41.566  59.485 -55.015  1.00  0.00     0.190 HD
ENDROOT
BRANCH   2   5
HETATM    5  N   UNL     1     -42.192  60.505 -53.310  1.00  0.00    -0.273 N 
HETATM    6  H   UNL     1     -42.474  61.480 -53.457  1.00  0.00     0.189 HD
BRANCH   5   7
HETATM    7  C   UNL     1     -41.983  60.067 -52.029  1.00  0.00     0.192 C 
HETATM    8  S   UNL     1     -42.757  60.684 -50.673  1.00  0.00    -0.039 SA
BRANCH   7   9
HETATM    9  N   UNL     1     -41.073  59.067 -51.842  1.00  0.00    -0.315 N 
HETATM   10  H   UNL     1     -40.109  59.323 -52.004  1.00  0.00     0.170 HD
BRANCH   9  11
HETATM   11  C   UNL     1     -41.320  57.744 -51.543  1.00  0.00     0.151 A 
HETATM   12  N   UNL     1     -41.877  56.868 -52.385  1.00  0.00    -0.154 NA
HETATM   13  N   UNL     1     -41.903  55.709 -51.691  1.00  0.00    -0.275 N 
HETATM   14  C   UNL     1     -41.388  55.828 -50.432  1.00  0.00     0.116 A 
HETATM   15  C   UNL     1     -41.006  57.142 -50.305  1.00  0.00     0.071 A 
BRANCH  13  16
HETATM   16  C   UNL     1     -42.515  54.522 -52.270  1.00  0.00     0.192 C 
BRANCH  16  17
HETATM   17  C   UNL     1     -41.486  53.513 -52.691  1.00  0.00     0.000 A 
HETATM   18  C   UNL     1     -41.373  53.136 -54.031  1.00  0.00     0.124 A 
HETATM   19  F   UNL     1     -42.183  53.686 -54.947  1.00  0.00    -0.205 F 
HETATM   20  C   UNL     1     -40.428  52.201 -54.444  1.00  0.00     0.043 A 
HETATM   21  C   UNL     1     -39.575  51.623 -53.505  1.00  0.00     0.003 A 
HETATM   22  C   UNL     1     -39.679  51.979 -52.160  1.00  0.00     0.001 A 
HETATM   23  C   UNL     1     -40.632  52.916 -51.752  1.00  0.00     0.012 A 
ENDBRANCH  16  17
ENDBRANCH  13  16
ENDBRANCH   9  11
ENDBRANCH   7   9
ENDBRANCH   5   7
ENDBRANCH   2   5
BRANCH   1  24
HETATM   24  C   UNL     1     -43.535  58.398 -56.013  1.00  0.00     0.150 A 
HETATM   25  N   UNL     1     -44.159  58.828 -57.132  1.00  0.00    -0.165 NA
HETATM   26  N   UNL     1     -43.892  57.873 -58.038  1.00  0.00    -0.240 N 
HETATM   27  C   UNL     1     -43.092  56.870 -57.564  1.00  0.00     0.123 A 
HETATM   28  C   UNL     1     -44.343  57.991 -59.410  1.00  0.00     0.221 C 
HETATM   29  N   UNL     1     -42.673  55.860 -58.357  1.00  0.00    -0.371 N 
HETATM   30  C   UNL     1     -42.853  57.172 -56.248  1.00  0.00     0.089 A 
HETATM   31  C   UNL     1     -43.226  55.664 -59.691  1.00  0.00     0.081 C 
HETATM   32  H   UNL     1     -42.209  55.051 -57.946  1.00  0.00     0.161 HD
HETATM   33  C   UNL     1     -44.371  54.659 -59.640  1.00  0.00     0.032 C 
HETATM   34  C   UNL     1     -43.580  57.017 -60.328  1.00  0.00     0.061 C 
BRANCH  28  35
HETATM   35  C   UNL     1     -45.847  57.850 -59.502  1.00  0.00     0.409 C 
HETATM   36  F   UNL     1     -46.367  57.135 -58.480  1.00  0.00    -0.169 F 
HETATM   37  F   UNL     1     -46.427  59.078 -59.436  1.00  0.00    -0.169 F 
HETATM   38  F   UNL     1     -46.269  57.288 -60.651  1.00  0.00    -0.169 F 
ENDBRANCH  28  35
ENDBRANCH   1  24
TORSDOF 8
ENDMDL
MODEL 5
REMARK VINA RESULT:      -8.1      3.071      7.743
REMARK  8 active torsions:
REMARK  status: ('A' for Active; 'I' for Inactive)
REMARK    1  A    between atoms: C_7  and  C_8 
REMARK       I    between atoms: C_8  and  N_9 
REMARK    2  A    between atoms: N_9  and  N_10 
REMARK    3  A    between atoms: N_10  and  C_11 
REMARK    4  A    between atoms: C_11  and  N_12 
REMARK    5  A    between atoms: N_12  and  C_13 
REMARK    6  A    between atoms: N_15  and  C_16 
REMARK    7  A    between atoms: C_16  and  C_17 
REMARK    8  A    between atoms: C_29  and  C_30 
ROOT
HETATM    1  C   UNL     1     -45.269  58.368 -55.760  1.00  0.00     0.290 C 
HETATM    2  N   UNL     1     -46.365  57.658 -56.207  1.00  0.00    -0.262 N 
HETATM    3  O   UNL     1     -44.962  59.495 -56.139  1.00  0.00    -0.264 OA
HETATM    4  H   UNL     1     -46.592  56.778 -55.742  1.00  0.00     0.190 HD
ENDROOT
BRANCH   2   5
HETATM    5  N   UNL     1     -47.334  58.250 -57.015  1.00  0.00    -0.273 N 
HETATM    6  H   UNL     1     -47.966  58.935 -56.587  1.00  0.00     0.189 HD
BRANCH   5   7
HETATM    7  C   UNL     1     -47.264  58.186 -58.381  1.00  0.00     0.192 C 
HETATM    8  S   UNL     1     -47.508  59.490 -59.410  1.00  0.00    -0.039 SA
BRANCH   7   9
HETATM    9  N   UNL     1     -46.987  56.974 -58.946  1.00  0.00    -0.315 N 
HETATM   10  H   UNL     1     -47.738  56.300 -58.913  1.00  0.00     0.170 HD
BRANCH   9  11
HETATM   11  C   UNL     1     -45.789  56.541 -59.473  1.00  0.00     0.151 A 
HETATM   12  N   UNL     1     -44.605  57.111 -59.234  1.00  0.00    -0.154 NA
HETATM   13  N   UNL     1     -43.724  56.354 -59.924  1.00  0.00    -0.275 N 
HETATM   14  C   UNL     1     -44.317  55.328 -60.601  1.00  0.00     0.116 A 
HETATM   15  C   UNL     1     -45.661  55.427 -60.332  1.00  0.00     0.071 A 
BRANCH  13  16
HETATM   16  C   UNL     1     -42.315  56.719 -59.959  1.00  0.00     0.192 C 
BRANCH  16  17
HETATM   17  C   UNL     1     -42.109  58.180 -59.682  1.00  0.00     0.000 A 
HETATM   18  C   UNL     1     -41.922  58.632 -58.374  1.00  0.00     0.124 A 
HETATM   19  F   UNL     1     -41.918  57.752 -57.361  1.00  0.00    -0.205 F 
HETATM   20  C   UNL     1     -41.732  59.982 -58.093  1.00  0.00     0.043 A 
HETATM   21  C   UNL     1     -41.729  60.907 -59.135  1.00  0.00     0.003 A 
HETATM   22  C   UNL     1     -41.924  60.478 -60.448  1.00  0.00     0.001 A 
HETATM   23  C   UNL     1     -42.118  59.122 -60.722  1.00  0.00     0.012 A 
ENDBRANCH  16  17
ENDBRANCH  13  16
ENDBRANCH   9  11
ENDBRANCH   7   9
ENDBRANCH   5   7
ENDBRANCH   2   5
BRANCH   1  24
HETATM   24  C   UNL     1     -44.493  57.610 -54.764  1.00  0.00     0.150 A 
HETATM   25  N   UNL     1     -43.404  56.890 -55.115  1.00  0.00    -0.165 NA
HETATM   26  N   UNL     1     -42.992  56.344 -53.960  1.00  0.00    -0.240 N 
HETATM   27  C   UNL     1     -43.742  56.711 -52.876  1.00  0.00     0.123 A 
HETATM   28  C   UNL     1     -41.794  55.532 -53.897  1.00  0.00     0.221 C 
HETATM   29  N   UNL     1     -43.431  56.305 -51.626  1.00  0.00    -0.371 N 
HETATM   30  C   UNL     1     -44.735  57.521 -53.365  1.00  0.00     0.089 A 
HETATM   31  C   UNL     1     -42.422  55.281 -51.391  1.00  0.00     0.081 C 
HETATM   32  H   UNL     1     -44.088  56.464 -50.863  1.00  0.00     0.161 HD
HETATM   33  C   UNL     1     -43.082  53.912 -51.276  1.00  0.00     0.032 C 
HETATM   34  C   UNL     1     -41.306  55.376 -52.444  1.00  0.00     0.061 C 
BRANCH  28  35
HETATM   35  C   UNL     1     -41.994  54.212 -54.609  1.00  0.00     0.409 C 
HETATM   36  F   UNL     1     -43.299  53.898 -54.768  1.00  0.00    -0.169 F 
HETATM   37  F   UNL     1     -41.468  54.282 -55.862  1.00  0.00    -0.169 F 
HETATM   38  F   UNL     1     -41.395  53.171 -53.999  1.00  0.00    -0.169 F 
ENDBRANCH  28  35
ENDBRANCH   1  24
TORSDOF 8
ENDMDL
MODEL 6
REMARK VINA RESULT:      -8.0      1.756      2.514
REMARK  8 active torsions:
REMARK  status: ('A' for Active; 'I' for Inactive)
REMARK    1  A    between atoms: C_7  and  C_8 
REMARK       I    between atoms: C_8  and  N_9 
REMARK    2  A    between atoms: N_9  and  N_10 
REMARK    3  A    between atoms: N_10  and  C_11 
REMARK    4  A    between atoms: C_11  and  N_12 
REMARK    5  A    between atoms: N_12  and  C_13 
REMARK    6  A    between atoms: N_15  and  C_16 
REMARK    7  A    between atoms: C_16  and  C_17 
REMARK    8  A    between atoms: C_29  and  C_30 
ROOT
HETATM    1  C   UNL     1     -43.832  58.241 -54.342  1.00  0.00     0.290 C 
HETATM    2  N   UNL     1     -43.411  59.145 -53.388  1.00  0.00    -0.262 N 
HETATM    3  O   UNL     1     -44.243  57.109 -54.102  1.00  0.00    -0.264 OA
HETATM    4  H   UNL     1     -43.197  60.097 -53.687  1.00  0.00     0.190 HD
ENDROOT
BRANCH   2   5
HETATM    5  N   UNL     1     -43.589  58.902 -52.027  1.00  0.00    -0.273 N 
HETATM    6  H   UNL     1     -44.548  58.894 -51.661  1.00  0.00     0.189 HD
BRANCH   5   7
HETATM    7  C   UNL     1     -42.587  58.377 -51.256  1.00  0.00     0.192 C 
HETATM    8  S   UNL     1     -41.193  59.200 -50.815  1.00  0.00    -0.039 SA
BRANCH   7   9
HETATM    9  N   UNL     1     -42.729  57.089 -50.825  1.00  0.00    -0.315 N 
HETATM   10  H   UNL     1     -43.036  56.983 -49.869  1.00  0.00     0.170 HD
BRANCH   9  11
HETATM   11  C   UNL     1     -42.424  55.931 -51.508  1.00  0.00     0.151 A 
HETATM   12  N   UNL     1     -41.315  55.746 -52.231  1.00  0.00    -0.154 NA
HETATM   13  N   UNL     1     -41.424  54.481 -52.691  1.00  0.00    -0.275 N 
HETATM   14  C   UNL     1     -42.574  53.863 -52.291  1.00  0.00     0.116 A 
HETATM   15  C   UNL     1     -43.248  54.783 -51.525  1.00  0.00     0.071 A 
BRANCH  13  16
HETATM   16  C   UNL     1     -40.415  53.939 -53.590  1.00  0.00     0.192 C 
BRANCH  16  17
HETATM   17  C   UNL     1     -40.179  52.476 -53.347  1.00  0.00     0.000 A 
HETATM   18  C   UNL     1     -39.695  52.034 -52.114  1.00  0.00     0.124 A 
HETATM   19  F   UNL     1     -39.448  52.922 -51.140  1.00  0.00    -0.205 F 
HETATM   20  C   UNL     1     -39.467  50.684 -51.866  1.00  0.00     0.043 A 
HETATM   21  C   UNL     1     -39.723  49.748 -52.867  1.00  0.00     0.003 A 
HETATM   22  C   UNL     1     -40.198  50.170 -54.109  1.00  0.00     0.001 A 
HETATM   23  C   UNL     1     -40.421  51.528 -54.352  1.00  0.00     0.012 A 
ENDBRANCH  16  17
ENDBRANCH  13  16
ENDBRANCH   9  11
ENDBRANCH   7   9
ENDBRANCH   5   7
ENDBRANCH   2   5
BRANCH   1  24
HETATM   24  C   UNL     1     -43.728  58.792 -55.703  1.00  0.00     0.150 A 
HETATM   25  N   UNL     1     -43.740  57.991 -56.792  1.00  0.00    -0.165 NA
HETATM   26  N   UNL     1     -43.611  58.844 -57.822  1.00  0.00    -0.240 N 
HETATM   27  C   UNL     1     -43.558  60.158 -57.447  1.00  0.00     0.123 A 
HETATM   28  C   UNL     1     -43.639  58.377 -59.193  1.00  0.00     0.221 C 
HETATM   29  N   UNL     1     -43.492  61.155 -58.357  1.00  0.00    -0.371 N 
HETATM   30  C   UNL     1     -43.615  60.160 -56.077  1.00  0.00     0.089 A 
HETATM   31  C   UNL     1     -43.251  60.878 -59.767  1.00  0.00     0.081 C 
HETATM   32  H   UNL     1     -43.299  62.109 -58.052  1.00  0.00     0.161 HD
HETATM   33  C   UNL     1     -41.763  60.995 -60.077  1.00  0.00     0.032 C 
HETATM   34  C   UNL     1     -43.894  59.541 -60.169  1.00  0.00     0.061 C 
BRANCH  28  35
HETATM   35  C   UNL     1     -42.396  57.579 -59.521  1.00  0.00     0.409 C 
HETATM   36  F   UNL     1     -41.995  57.741 -60.801  1.00  0.00    -0.169 F 
HETATM   37  F   UNL     1     -41.362  58.002 -58.746  1.00  0.00    -0.169 F 
HETATM   38  F   UNL     1     -42.527  56.257 -59.298  1.00  0.00    -0.169 F 
ENDBRANCH  28  35
ENDBRANCH   1  24
TORSDOF 8
ENDMDL
MODEL 7
REMARK VINA RESULT:      -7.8      2.343      3.047
REMARK  8 active torsions:
REMARK  status: ('A' for Active; 'I' for Inactive)
REMARK    1  A    between atoms: C_7  and  C_8 
REMARK       I    between atoms: C_8  and  N_9 
REMARK    2  A    between atoms: N_9  and  N_10 
REMARK    3  A    between atoms: N_10  and  C_11 
REMARK    4  A    between atoms: C_11  and  N_12 
REMARK    5  A    between atoms: N_12  and  C_13 
REMARK    6  A    between atoms: N_15  and  C_16 
REMARK    7  A    between atoms: C_16  and  C_17 
REMARK    8  A    between atoms: C_29  and  C_30 
ROOT
HETATM    1  C   UNL     1     -42.198  57.817 -55.384  1.00  0.00     0.290 C 
HETATM    2  N   UNL     1     -41.930  59.128 -55.043  1.00  0.00    -0.262 N 
HETATM    3  O   UNL     1     -41.787  56.836 -54.771  1.00  0.00    -0.264 OA
HETATM    4  H   UNL     1     -42.416  59.867 -55.553  1.00  0.00     0.190 HD
ENDROOT
BRANCH   2   5
HETATM    5  N   UNL     1     -41.300  59.453 -53.844  1.00  0.00    -0.273 N 
HETATM    6  H   UNL     1     -40.286  59.611 -53.860  1.00  0.00     0.189 HD
BRANCH   5   7
HETATM    7  C   UNL     1     -42.011  59.865 -52.749  1.00  0.00     0.192 C 
HETATM    8  S   UNL     1     -42.931  61.268 -52.682  1.00  0.00    -0.039 SA
BRANCH   7   9
HETATM    9  N   UNL     1     -41.958  59.085 -51.629  1.00  0.00    -0.315 N 
HETATM   10  H   UNL     1     -41.272  59.362 -50.940  1.00  0.00     0.170 HD
BRANCH   9  11
HETATM   11  C   UNL     1     -42.664  57.930 -51.369  1.00  0.00     0.151 A 
HETATM   12  N   UNL     1     -42.108  56.737 -51.141  1.00  0.00    -0.154 NA
HETATM   13  N   UNL     1     -43.157  55.918 -50.914  1.00  0.00    -0.275 N 
HETATM   14  C   UNL     1     -44.362  56.555 -51.002  1.00  0.00     0.116 A 
HETATM   15  C   UNL     1     -44.074  57.864 -51.302  1.00  0.00     0.071 A 
BRANCH  13  16
HETATM   16  C   UNL     1     -42.942  54.495 -50.692  1.00  0.00     0.192 C 
BRANCH  16  17
HETATM   17  C   UNL     1     -42.068  53.891 -51.753  1.00  0.00     0.000 A 
HETATM   18  C   UNL     1     -42.488  53.867 -53.085  1.00  0.00     0.124 A 
HETATM   19  F   UNL     1     -43.676  54.395 -53.417  1.00  0.00    -0.205 F 
HETATM   20  C   UNL     1     -41.696  53.311 -54.086  1.00  0.00     0.043 A 
HETATM   21  C   UNL     1     -40.457  52.764 -53.758  1.00  0.00     0.003 A 
HETATM   22  C   UNL     1     -40.023  52.770 -52.432  1.00  0.00     0.001 A 
HETATM   23  C   UNL     1     -40.825  53.326 -51.432  1.00  0.00     0.012 A 
ENDBRANCH  16  17
ENDBRANCH  13  16
ENDBRANCH   9  11
ENDBRANCH   7   9
ENDBRANCH   5   7
ENDBRANCH   2   5
BRANCH   1  24
HETATM   24  C   UNL     1     -43.044  57.725 -56.586  1.00  0.00     0.150 A 
HETATM   25  N   UNL     1     -43.957  58.677 -56.882  1.00  0.00    -0.165 NA
HETATM   26  N   UNL     1     -44.525  58.237 -58.017  1.00  0.00    -0.240 N 
HETATM   27  C   UNL     1     -43.992  57.067 -58.484  1.00  0.00     0.123 A 
HETATM   28  C   UNL     1     -45.533  59.018 -58.705  1.00  0.00     0.221 C 
HETATM   29  N   UNL     1     -44.401  56.514 -59.646  1.00  0.00    -0.371 N 
HETATM   30  C   UNL     1     -43.039  56.698 -57.570  1.00  0.00     0.089 A 
HETATM   31  C   UNL     1     -45.579  57.009 -60.349  1.00  0.00     0.081 C 
HETATM   32  H   UNL     1     -44.102  55.571 -59.893  1.00  0.00     0.161 HD
HETATM   33  C   UNL     1     -46.805  56.194 -59.955  1.00  0.00     0.032 C 
HETATM   34  C   UNL     1     -45.719  58.527 -60.153  1.00  0.00     0.061 C 
BRANCH  28  35
HETATM   35  C   UNL     1     -46.822  59.060 -57.914  1.00  0.00     0.409 C 
HETATM   36  F   UNL     1     -47.003  57.958 -57.154  1.00  0.00    -0.169 F 
HETATM   37  F   UNL     1     -46.797  60.112 -57.052  1.00  0.00    -0.169 F 
HETATM   38  F   UNL     1     -47.921  59.216 -58.677  1.00  0.00    -0.169 F 
ENDBRANCH  28  35
ENDBRANCH   1  24
TORSDOF 8
ENDMDL
MODEL 8
REMARK VINA RESULT:      -7.7      3.695      7.525
REMARK  8 active torsions:
REMARK  status: ('A' for Active; 'I' for Inactive)
REMARK    1  A    between atoms: C_7  and  C_8 
REMARK       I    between atoms: C_8  and  N_9 
REMARK    2  A    between atoms: N_9  and  N_10 
REMARK    3  A    between atoms: N_10  and  C_11 
REMARK    4  A    between atoms: C_11  and  N_12 
REMARK    5  A    between atoms: N_12  and  C_13 
REMARK    6  A    between atoms: N_15  and  C_16 
REMARK    7  A    between atoms: C_16  and  C_17 
REMARK    8  A    between atoms: C_29  and  C_30 
ROOT
HETATM    1  C   UNL     1     -42.814  56.257 -57.407  1.00  0.00     0.290 C 
HETATM    2  N   UNL     1     -42.110  57.391 -57.759  1.00  0.00    -0.262 N 
HETATM    3  O   UNL     1     -43.439  55.548 -58.192  1.00  0.00    -0.264 OA
HETATM    4  H   UNL     1     -41.533  57.839 -57.047  1.00  0.00     0.190 HD
ENDROOT
BRANCH   2   5
HETATM    5  N   UNL     1     -41.902  57.733 -59.094  1.00  0.00    -0.273 N 
HETATM    6  H   UNL     1     -41.442  57.046 -59.701  1.00  0.00     0.189 HD
BRANCH   5   7
HETATM    7  C   UNL     1     -42.556  58.787 -59.674  1.00  0.00     0.192 C 
HETATM    8  S   UNL     1     -42.004  59.629 -61.016  1.00  0.00    -0.039 SA
BRANCH   7   9
HETATM    9  N   UNL     1     -43.735  59.187 -59.112  1.00  0.00    -0.315 N 
HETATM   10  H   UNL     1     -44.523  59.229 -59.743  1.00  0.00     0.170 HD
BRANCH   9  11
HETATM   11  C   UNL     1     -43.954  59.614 -57.820  1.00  0.00     0.151 A 
HETATM   12  N   UNL     1     -43.111  60.380 -57.121  1.00  0.00    -0.154 NA
HETATM   13  N   UNL     1     -43.733  60.567 -55.937  1.00  0.00    -0.275 N 
HETATM   14  C   UNL     1     -44.940  59.932 -55.861  1.00  0.00     0.116 A 
HETATM   15  C   UNL     1     -45.108  59.299 -57.069  1.00  0.00     0.071 A 
BRANCH  13  16
HETATM   16  C   UNL     1     -43.074  61.310 -54.873  1.00  0.00     0.192 C 
BRANCH  16  17
HETATM   17  C   UNL     1     -42.485  60.396 -53.837  1.00  0.00     0.000 A 
HETATM   18  C   UNL     1     -42.961  60.415 -52.525  1.00  0.00     0.124 A 
HETATM   19  F   UNL     1     -43.956  61.249 -52.191  1.00  0.00    -0.205 F 
HETATM   20  C   UNL     1     -42.428  59.579 -51.547  1.00  0.00     0.043 A 
HETATM   21  C   UNL     1     -41.397  58.702 -51.880  1.00  0.00     0.003 A 
HETATM   22  C   UNL     1     -40.901  58.674 -53.183  1.00  0.00     0.001 A 
HETATM   23  C   UNL     1     -41.437  59.520 -54.158  1.00  0.00     0.012 A 
ENDBRANCH  16  17
ENDBRANCH  13  16
ENDBRANCH   9  11
ENDBRANCH   7   9
ENDBRANCH   5   7
ENDBRANCH   2   5
BRANCH   1  24
HETATM   24  C   UNL     1     -42.734  55.987 -55.962  1.00  0.00     0.150 A 
HETATM   25  N   UNL     1     -41.650  55.396 -55.412  1.00  0.00    -0.165 NA
HETATM   26  N   UNL     1     -41.955  55.310 -54.107  1.00  0.00    -0.240 N 
HETATM   27  C   UNL     1     -43.169  55.854 -53.787  1.00  0.00     0.123 A 
HETATM   28  C   UNL     1     -41.010  54.777 -53.147  1.00  0.00     0.221 C 
HETATM   29  N   UNL     1     -43.609  55.910 -52.511  1.00  0.00    -0.371 N 
HETATM   30  C   UNL     1     -43.708  56.289 -54.970  1.00  0.00     0.089 A 
HETATM   31  C   UNL     1     -42.921  55.198 -51.441  1.00  0.00     0.081 C 
HETATM   32  H   UNL     1     -44.574  56.177 -52.318  1.00  0.00     0.161 HD
HETATM   33  C   UNL     1     -43.568  53.837 -51.216  1.00  0.00     0.032 C 
HETATM   34  C   UNL     1     -41.408  55.161 -51.709  1.00  0.00     0.061 C 
BRANCH  28  35
HETATM   35  C   UNL     1     -40.818  53.289 -53.341  1.00  0.00     0.409 C 
HETATM   36  F   UNL     1     -41.884  52.697 -53.922  1.00  0.00    -0.169 F 
HETATM   37  F   UNL     1     -39.765  53.068 -54.174  1.00  0.00    -0.169 F 
HETATM   38  F   UNL     1     -40.551  52.624 -52.201  1.00  0.00    -0.169 F 
ENDBRANCH  28  35
ENDBRANCH   1  24
TORSDOF 8
ENDMDL
MODEL 9
REMARK VINA RESULT:      -7.7      2.232      2.874
REMARK  8 active torsions:
REMARK  status: ('A' for Active; 'I' for Inactive)
REMARK    1  A    between atoms: C_7  and  C_8 
REMARK       I    between atoms: C_8  and  N_9 
REMARK    2  A    between atoms: N_9  and  N_10 
REMARK    3  A    between atoms: N_10  and  C_11 
REMARK    4  A    between atoms: C_11  and  N_12 
REMARK    5  A    between atoms: N_12  and  C_13 
REMARK    6  A    between atoms: N_15  and  C_16 
REMARK    7  A    between atoms: C_16  and  C_17 
REMARK    8  A    between atoms: C_29  and  C_30 
ROOT
HETATM    1  C   UNL     1     -45.087  59.863 -54.707  1.00  0.00     0.290 C 
HETATM    2  N   UNL     1     -44.577  58.949 -53.808  1.00  0.00    -0.262 N 
HETATM    3  O   UNL     1     -45.717  60.871 -54.400  1.00  0.00    -0.264 OA
HETATM    4  H   UNL     1     -43.971  58.209 -54.164  1.00  0.00     0.190 HD
ENDROOT
BRANCH   2   5
HETATM    5  N   UNL     1     -44.586  59.195 -52.436  1.00  0.00    -0.273 N 
HETATM    6  H   UNL     1     -45.372  58.829 -51.887  1.00  0.00     0.189 HD
BRANCH   5   7
HETATM    7  C   UNL     1     -43.463  59.616 -51.775  1.00  0.00     0.192 C 
HETATM    8  S   UNL     1     -43.458  60.722 -50.513  1.00  0.00    -0.039 SA
BRANCH   7   9
HETATM    9  N   UNL     1     -42.262  59.107 -52.181  1.00  0.00    -0.315 N 
HETATM   10  H   UNL     1     -41.489  59.757 -52.163  1.00  0.00     0.170 HD
BRANCH   9  11
HETATM   11  C   UNL     1     -42.003  57.851 -52.684  1.00  0.00     0.151 A 
HETATM   12  N   UNL     1     -42.766  56.775 -52.468  1.00  0.00    -0.154 NA
HETATM   13  N   UNL     1     -42.155  55.789 -53.160  1.00  0.00    -0.275 N 
HETATM   14  C   UNL     1     -41.023  56.205 -53.798  1.00  0.00     0.116 A 
HETATM   15  C   UNL     1     -40.894  57.541 -53.502  1.00  0.00     0.071 A 
BRANCH  13  16
HETATM   16  C   UNL     1     -42.671  54.428 -53.105  1.00  0.00     0.192 C 
BRANCH  16  17
HETATM   17  C   UNL     1     -41.564  53.413 -53.085  1.00  0.00     0.000 A 
HETATM   18  C   UNL     1     -40.835  53.186 -51.916  1.00  0.00     0.124 A 
HETATM   19  F   UNL     1     -41.132  53.873 -50.803  1.00  0.00    -0.205 F 
HETATM   20  C   UNL     1     -39.804  52.252 -51.874  1.00  0.00     0.043 A 
HETATM   21  C   UNL     1     -39.486  51.526 -53.021  1.00  0.00     0.003 A 
HETATM   22  C   UNL     1     -40.197  51.745 -54.201  1.00  0.00     0.001 A 
HETATM   23  C   UNL     1     -41.228  52.687 -54.237  1.00  0.00     0.012 A 
ENDBRANCH  16  17
ENDBRANCH  13  16
ENDBRANCH   9  11
ENDBRANCH   7   9
ENDBRANCH   5   7
ENDBRANCH   2   5
BRANCH   1  24
HETATM   24  C   UNL     1     -44.788  59.488 -56.099  1.00  0.00     0.150 A 
HETATM   25  N   UNL     1     -44.680  58.194 -56.475  1.00  0.00    -0.165 NA
HETATM   26  N   UNL     1     -44.393  58.261 -57.786  1.00  0.00    -0.240 N 
HETATM   27  C   UNL     1     -44.350  59.537 -58.277  1.00  0.00     0.123 A 
HETATM   28  C   UNL     1     -44.254  57.063 -58.587  1.00  0.00     0.221 C 
HETATM   29  N   UNL     1     -44.135  59.788 -59.587  1.00  0.00    -0.371 N 
HETATM   30  C   UNL     1     -44.587  60.360 -57.206  1.00  0.00     0.089 A 
HETATM   31  C   UNL     1     -43.719  58.732 -60.502  1.00  0.00     0.081 C 
HETATM   32  H   UNL     1     -43.956  60.742 -59.899  1.00  0.00     0.161 HD
HETATM   33  C   UNL     1     -42.201  58.722 -60.633  1.00  0.00     0.032 C 
HETATM   34  C   UNL     1     -44.343  57.389 -60.090  1.00  0.00     0.061 C 
BRANCH  28  35
HETATM   35  C   UNL     1     -43.003  56.299 -58.212  1.00  0.00     0.409 C 
HETATM   36  F   UNL     1     -42.079  57.078 -57.607  1.00  0.00    -0.169 F 
HETATM   37  F   UNL     1     -43.314  55.321 -57.318  1.00  0.00    -0.169 F 
HETATM   38  F   UNL     1     -42.406  55.690 -59.254  1.00  0.00    -0.169 F 
ENDBRANCH  28  35
ENDBRANCH   1  24
TORSDOF 8
ENDMDL
MODEL 10
REMARK VINA RESULT:      -7.7      2.204      2.872
REMARK  8 active torsions:
REMARK  status: ('A' for Active; 'I' for Inactive)
REMARK    1  A    between atoms: C_7  and  C_8 
REMARK       I    between atoms: C_8  and  N_9 
REMARK    2  A    between atoms: N_9  and  N_10 
REMARK    3  A    between atoms: N_10  and  C_11 
REMARK    4  A    between atoms: C_11  and  N_12 
REMARK    5  A    between atoms: N_12  and  C_13 
REMARK    6  A    between atoms: N_15  and  C_16 
REMARK    7  A    between atoms: C_16  and  C_17 
REMARK    8  A    between atoms: C_29  and  C_30 
ROOT
HETATM    1  C   UNL     1     -44.025  58.868 -54.069  1.00  0.00     0.290 C 
HETATM    2  N   UNL     1     -44.489  57.605 -53.762  1.00  0.00    -0.262 N 
HETATM    3  O   UNL     1     -43.867  59.774 -53.254  1.00  0.00    -0.264 OA
HETATM    4  H   UNL     1     -44.473  56.895 -54.495  1.00  0.00     0.190 HD
ENDROOT
BRANCH   2   5
HETATM    5  N   UNL     1     -44.653  57.192 -52.441  1.00  0.00    -0.273 N 
HETATM    6  H   UNL     1     -45.589  57.262 -52.028  1.00  0.00     0.189 HD
BRANCH   5   7
HETATM    7  C   UNL     1     -43.711  56.426 -51.808  1.00  0.00     0.192 C 
HETATM    8  S   UNL     1     -42.595  57.011 -50.699  1.00  0.00    -0.039 SA
BRANCH   7   9
HETATM    9  N   UNL     1     -43.671  55.094 -52.109  1.00  0.00    -0.315 N 
HETATM   10  H   UNL     1     -44.182  54.492 -51.478  1.00  0.00     0.170 HD
BRANCH   9  11
HETATM   11  C   UNL     1     -42.957  54.475 -53.112  1.00  0.00     0.151 A 
HETATM   12  N   UNL     1     -41.797  53.835 -52.933  1.00  0.00    -0.154 NA
HETATM   13  N   UNL     1     -41.479  53.373 -54.161  1.00  0.00    -0.275 N 
HETATM   14  C   UNL     1     -42.396  53.711 -55.115  1.00  0.00     0.116 A 
HETATM   15  C   UNL     1     -43.366  54.433 -54.463  1.00  0.00     0.071 A 
BRANCH  13  16
HETATM   16  C   UNL     1     -40.221  52.671 -54.376  1.00  0.00     0.192 C 
BRANCH  16  17
HETATM   17  C   UNL     1     -39.966  51.646 -53.309  1.00  0.00     0.000 A 
HETATM   18  C   UNL     1     -39.813  50.299 -53.645  1.00  0.00     0.124 A 
HETATM   19  F   UNL     1     -39.887  49.922 -54.930  1.00  0.00    -0.205 F 
HETATM   20  C   UNL     1     -39.578  49.330 -52.673  1.00  0.00     0.043 A 
HETATM   21  C   UNL     1     -39.494  49.707 -51.333  1.00  0.00     0.003 A 
HETATM   22  C   UNL     1     -39.653  51.046 -50.976  1.00  0.00     0.001 A 
HETATM   23  C   UNL     1     -39.893  52.012 -51.957  1.00  0.00     0.012 A 
ENDBRANCH  16  17
ENDBRANCH  13  16
ENDBRANCH   9  11
ENDBRANCH   7   9
ENDBRANCH   5   7
ENDBRANCH   2   5
BRANCH   1  24
HETATM   24  C   UNL     1     -43.739  59.014 -55.506  1.00  0.00     0.150 A 
HETATM   25  N   UNL     1     -44.712  58.894 -56.436  1.00  0.00    -0.165 NA
HETATM   26  N   UNL     1     -44.069  59.071 -57.602  1.00  0.00    -0.240 N 
HETATM   27  C   UNL     1     -42.735  59.339 -57.461  1.00  0.00     0.123 A 
HETATM   28  C   UNL     1     -44.784  59.075 -58.862  1.00  0.00     0.221 C 
HETATM   29  N   UNL     1     -41.948  59.606 -58.525  1.00  0.00    -0.371 N 
HETATM   30  C   UNL     1     -42.484  59.295 -56.114  1.00  0.00     0.089 A 
HETATM   31  C   UNL     1     -42.422  59.405 -59.889  1.00  0.00     0.081 C 
HETATM   32  H   UNL     1     -40.935  59.650 -58.410  1.00  0.00     0.161 HD
HETATM   33  C   UNL     1     -42.005  58.027 -60.390  1.00  0.00     0.032 C 
HETATM   34  C   UNL     1     -43.928  59.699 -59.980  1.00  0.00     0.061 C 
BRANCH  28  35
HETATM   35  C   UNL     1     -45.299  57.693 -59.199  1.00  0.00     0.409 C 
HETATM   36  F   UNL     1     -46.560  57.486 -58.761  1.00  0.00    -0.169 F 
HETATM   37  F   UNL     1     -45.340  57.537 -60.550  1.00  0.00    -0.169 F 
HETATM   38  F   UNL     1     -44.530  56.696 -58.721  1.00  0.00    -0.169 F 
ENDBRANCH  28  35
ENDBRANCH   1  24
TORSDOF 8
ENDMDL
