MODEL 1
REMARK VINA RESULT:      -7.7      0.000      0.000
REMARK  7 active torsions:
REMARK  status: ('A' for Active; 'I' for Inactive)
REMARK    1  A    between atoms: C_3  and  N_4 
REMARK       I    between atoms: N_4  and  C_5 
REMARK    2  A    between atoms: C_5  and  C_6 
REMARK    3  A    between atoms: C_6  and  C_14 
REMARK    4  A    between atoms: C_8  and  C_9 
REMARK    5  A    between atoms: C_9  and  O_15 
REMARK    6  A    between atoms: C_10  and  O_17 
REMARK    7  A    between atoms: C_22  and  N_23 
REMARK       I    between atoms: N_23  and  C_24 
REMARK       I    between atoms: C_24  and  N_25 
ROOT
HETATM    1  C           1     -41.095  59.537 -53.170  0.00  0.00     0.016 C 
HETATM    2  C           1     -43.681  59.639 -53.351  0.00  0.00     0.012 C 
HETATM    3  C           1     -42.427  58.783 -52.969  0.00  0.00    -0.030 C 
HETATM    4  C           1     -44.190  60.730 -52.347  0.00  0.00     0.008 C 
HETATM    5  C           1     -44.229  60.114 -50.933  0.00  0.00     0.128 C 
HETATM    6  C           1     -42.549  58.336 -51.491  0.00  0.00     0.013 C 
HETATM    7  C           1     -42.542  57.914 -55.331  0.00  0.00     0.056 A 
HETATM    8  C           1     -42.412  57.508 -53.885  0.00  0.00     0.056 C 
HETATM    9  C           1     -45.648  61.112 -52.729  0.00  0.00     0.020 C 
HETATM   10  C           1     -42.914  59.466 -50.525  0.00  0.00     0.033 C 
HETATM   11  C           1     -43.620  60.120 -54.816  0.00  0.00     0.055 C 
HETATM   12  C           1     -43.093  59.061 -55.740  0.00  0.00     0.012 A 
HETATM   13  N           1     -42.114  57.230 -56.303  0.00  0.00    -0.227 NA
HETATM   14  C           1     -42.364  57.861 -57.372  0.00  0.00     0.175 A 
HETATM   15  S           1     -43.041  59.146 -57.201  0.00  0.00    -0.055 SA
ENDROOT
BRANCH  14  16
HETATM   16  N           1     -42.053  57.519 -58.636  0.00  0.00    -0.287 N 
HETATM   17  C           1     -42.587  56.675 -59.566  0.00  0.00     0.324 C 
HETATM   18  O           1     -41.838  56.325 -60.441  0.00  0.00    -0.247 OA
HETATM   19  N           1     -43.866  56.176 -59.524  0.00  0.00    -0.330 N 
HETATM   20  C           1     -45.020  56.932 -59.060  0.00  0.00     0.153 C 
HETATM   21  C           1     -44.235  54.894 -60.115  0.00  0.00     0.153 C 
HETATM   22  C           1     -46.044  57.054 -60.187  0.00  0.00     0.187 C 
HETATM   23  O           1     -46.396  55.785 -60.679  0.00  0.00    -0.388 OA
HETATM   24  C           1     -45.282  55.109 -61.203  0.00  0.00     0.187 C 
HETATM   25  H           1     -41.174  57.932 -58.917  0.00  0.00     0.172 HD
ENDBRANCH  14  16
BRANCH   8  26
HETATM   26  C           1     -41.248  56.519 -53.661  0.00  0.00     0.114 C 
BRANCH  26  27
HETATM   27  C           1     -41.650  55.080 -53.347  0.00  0.00     0.218 C 
HETATM   28  N           1     -40.592  54.210 -53.344  0.00  0.00    -0.357 N 
HETATM   29  H           1     -39.683  54.592 -53.609  0.00  0.00     0.162 HD
HETATM   30  O           1     -42.791  54.770 -53.111  0.00  0.00    -0.274 OA
BRANCH  28  31
HETATM   31  C           1     -40.646  52.768 -53.054  0.00  0.00     0.076 C 
HETATM   32  C           1     -39.891  52.475 -51.748  0.00  0.00     0.032 C 
HETATM   33  C           1     -40.226  51.777 -54.149  0.00  0.00     0.032 C 
ENDBRANCH  28  31
ENDBRANCH  26  27
ENDBRANCH   8  26
BRANCH   4  34
HETATM   34  C           1     -43.361  62.030 -52.361  0.00  0.00     0.176 C 
BRANCH  34  35
HETATM   35  O           1     -44.136  63.149 -51.969  0.00  0.00    -0.400 OA
HETATM   36  H           1     -43.750  63.954 -52.317  0.00  0.00     0.209 HD
ENDBRANCH  34  35
ENDBRANCH   4  34
BRANCH   5  37
HETATM   37  O           1     -44.557  61.084 -49.967  0.00  0.00    -0.395 OA
HETATM   38  H           1     -43.772  61.569 -49.707  0.00  0.00     0.210 HD
ENDBRANCH   5  37
TORSDOF 7
ENDMDL
MODEL 2
REMARK VINA RESULT:      -7.7      2.616      5.350
REMARK  7 active torsions:
REMARK  status: ('A' for Active; 'I' for Inactive)
REMARK    1  A    between atoms: C_3  and  N_4 
REMARK       I    between atoms: N_4  and  C_5 
REMARK    2  A    between atoms: C_5  and  C_6 
REMARK    3  A    between atoms: C_6  and  C_14 
REMARK    4  A    between atoms: C_8  and  C_9 
REMARK    5  A    between atoms: C_9  and  O_15 
REMARK    6  A    between atoms: C_10  and  O_17 
REMARK    7  A    between atoms: C_22  and  N_23 
REMARK       I    between atoms: N_23  and  C_24 
REMARK       I    between atoms: C_24  and  N_25 
ROOT
HETATM    1  C           1     -44.258  59.119 -54.559  0.00  0.00     0.016 C 
HETATM    2  C           1     -42.180  57.670 -53.994  0.00  0.00     0.012 C 
HETATM    3  C           1     -42.717  59.028 -54.559  0.00  0.00    -0.030 C 
HETATM    4  C           1     -42.156  57.450 -52.442  0.00  0.00     0.008 C 
HETATM    5  C           1     -41.563  58.710 -51.778  0.00  0.00     0.128 C 
HETATM    6  C           1     -42.132  60.193 -53.721  0.00  0.00     0.013 C 
HETATM    7  C           1     -42.565  57.926 -56.819  0.00  0.00     0.056 A 
HETATM    8  C           1     -42.217  59.170 -56.041  0.00  0.00     0.056 C 
HETATM    9  C           1     -41.202  56.264 -52.126  0.00  0.00     0.020 C 
HETATM   10  C           1     -42.255  59.996 -52.208  0.00  0.00     0.033 C 
HETATM   11  C           1     -42.730  56.465 -54.786  0.00  0.00     0.055 C 
HETATM   12  C           1     -42.772  56.728 -56.263  0.00  0.00     0.012 A 
HETATM   13  N           1     -42.728  57.893 -58.071  0.00  0.00    -0.227 NA
HETATM   14  C           1     -43.029  56.709 -58.401  0.00  0.00     0.175 A 
HETATM   15  S           1     -43.107  55.749 -57.300  0.00  0.00    -0.055 SA
ENDROOT
BRANCH  14  16
HETATM   16  N           1     -43.324  56.231 -59.624  0.00  0.00    -0.287 N 
HETATM   17  C           1     -44.471  56.075 -60.348  0.00  0.00     0.324 C 
HETATM   18  O           1     -44.419  55.265 -61.236  0.00  0.00    -0.247 OA
HETATM   19  N           1     -45.653  56.726 -60.087  0.00  0.00    -0.330 N 
HETATM   20  C           1     -45.739  58.101 -59.619  0.00  0.00     0.153 C 
HETATM   21  C           1     -46.956  56.166 -60.428  0.00  0.00     0.153 C 
HETATM   22  C           1     -46.516  58.943 -60.631  0.00  0.00     0.187 C 
HETATM   23  O           1     -47.780  58.380 -60.879  0.00  0.00    -0.388 OA
HETATM   24  C           1     -47.670  57.085 -61.413  0.00  0.00     0.187 C 
HETATM   25  H           1     -42.508  55.825 -60.061  0.00  0.00     0.172 HD
ENDBRANCH  14  16
BRANCH   8  26
HETATM   26  C           1     -42.634  60.456 -56.784  0.00  0.00     0.114 C 
BRANCH  26  27
HETATM   27  C           1     -41.704  60.906 -57.908  0.00  0.00     0.218 C 
HETATM   28  N           1     -42.285  60.847 -59.147  0.00  0.00    -0.357 N 
HETATM   29  H           1     -43.228  60.458 -59.195  0.00  0.00     0.162 HD
HETATM   30  O           1     -40.580  61.286 -57.697  0.00  0.00    -0.274 OA
BRANCH  28  31
HETATM   31  C           1     -41.662  61.234 -60.424  0.00  0.00     0.076 C 
HETATM   32  C           1     -41.849  62.741 -60.654  0.00  0.00     0.032 C 
HETATM   33  C           1     -42.028  60.449 -61.693  0.00  0.00     0.032 C 
ENDBRANCH  28  31
ENDBRANCH  26  27
ENDBRANCH   8  26
BRANCH   4  34
HETATM   34  C           1     -43.531  57.102 -51.837  0.00  0.00     0.176 C 
BRANCH  34  35
HETATM   35  O           1     -43.402  56.428 -50.597  0.00  0.00    -0.400 OA
HETATM   36  H           1     -42.870  55.639 -50.707  0.00  0.00     0.209 HD
ENDBRANCH  34  35
ENDBRANCH   4  34
BRANCH   5  37
HETATM   37  O           1     -41.634  58.624 -50.374  0.00  0.00    -0.395 OA
HETATM   38  H           1     -40.834  58.225 -50.028  0.00  0.00     0.210 HD
ENDBRANCH   5  37
TORSDOF 7
ENDMDL
MODEL 3
REMARK VINA RESULT:      -7.5      2.351      7.145
REMARK  7 active torsions:
REMARK  status: ('A' for Active; 'I' for Inactive)
REMARK    1  A    between atoms: C_3  and  N_4 
REMARK       I    between atoms: N_4  and  C_5 
REMARK    2  A    between atoms: C_5  and  C_6 
REMARK    3  A    between atoms: C_6  and  C_14 
REMARK    4  A    between atoms: C_8  and  C_9 
REMARK    5  A    between atoms: C_9  and  O_15 
REMARK    6  A    between atoms: C_10  and  O_17 
REMARK    7  A    between atoms: C_22  and  N_23 
REMARK       I    between atoms: N_23  and  C_24 
REMARK       I    between atoms: C_24  and  N_25 
ROOT
HETATM    1  C           1     -44.428  56.759 -56.090  0.00  0.00     0.016 C 
HETATM    2  C           1     -42.660  58.054 -57.481  0.00  0.00     0.012 C 
HETATM    3  C           1     -42.995  56.760 -56.666  0.00  0.00    -0.030 C 
HETATM    4  C           1     -43.209  58.193 -58.943  0.00  0.00     0.008 C 
HETATM    5  C           1     -42.950  56.869 -59.691  0.00  0.00     0.128 C 
HETATM    6  C           1     -42.805  55.522 -57.578  0.00  0.00     0.013 C 
HETATM    7  C           1     -41.974  57.965 -54.704  0.00  0.00     0.056 A 
HETATM    8  C           1     -41.985  56.666 -55.468  0.00  0.00     0.056 C 
HETATM    9  C           1     -42.400  59.304 -59.671  0.00  0.00     0.020 C 
HETATM   10  C           1     -43.476  55.648 -58.948  0.00  0.00     0.033 C 
HETATM   11  C           1     -42.833  59.328 -56.627  0.00  0.00     0.055 C 
HETATM   12  C           1     -42.331  59.144 -55.224  0.00  0.00     0.012 A 
HETATM   13  N           1     -41.657  58.072 -53.485  0.00  0.00    -0.227 NA
HETATM   14  C           1     -41.773  59.287 -53.150  0.00  0.00     0.175 A 
HETATM   15  S           1     -42.221  60.192 -54.208  0.00  0.00    -0.055 SA
ENDROOT
BRANCH  14  16
HETATM   16  N           1     -41.574  59.843 -51.941  0.00  0.00    -0.287 N 
HETATM   17  C           1     -42.342  60.562 -51.072  0.00  0.00     0.324 C 
HETATM   18  O           1     -41.738  61.227 -50.271  0.00  0.00    -0.247 OA
HETATM   19  N           1     -43.715  60.612 -51.102  0.00  0.00    -0.330 N 
HETATM   20  C           1     -44.564  59.479 -51.437  0.00  0.00     0.153 C 
HETATM   21  C           1     -44.476  61.761 -50.621  0.00  0.00     0.153 C 
HETATM   22  C           1     -45.477  59.151 -50.256  0.00  0.00     0.187 C 
HETATM   23  O           1     -46.218  60.282 -49.872  0.00  0.00    -0.388 OA
HETATM   24  C           1     -45.380  61.335 -49.469  0.00  0.00     0.187 C 
HETATM   25  H           1     -40.605  59.770 -51.663  0.00  0.00     0.172 HD
ENDBRANCH  14  16
BRANCH   8  26
HETATM   26  C           1     -42.140  55.445 -54.536  0.00  0.00     0.114 C 
BRANCH  26  27
HETATM   27  C           1     -40.908  54.554 -54.398  0.00  0.00     0.218 C 
HETATM   28  N           1     -41.076  53.535 -53.497  0.00  0.00    -0.357 N 
HETATM   29  H           1     -41.956  53.519 -52.979  0.00  0.00     0.162 HD
HETATM   30  O           1     -39.907  54.739 -55.042  0.00  0.00    -0.274 OA
BRANCH  28  31
HETATM   31  C           1     -40.088  52.496 -53.159  0.00  0.00     0.076 C 
HETATM   32  C           1     -40.279  51.283 -54.081  0.00  0.00     0.032 C 
HETATM   33  C           1     -39.964  52.043 -51.696  0.00  0.00     0.032 C 
ENDBRANCH  28  31
ENDBRANCH  26  27
ENDBRANCH   8  26
BRANCH   4  34
HETATM   34  C           1     -44.697  58.589 -59.020  0.00  0.00     0.176 C 
BRANCH  34  35
HETATM   35  O           1     -44.999  59.259 -60.231  0.00  0.00    -0.400 OA
HETATM   36  H           1     -45.312  58.631 -60.883  0.00  0.00     0.209 HD
ENDBRANCH  34  35
ENDBRANCH   4  34
BRANCH   5  37
HETATM   37  O           1     -43.536  56.887 -60.971  0.00  0.00    -0.395 OA
HETATM   38  H           1     -44.417  56.512 -60.936  0.00  0.00     0.210 HD
ENDBRANCH   5  37
TORSDOF 7
ENDMDL
MODEL 4
REMARK VINA RESULT:      -7.4      2.893      7.891
REMARK  7 active torsions:
REMARK  status: ('A' for Active; 'I' for Inactive)
REMARK    1  A    between atoms: C_3  and  N_4 
REMARK       I    between atoms: N_4  and  C_5 
REMARK    2  A    between atoms: C_5  and  C_6 
REMARK    3  A    between atoms: C_6  and  C_14 
REMARK    4  A    between atoms: C_8  and  C_9 
REMARK    5  A    between atoms: C_9  and  O_15 
REMARK    6  A    between atoms: C_10  and  O_17 
REMARK    7  A    between atoms: C_22  and  N_23 
REMARK       I    between atoms: N_23  and  C_24 
REMARK       I    between atoms: C_24  and  N_25 
ROOT
HETATM    1  C           1     -41.150  57.672 -53.218  0.00  0.00     0.016 C 
HETATM    2  C           1     -42.865  55.813 -52.638  0.00  0.00     0.012 C 
HETATM    3  C           1     -42.212  56.691 -53.758  0.00  0.00    -0.030 C 
HETATM    4  C           1     -42.068  54.585 -52.075  0.00  0.00     0.008 C 
HETATM    5  C           1     -41.485  53.794 -53.264  0.00  0.00     0.128 C 
HETATM    6  C           1     -41.566  55.763 -54.817  0.00  0.00     0.013 C 
HETATM    7  C           1     -44.155  58.252 -53.396  0.00  0.00     0.056 A 
HETATM    8  C           1     -43.350  57.527 -54.444  0.00  0.00     0.056 C 
HETATM    9  C           1     -43.064  53.647 -51.336  0.00  0.00     0.020 C 
HETATM   10  C           1     -40.685  54.660 -54.226  0.00  0.00     0.033 C 
HETATM   11  C           1     -43.526  56.680 -51.545  0.00  0.00     0.055 C 
HETATM   12  C           1     -44.247  57.865 -52.120  0.00  0.00     0.012 A 
HETATM   13  N           1     -44.800  59.318 -53.606  0.00  0.00    -0.227 NA
HETATM   14  C           1     -45.344  59.673 -52.519  0.00  0.00     0.175 A 
HETATM   15  S           1     -45.090  58.800 -51.373  0.00  0.00    -0.055 SA
ENDROOT
BRANCH  14  16
HETATM   16  N           1     -46.091  60.766 -52.276  0.00  0.00    -0.287 N 
HETATM   17  C           1     -45.880  61.957 -51.646  0.00  0.00     0.324 C 
HETATM   18  O           1     -46.870  62.533 -51.276  0.00  0.00    -0.247 OA
HETATM   19  N           1     -44.641  62.484 -51.368  0.00  0.00    -0.330 N 
HETATM   20  C           1     -43.490  62.366 -52.250  0.00  0.00     0.153 C 
HETATM   21  C           1     -44.397  63.380 -50.242  0.00  0.00     0.153 C 
HETATM   22  C           1     -43.017  63.757 -52.671  0.00  0.00     0.187 C 
HETATM   23  O           1     -42.751  64.554 -51.544  0.00  0.00    -0.388 OA
HETATM   24  C           1     -43.899  64.727 -50.754  0.00  0.00     0.187 C 
HETATM   25  H           1     -47.049  60.621 -52.563  0.00  0.00     0.172 HD
ENDBRANCH  14  16
BRANCH   8  26
HETATM   26  C           1     -42.915  58.462 -55.593  0.00  0.00     0.114 C 
BRANCH  26  27
HETATM   27  C           1     -43.495  58.139 -56.967  0.00  0.00     0.218 C 
HETATM   28  N           1     -42.550  57.725 -57.869  0.00  0.00    -0.357 N 
HETATM   29  H           1     -41.578  57.738 -57.556  0.00  0.00     0.162 HD
HETATM   30  O           1     -44.673  58.233 -57.205  0.00  0.00    -0.274 OA
BRANCH  28  31
HETATM   31  C           1     -42.792  57.319 -59.264  0.00  0.00     0.076 C 
HETATM   32  C           1     -43.084  55.812 -59.320  0.00  0.00     0.032 C 
HETATM   33  C           1     -41.761  57.705 -60.336  0.00  0.00     0.032 C 
ENDBRANCH  28  31
ENDBRANCH  26  27
ENDBRANCH   8  26
BRANCH   4  34
HETATM   34  C           1     -40.964  54.961 -51.068  0.00  0.00     0.176 C 
BRANCH  34  35
HETATM   35  O           1     -40.647  53.880 -50.209  0.00  0.00    -0.400 OA
HETATM   36  H           1     -41.449  53.432 -49.937  0.00  0.00     0.209 HD
ENDBRANCH  34  35
ENDBRANCH   4  34
BRANCH   5  37
HETATM   37  O           1     -40.652  52.750 -52.819  0.00  0.00    -0.395 OA
HETATM   38  H           1     -40.287  52.276 -53.568  0.00  0.00     0.210 HD
ENDBRANCH   5  37
TORSDOF 7
ENDMDL
MODEL 5
REMARK VINA RESULT:      -7.1      2.808      6.805
REMARK  7 active torsions:
REMARK  status: ('A' for Active; 'I' for Inactive)
REMARK    1  A    between atoms: C_3  and  N_4 
REMARK       I    between atoms: N_4  and  C_5 
REMARK    2  A    between atoms: C_5  and  C_6 
REMARK    3  A    between atoms: C_6  and  C_14 
REMARK    4  A    between atoms: C_8  and  C_9 
REMARK    5  A    between atoms: C_9  and  O_15 
REMARK    6  A    between atoms: C_10  and  O_17 
REMARK    7  A    between atoms: C_22  and  N_23 
REMARK       I    between atoms: N_23  and  C_24 
REMARK       I    between atoms: C_24  and  N_25 
ROOT
HETATM    1  C           1     -41.001  57.257 -53.860  0.00  0.00     0.016 C 
HETATM    2  C           1     -42.805  55.842 -52.645  0.00  0.00     0.012 C 
HETATM    3  C           1     -42.055  56.136 -53.987  0.00  0.00    -0.030 C 
HETATM    4  C           1     -42.085  54.990 -51.543  0.00  0.00     0.008 C 
HETATM    5  C           1     -41.450  53.756 -52.217  0.00  0.00     0.128 C 
HETATM    6  C           1     -41.369  54.837 -54.480  0.00  0.00     0.013 C 
HETATM    7  C           1     -43.969  57.694 -54.490  0.00  0.00     0.056 A 
HETATM    8  C           1     -43.120  56.582 -55.051  0.00  0.00     0.056 C 
HETATM    9  C           1     -43.154  54.473 -50.540  0.00  0.00     0.020 C 
HETATM   10  C           1     -40.562  54.110 -53.402  0.00  0.00     0.033 C 
HETATM   11  C           1     -43.510  57.101 -52.096  0.00  0.00     0.055 C 
HETATM   12  C           1     -44.155  57.909 -53.184  0.00  0.00     0.012 A 
HETATM   13  N           1     -44.567  58.557 -55.194  0.00  0.00    -0.227 NA
HETATM   14  C           1     -45.170  59.354 -54.417  0.00  0.00     0.175 A 
HETATM   15  S           1     -45.016  59.078 -52.988  0.00  0.00    -0.055 SA
ENDROOT
BRANCH  14  16
HETATM   16  N           1     -45.897  60.440 -54.734  0.00  0.00    -0.287 N 
HETATM   17  C           1     -45.633  61.772 -54.869  0.00  0.00     0.324 C 
HETATM   18  O           1     -46.585  62.503 -54.779  0.00  0.00    -0.247 OA
HETATM   19  N           1     -44.377  62.305 -55.035  0.00  0.00    -0.330 N 
HETATM   20  C           1     -43.322  61.676 -55.815  0.00  0.00     0.153 C 
HETATM   21  C           1     -44.026  63.653 -54.599  0.00  0.00     0.153 C 
HETATM   22  C           1     -42.908  62.598 -56.962  0.00  0.00     0.187 C 
HETATM   23  O           1     -42.534  63.862 -56.473  0.00  0.00    -0.388 OA
HETATM   24  C           1     -43.595  64.488 -55.800  0.00  0.00     0.187 C 
HETATM   25  H           1     -46.878  60.211 -54.808  0.00  0.00     0.172 HD
ENDBRANCH  14  16
BRANCH   8  26
HETATM   26  C           1     -42.583  56.914 -56.459  0.00  0.00     0.114 C 
BRANCH  26  27
HETATM   27  C           1     -43.415  56.391 -57.628  0.00  0.00     0.218 C 
HETATM   28  N           1     -44.460  57.214 -57.959  0.00  0.00    -0.357 N 
HETATM   29  H           1     -44.608  58.031 -57.365  0.00  0.00     0.162 HD
HETATM   30  O           1     -43.148  55.362 -58.196  0.00  0.00    -0.274 OA
BRANCH  28  31
HETATM   31  C           1     -45.426  57.003 -59.049  0.00  0.00     0.076 C 
HETATM   32  C           1     -44.820  57.483 -60.377  0.00  0.00     0.032 C 
HETATM   33  C           1     -46.854  57.546 -58.887  0.00  0.00     0.032 C 
ENDBRANCH  28  31
ENDBRANCH  26  27
ENDBRANCH   8  26
BRANCH   4  34
HETATM   34  C           1     -41.037  55.774 -50.729  0.00  0.00     0.176 C 
BRANCH  34  35
HETATM   35  O           1     -41.496  56.055 -49.418  0.00  0.00    -0.400 OA
HETATM   36  H           1     -40.757  56.071 -48.809  0.00  0.00     0.209 HD
ENDBRANCH  34  35
ENDBRANCH   4  34
BRANCH   5  37
HETATM   37  O           1     -40.679  53.017 -51.299  0.00  0.00    -0.395 OA
HETATM   38  H           1     -39.748  53.213 -51.417  0.00  0.00     0.210 HD
ENDBRANCH   5  37
TORSDOF 7
ENDMDL
MODEL 6
REMARK VINA RESULT:      -6.9      2.588      5.285
REMARK  7 active torsions:
REMARK  status: ('A' for Active; 'I' for Inactive)
REMARK    1  A    between atoms: C_3  and  N_4 
REMARK       I    between atoms: N_4  and  C_5 
REMARK    2  A    between atoms: C_5  and  C_6 
REMARK    3  A    between atoms: C_6  and  C_14 
REMARK    4  A    between atoms: C_8  and  C_9 
REMARK    5  A    between atoms: C_9  and  O_15 
REMARK    6  A    between atoms: C_10  and  O_17 
REMARK    7  A    between atoms: C_22  and  N_23 
REMARK       I    between atoms: N_23  and  C_24 
REMARK       I    between atoms: C_24  and  N_25 
ROOT
HETATM    1  C           1     -45.131  59.787 -54.163  0.00  0.00     0.016 C 
HETATM    2  C           1     -42.825  59.306 -53.074  0.00  0.00     0.012 C 
HETATM    3  C           1     -43.726  60.336 -53.834  0.00  0.00    -0.030 C 
HETATM    4  C           1     -43.056  59.083 -51.539  0.00  0.00     0.008 C 
HETATM    5  C           1     -43.185  60.461 -50.858  0.00  0.00     0.128 C 
HETATM    6  C           1     -43.861  61.621 -52.979  0.00  0.00     0.013 C 
HETATM    7  C           1     -42.649  59.440 -55.927  0.00  0.00     0.056 A 
HETATM    8  C           1     -43.013  60.700 -55.185  0.00  0.00     0.056 C 
HETATM    9  C           1     -41.799  58.386 -50.946  0.00  0.00     0.020 C 
HETATM   10  C           1     -44.224  61.360 -51.515  0.00  0.00     0.033 C 
HETATM   11  C           1     -42.652  57.998 -53.874  0.00  0.00     0.055 C 
HETATM   12  C           1     -42.471  58.251 -55.343  0.00  0.00     0.012 A 
HETATM   13  N           1     -42.505  59.368 -57.181  0.00  0.00    -0.227 NA
HETATM   14  C           1     -42.221  58.172 -57.480  0.00  0.00     0.175 A 
HETATM   15  S           1     -42.145  57.242 -56.353  0.00  0.00    -0.055 SA
ENDROOT
BRANCH  14  16
HETATM   16  N           1     -42.021  57.640 -58.700  0.00  0.00    -0.287 N 
HETATM   17  C           1     -42.691  56.746 -59.484  0.00  0.00     0.324 C 
HETATM   18  O           1     -42.034  56.209 -60.338  0.00  0.00    -0.247 OA
HETATM   19  N           1     -44.010  56.397 -59.317  0.00  0.00    -0.330 N 
HETATM   20  C           1     -45.052  57.325 -58.906  0.00  0.00     0.153 C 
HETATM   21  C           1     -44.540  55.097 -59.714  0.00  0.00     0.153 C 
HETATM   22  C           1     -46.124  57.412 -59.992  0.00  0.00     0.187 C 
HETATM   23  O           1     -46.630  56.135 -60.294  0.00  0.00    -0.388 OA
HETATM   24  C           1     -45.622  55.282 -60.773  0.00  0.00     0.187 C 
HETATM   25  H           1     -41.124  57.916 -59.073  0.00  0.00     0.172 HD
ENDBRANCH  14  16
BRANCH   8  26
HETATM   26  C           1     -43.740  61.718 -56.090  0.00  0.00     0.114 C 
BRANCH  26  27
HETATM   27  C           1     -42.882  62.861 -56.627  0.00  0.00     0.218 C 
HETATM   28  N           1     -42.096  62.495 -57.687  0.00  0.00    -0.357 N 
HETATM   29  H           1     -42.115  61.510 -57.956  0.00  0.00     0.162 HD
HETATM   30  O           1     -42.924  63.970 -56.157  0.00  0.00    -0.274 OA
BRANCH  28  31
HETATM   31  C           1     -41.179  63.369 -58.438  0.00  0.00     0.076 C 
HETATM   32  C           1     -41.924  64.000 -59.625  0.00  0.00     0.032 C 
HETATM   33  C           1     -39.826  62.803 -58.896  0.00  0.00     0.032 C 
ENDBRANCH  28  31
ENDBRANCH  26  27
ENDBRANCH   8  26
BRANCH   4  34
HETATM   34  C           1     -44.270  58.190 -51.211  0.00  0.00     0.176 C 
BRANCH  34  35
HETATM   35  O           1     -43.874  56.969 -50.611  0.00  0.00    -0.400 OA
HETATM   36  H           1     -42.939  56.993 -50.404  0.00  0.00     0.209 HD
ENDBRANCH  34  35
ENDBRANCH   4  34
BRANCH   5  37
HETATM   37  O           1     -43.521  60.325 -49.498  0.00  0.00    -0.395 OA
HETATM   38  H           1     -44.459  60.148 -49.406  0.00  0.00     0.210 HD
ENDBRANCH   5  37
TORSDOF 7
ENDMDL
MODEL 7
REMARK VINA RESULT:      -6.8      2.743      6.290
REMARK  7 active torsions:
REMARK  status: ('A' for Active; 'I' for Inactive)
REMARK    1  A    between atoms: C_3  and  N_4 
REMARK       I    between atoms: N_4  and  C_5 
REMARK    2  A    between atoms: C_5  and  C_6 
REMARK    3  A    between atoms: C_6  and  C_14 
REMARK    4  A    between atoms: C_8  and  C_9 
REMARK    5  A    between atoms: C_9  and  O_15 
REMARK    6  A    between atoms: C_10  and  O_17 
REMARK    7  A    between atoms: C_22  and  N_23 
REMARK       I    between atoms: N_23  and  C_24 
REMARK       I    between atoms: C_24  and  N_25 
ROOT
HETATM    1  C           1     -43.449  55.382 -51.380  0.00  0.00     0.016 C 
HETATM    2  C           1     -41.017  54.784 -52.060  0.00  0.00     0.012 C 
HETATM    3  C           1     -42.020  55.908 -51.634  0.00  0.00    -0.030 C 
HETATM    4  C           1     -40.432  53.831 -50.961  0.00  0.00     0.008 C 
HETATM    5  C           1     -39.976  54.689 -49.763  0.00  0.00     0.128 C 
HETATM    6  C           1     -41.490  56.601 -50.353  0.00  0.00     0.013 C 
HETATM    7  C           1     -42.359  56.274 -54.103  0.00  0.00     0.056 A 
HETATM    8  C           1     -42.085  56.966 -52.792  0.00  0.00     0.056 C 
HETATM    9  C           1     -39.171  53.128 -51.537  0.00  0.00     0.020 C 
HETATM   10  C           1     -41.058  55.630 -49.252  0.00  0.00     0.033 C 
HETATM   11  C           1     -41.490  54.050 -53.333  0.00  0.00     0.055 C 
HETATM   12  C           1     -42.077  54.990 -54.345  0.00  0.00     0.012 A 
HETATM   13  N           1     -42.912  56.825 -55.097  0.00  0.00    -0.227 NA
HETATM   14  C           1     -43.010  55.967 -56.022  0.00  0.00     0.175 A 
HETATM   15  S           1     -42.488  54.637 -55.706  0.00  0.00    -0.055 SA
ENDROOT
BRANCH  14  16
HETATM   16  N           1     -43.566  56.110 -57.239  0.00  0.00    -0.287 N 
HETATM   17  C           1     -44.010  57.168 -57.978  0.00  0.00     0.324 C 
HETATM   18  O           1     -44.798  56.902 -58.847  0.00  0.00    -0.247 OA
HETATM   19  N           1     -43.663  58.478 -57.751  0.00  0.00    -0.330 N 
HETATM   20  C           1     -42.342  58.907 -57.315  0.00  0.00     0.153 C 
HETATM   21  C           1     -44.530  59.598 -58.101  0.00  0.00     0.153 C 
HETATM   22  C           1     -41.733  59.844 -58.357  0.00  0.00     0.187 C 
HETATM   23  O           1     -42.592  60.927 -58.615  0.00  0.00    -0.388 OA
HETATM   24  C           1     -43.830  60.494 -59.118  0.00  0.00     0.187 C 
HETATM   25  H           1     -43.768  55.211 -57.653  0.00  0.00     0.172 HD
ENDBRANCH  14  16
BRANCH   8  26
HETATM   26  C           1     -43.020  58.173 -52.565  0.00  0.00     0.114 C 
BRANCH  26  27
HETATM   27  C           1     -42.430  59.542 -52.894  0.00  0.00     0.218 C 
HETATM   28  N           1     -43.291  60.351 -53.586  0.00  0.00    -0.357 N 
HETATM   29  H           1     -44.186  59.942 -53.860  0.00  0.00     0.162 HD
HETATM   30  O           1     -41.318  59.860 -52.551  0.00  0.00    -0.274 OA
BRANCH  28  31
HETATM   31  C           1     -43.031  61.731 -54.027  0.00  0.00     0.076 C 
HETATM   32  C           1     -43.557  62.718 -52.973  0.00  0.00     0.032 C 
HETATM   33  C           1     -43.484  62.157 -55.432  0.00  0.00     0.032 C 
ENDBRANCH  28  31
ENDBRANCH  26  27
ENDBRANCH   8  26
BRANCH   4  34
HETATM   34  C           1     -41.405  52.724 -50.508  0.00  0.00     0.176 C 
BRANCH  34  35
HETATM   35  O           1     -40.714  51.577 -50.044  0.00  0.00    -0.400 OA
HETATM   36  H           1     -39.839  51.542 -50.433  0.00  0.00     0.209 HD
ENDBRANCH  34  35
ENDBRANCH   4  34
BRANCH   5  37
HETATM   37  O           1     -39.558  53.879 -48.690  0.00  0.00    -0.395 OA
HETATM   38  H           1     -38.715  54.187 -48.353  0.00  0.00     0.210 HD
ENDBRANCH   5  37
TORSDOF 7
ENDMDL
MODEL 8
REMARK VINA RESULT:      -6.8      2.939      6.399
REMARK  7 active torsions:
REMARK  status: ('A' for Active; 'I' for Inactive)
REMARK    1  A    between atoms: C_3  and  N_4 
REMARK       I    between atoms: N_4  and  C_5 
REMARK    2  A    between atoms: C_5  and  C_6 
REMARK    3  A    between atoms: C_6  and  C_14 
REMARK    4  A    between atoms: C_8  and  C_9 
REMARK    5  A    between atoms: C_9  and  O_15 
REMARK    6  A    between atoms: C_10  and  O_17 
REMARK    7  A    between atoms: C_22  and  N_23 
REMARK       I    between atoms: N_23  and  C_24 
REMARK       I    between atoms: C_24  and  N_25 
ROOT
HETATM    1  C           1     -44.168  54.430 -53.749  0.00  0.00     0.016 C 
HETATM    2  C           1     -41.672  54.842 -54.327  0.00  0.00     0.012 C 
HETATM    3  C           1     -42.903  55.268 -53.459  0.00  0.00    -0.030 C 
HETATM    4  C           1     -40.868  53.557 -53.927  0.00  0.00     0.008 C 
HETATM    5  C           1     -40.610  53.596 -52.407  0.00  0.00     0.128 C 
HETATM    6  C           1     -42.535  55.143 -51.960  0.00  0.00     0.013 C 
HETATM    7  C           1     -43.347  56.963 -55.268  0.00  0.00     0.056 A 
HETATM    8  C           1     -43.226  56.771 -53.778  0.00  0.00     0.056 C 
HETATM    9  C           1     -39.485  53.599 -54.635  0.00  0.00     0.020 C 
HETATM   10  C           1     -41.875  53.812 -51.588  0.00  0.00     0.033 C 
HETATM   11  C           1     -41.975  54.942 -55.838  0.00  0.00     0.055 C 
HETATM   12  C           1     -42.777  56.164 -56.176  0.00  0.00     0.012 A 
HETATM   13  N           1     -44.025  57.879 -55.814  0.00  0.00    -0.227 NA
HETATM   14  C           1     -43.932  57.747 -57.070  0.00  0.00     0.175 A 
HETATM   15  S           1     -43.111  56.625 -57.526  0.00  0.00    -0.055 SA
ENDROOT
BRANCH  14  16
HETATM   16  N           1     -44.521  58.479 -58.034  0.00  0.00    -0.287 N 
HETATM   17  C           1     -44.529  59.801 -58.371  0.00  0.00     0.324 C 
HETATM   18  O           1     -45.461  60.161 -59.041  0.00  0.00    -0.247 OA
HETATM   19  N           1     -43.597  60.719 -57.951  0.00  0.00    -0.330 N 
HETATM   20  C           1     -42.180  60.426 -57.790  0.00  0.00     0.153 C 
HETATM   21  C           1     -43.897  62.139 -57.799  0.00  0.00     0.153 C 
HETATM   22  C           1     -41.359  61.324 -58.714  0.00  0.00     0.187 C 
HETATM   23  O           1     -41.656  62.678 -58.485  0.00  0.00    -0.388 OA
HETATM   24  C           1     -43.011  62.957 -58.732  0.00  0.00     0.187 C 
HETATM   25  H           1     -45.163  57.917 -58.574  0.00  0.00     0.172 HD
ENDBRANCH  14  16
BRANCH   8  26
HETATM   26  C           1     -44.414  57.392 -53.013  0.00  0.00     0.114 C 
BRANCH  26  27
HETATM   27  C           1     -44.050  58.253 -51.806  0.00  0.00     0.218 C 
HETATM   28  N           1     -42.755  58.701 -51.832  0.00  0.00    -0.357 N 
HETATM   29  H           1     -42.169  58.368 -52.598  0.00  0.00     0.162 HD
HETATM   30  O           1     -44.846  58.511 -50.939  0.00  0.00    -0.274 OA
BRANCH  28  31
HETATM   31  C           1     -42.110  59.567 -50.831  0.00  0.00     0.076 C 
HETATM   32  C           1     -42.489  61.032 -51.095  0.00  0.00     0.032 C 
HETATM   33  C           1     -40.596  59.438 -50.608  0.00  0.00     0.032 C 
ENDBRANCH  28  31
ENDBRANCH  26  27
ENDBRANCH   8  26
BRANCH   4  34
HETATM   34  C           1     -41.550  52.237 -54.338  0.00  0.00     0.176 C 
BRANCH  34  35
HETATM   35  O           1     -40.638  51.154 -54.338  0.00  0.00    -0.400 OA
HETATM   36  H           1     -40.257  51.046 -55.209  0.00  0.00     0.209 HD
ENDBRANCH  34  35
ENDBRANCH   4  34
BRANCH   5  37
HETATM   37  O           1     -40.002  52.405 -51.965  0.00  0.00    -0.395 OA
HETATM   38  H           1     -39.103  52.352 -52.294  0.00  0.00     0.210 HD
ENDBRANCH   5  37
TORSDOF 7
ENDMDL
MODEL 9
REMARK VINA RESULT:      -6.8      2.279      5.271
REMARK  7 active torsions:
REMARK  status: ('A' for Active; 'I' for Inactive)
REMARK    1  A    between atoms: C_3  and  N_4 
REMARK       I    between atoms: N_4  and  C_5 
REMARK    2  A    between atoms: C_5  and  C_6 
REMARK    3  A    between atoms: C_6  and  C_14 
REMARK    4  A    between atoms: C_8  and  C_9 
REMARK    5  A    between atoms: C_9  and  O_15 
REMARK    6  A    between atoms: C_10  and  O_17 
REMARK    7  A    between atoms: C_22  and  N_23 
REMARK       I    between atoms: N_23  and  C_24 
REMARK       I    between atoms: C_24  and  N_25 
ROOT
HETATM    1  C           1     -44.320  56.806 -53.304  0.00  0.00     0.016 C 
HETATM    2  C           1     -42.196  55.316 -53.257  0.00  0.00     0.012 C 
HETATM    3  C           1     -42.777  56.770 -53.262  0.00  0.00    -0.030 C 
HETATM    4  C           1     -42.216  54.494 -51.922  0.00  0.00     0.008 C 
HETATM    5  C           1     -41.707  55.401 -50.782  0.00  0.00     0.128 C 
HETATM    6  C           1     -42.278  57.519 -52.001  0.00  0.00     0.013 C 
HETATM    7  C           1     -42.495  56.667 -55.762  0.00  0.00     0.056 A 
HETATM    8  C           1     -42.234  57.506 -54.538  0.00  0.00     0.056 C 
HETATM    9  C           1     -41.217  53.310 -52.055  0.00  0.00     0.020 C 
HETATM   10  C           1     -42.443  56.731 -50.700  0.00  0.00     0.033 C 
HETATM   11  C           1     -42.660  54.511 -54.490  0.00  0.00     0.055 C 
HETATM   12  C           1     -42.664  55.341 -55.741  0.00  0.00     0.012 A 
HETATM   13  N           1     -42.613  57.132 -56.932  0.00  0.00    -0.227 NA
HETATM   14  C           1     -42.845  56.169 -57.720  0.00  0.00     0.175 A 
HETATM   15  S           1     -42.915  54.847 -57.097  0.00  0.00    -0.055 SA
ENDROOT
BRANCH  14  16
HETATM   16  N           1     -43.075  56.211 -59.045  0.00  0.00    -0.287 N 
HETATM   17  C           1     -44.179  56.388 -59.828  0.00  0.00     0.324 C 
HETATM   18  O           1     -44.087  55.982 -60.957  0.00  0.00    -0.247 OA
HETATM   19  N           1     -45.365  56.929 -59.393  0.00  0.00    -0.330 N 
HETATM   20  C           1     -45.459  58.019 -58.434  0.00  0.00     0.153 C 
HETATM   21  C           1     -46.654  56.591 -59.987  0.00  0.00     0.153 C 
HETATM   22  C           1     -46.164  59.213 -59.077  0.00  0.00     0.187 C 
HETATM   23  O           1     -47.418  58.835 -59.586  0.00  0.00    -0.388 OA
HETATM   24  C           1     -47.296  57.844 -60.573  0.00  0.00     0.187 C 
HETATM   25  H           1     -42.241  55.977 -59.565  0.00  0.00     0.172 HD
ENDBRANCH  14  16
BRANCH   8  26
HETATM   26  C           1     -42.686  58.969 -54.728  0.00  0.00     0.114 C 
BRANCH  26  27
HETATM   27  C           1     -42.099  59.979 -53.745  0.00  0.00     0.218 C 
HETATM   28  N           1     -43.052  60.727 -53.105  0.00  0.00    -0.357 N 
HETATM   29  H           1     -44.021  60.582 -53.392  0.00  0.00     0.162 HD
HETATM   30  O           1     -40.913  60.076 -53.557  0.00  0.00    -0.274 OA
BRANCH  28  31
HETATM   31  C           1     -42.811  61.763 -52.087  0.00  0.00     0.076 C 
HETATM   32  C           1     -42.773  61.118 -50.693  0.00  0.00     0.032 C 
HETATM   33  C           1     -43.708  63.011 -52.074  0.00  0.00     0.032 C 
ENDBRANCH  28  31
ENDBRANCH  26  27
ENDBRANCH   8  26
BRANCH   4  34
HETATM   34  C           1     -43.592  53.892 -51.575  0.00  0.00     0.176 C 
BRANCH  34  35
HETATM   35  O           1     -44.289  54.687 -50.632  0.00  0.00    -0.400 OA
HETATM   36  H           1     -43.836  55.521 -50.508  0.00  0.00     0.209 HD
ENDBRANCH  34  35
ENDBRANCH   4  34
BRANCH   5  37
HETATM   37  O           1     -41.821  54.760 -49.534  0.00  0.00    -0.395 OA
HETATM   38  H           1     -42.253  55.339 -48.904  0.00  0.00     0.210 HD
ENDBRANCH   5  37
TORSDOF 7
ENDMDL
MODEL 10
REMARK VINA RESULT:      -6.7      1.938      2.576
REMARK  7 active torsions:
REMARK  status: ('A' for Active; 'I' for Inactive)
REMARK    1  A    between atoms: C_3  and  N_4 
REMARK       I    between atoms: N_4  and  C_5 
REMARK    2  A    between atoms: C_5  and  C_6 
REMARK    3  A    between atoms: C_6  and  C_14 
REMARK    4  A    between atoms: C_8  and  C_9 
REMARK    5  A    between atoms: C_9  and  O_15 
REMARK    6  A    between atoms: C_10  and  O_17 
REMARK    7  A    between atoms: C_22  and  N_23 
REMARK       I    between atoms: N_23  and  C_24 
REMARK       I    between atoms: C_24  and  N_25 
ROOT
HETATM    1  C           1     -41.693  59.506 -54.196  0.00  0.00     0.016 C 
HETATM    2  C           1     -43.917  59.128 -52.913  0.00  0.00     0.012 C 
HETATM    3  C           1     -42.554  58.516 -53.382  0.00  0.00    -0.030 C 
HETATM    4  C           1     -43.930  60.097 -51.680  0.00  0.00     0.008 C 
HETATM    5  C           1     -43.077  59.471 -50.557  0.00  0.00     0.128 C 
HETATM    6  C           1     -41.758  58.040 -52.141  0.00  0.00     0.013 C 
HETATM    7  C           1     -43.844  57.663 -55.370  0.00  0.00     0.056 A 
HETATM    8  C           1     -42.867  57.274 -54.290  0.00  0.00     0.056 C 
HETATM    9  C           1     -45.388  60.205 -51.152  0.00  0.00     0.020 C 
HETATM   10  C           1     -41.681  59.074 -51.015  0.00  0.00     0.033 C 
HETATM   11  C           1     -44.760  59.626 -54.105  0.00  0.00     0.055 C 
HETATM   12  C           1     -44.693  58.692 -55.278  0.00  0.00     0.012 A 
HETATM   13  N           1     -43.940  57.079 -56.487  0.00  0.00    -0.227 NA
HETATM   14  C           1     -44.837  57.663 -57.164  0.00  0.00     0.175 A 
HETATM   15  S           1     -45.483  58.799 -56.507  0.00  0.00    -0.055 SA
ENDROOT
BRANCH  14  16
HETATM   16  N           1     -45.242  57.397 -58.419  0.00  0.00    -0.287 N 
HETATM   17  C           1     -45.230  58.079 -59.601  0.00  0.00     0.324 C 
HETATM   18  O           1     -46.017  57.701 -60.429  0.00  0.00    -0.247 OA
HETATM   19  N           1     -44.438  59.172 -59.863  0.00  0.00    -0.330 N 
HETATM   20  C           1     -43.075  59.325 -59.377  0.00  0.00     0.153 C 
HETATM   21  C           1     -44.816  60.213 -60.813  0.00  0.00     0.153 C 
HETATM   22  C           1     -42.115  59.446 -60.560  0.00  0.00     0.187 C 
HETATM   23  O           1     -42.504  60.496 -61.410  0.00  0.00    -0.388 OA
HETATM   24  C           1     -43.788  60.283 -61.938  0.00  0.00     0.187 C 
HETATM   25  H           1     -45.738  56.518 -58.462  0.00  0.00     0.172 HD
ENDBRANCH  14  16
BRANCH   8  26
HETATM   26  C           1     -41.647  56.516 -54.856  0.00  0.00     0.114 C 
BRANCH  26  27
HETATM   27  C           1     -41.657  55.002 -54.661  0.00  0.00     0.218 C 
HETATM   28  N           1     -40.952  54.593 -53.559  0.00  0.00    -0.357 N 
HETATM   29  H           1     -40.454  55.316 -53.038  0.00  0.00     0.162 HD
HETATM   30  O           1     -42.249  54.263 -55.407  0.00  0.00    -0.274 OA
BRANCH  28  31
HETATM   31  C           1     -40.793  53.207 -53.088  0.00  0.00     0.076 C 
HETATM   32  C           1     -40.233  53.209 -51.657  0.00  0.00     0.032 C 
HETATM   33  C           1     -40.017  52.212 -53.965  0.00  0.00     0.032 C 
ENDBRANCH  28  31
ENDBRANCH  26  27
ENDBRANCH   8  26
BRANCH   4  34
HETATM   34  C           1     -43.455  61.528 -52.002  0.00  0.00     0.176 C 
BRANCH  34  35
HETATM   35  O           1     -44.046  62.483 -51.139  0.00  0.00    -0.400 OA
HETATM   36  H           1     -43.935  63.363 -51.498  0.00  0.00     0.209 HD
ENDBRANCH  34  35
ENDBRANCH   4  34
BRANCH   5  37
HETATM   37  O           1     -42.945  60.354 -49.469  0.00  0.00    -0.395 OA
HETATM   38  H           1     -42.031  60.393 -49.184  0.00  0.00     0.210 HD
ENDBRANCH   5  37
TORSDOF 7
ENDMDL
