MODEL 1
REMARK VINA RESULT:      -7.9      0.000      0.000
REMARK  7 active torsions:
REMARK  status: ('A' for Active; 'I' for Inactive)
REMARK    1  A    between atoms: O_2  and  C_3 
REMARK    2  A    between atoms: C_4  and  O_5 
REMARK    3  A    between atoms: O_5  and  C_6 
REMARK       I    between atoms: C_6  and  N_7 
REMARK    4  A    between atoms: C_14  and  O_15 
REMARK    5  A    between atoms: C_18  and  C_19 
REMARK    6  A    between atoms: C_23  and  N_24 
REMARK    7  A    between atoms: C_31  and  C_32 
ROOT
HETATM    1  C   UNL     1     -42.196  57.830 -56.645  1.00  0.00     0.106 A 
HETATM    2  C   UNL     1     -42.458  58.920 -57.695  1.00  0.00     0.081 A 
HETATM    3  C   UNL     1     -41.763  60.154 -57.525  1.00  0.00     0.100 C 
HETATM    4  N   UNL     1     -41.179  61.146 -57.381  1.00  0.00    -0.191 NA
HETATM    5  C   UNL     1     -43.253  58.727 -58.783  1.00  0.00     0.140 A 
HETATM    6  O   UNL     1     -43.882  57.497 -59.033  1.00  0.00    -0.279 OA
HETATM    7  C   UNL     1     -43.585  56.505 -58.205  1.00  0.00     0.175 A 
HETATM    8  C   UNL     1     -42.807  56.539 -57.075  1.00  0.00     0.040 A 
HETATM    9  N   UNL     1     -44.026  55.232 -58.347  1.00  0.00    -0.256 N 
HETATM   10  H   UNL     1     -44.619  54.850 -59.075  1.00  0.00     0.191 HD
HETATM   11  N   UNL     1     -43.592  54.422 -57.365  1.00  0.00    -0.172 NA
HETATM   12  C   UNL     1     -42.813  55.200 -56.588  1.00  0.00     0.099 A 
ENDROOT
BRANCH   1  13
HETATM   13  C   UNL     1     -42.772  58.208 -55.279  1.00  0.00    -0.039 C 
HETATM   14  C   UNL     1     -44.024  58.838 -55.106  1.00  0.00     0.048 C 
HETATM   15  C   UNL     1     -44.448  59.281 -53.849  1.00  0.00     0.105 C 
HETATM   16  C   UNL     1     -43.564  59.192 -52.770  1.00  0.00     0.147 C 
HETATM   17  C   UNL     1     -42.358  58.505 -52.891  1.00  0.00     0.105 C 
HETATM   18  C   UNL     1     -41.960  58.024 -54.140  1.00  0.00     0.048 C 
BRANCH  15  19
HETATM   19  O   UNL     1     -45.670  59.857 -53.615  1.00  0.00    -0.353 OA
HETATM   20  C   UNL     1     -45.893  61.092 -54.288  1.00  0.00     0.210 C 
ENDBRANCH  15  19
BRANCH  16  21
HETATM   21  O   UNL     1     -43.886  59.751 -51.526  1.00  0.00    -0.256 OA
BRANCH  21  22
HETATM   22  C   UNL     1     -43.673  61.126 -51.477  1.00  0.00     0.368 C 
HETATM   23  N   UNL     1     -44.564  61.766 -50.632  1.00  0.00    -0.324 N 
HETATM   24  C   UNL     1     -45.267  61.090 -49.544  1.00  0.00     0.154 C 
HETATM   25  C   UNL     1     -44.548  63.221 -50.518  1.00  0.00     0.154 C 
HETATM   26  C   UNL     1     -44.720  61.581 -48.194  1.00  0.00     0.187 C 
HETATM   27  O   UNL     1     -44.797  63.015 -48.095  1.00  0.00    -0.388 OA
HETATM   28  C   UNL     1     -44.032  63.642 -49.140  1.00  0.00     0.187 C 
HETATM   29  O   UNL     1     -42.808  61.733 -52.106  1.00  0.00    -0.238 OA
ENDBRANCH  21  22
ENDBRANCH  16  21
BRANCH  17  30
HETATM   30  O   UNL     1     -41.548  58.395 -51.791  1.00  0.00    -0.353 OA
HETATM   31  C   UNL     1     -41.507  57.055 -51.303  1.00  0.00     0.210 C 
ENDBRANCH  17  30
ENDBRANCH   1  13
BRANCH   5  32
HETATM   32  N   UNL     1     -43.525  59.670 -59.750  1.00  0.00    -0.282 NA
HETATM   33  H   UNL     1     -44.131  60.432 -59.454  1.00  0.00     0.126 HD
HETATM   34  H   UNL     1     -43.838  59.241 -60.618  1.00  0.00     0.126 HD
ENDBRANCH   5  32
BRANCH  12  35
HETATM   35  C   UNL     1     -42.153  54.637 -55.409  1.00  0.00    -0.005 A 
HETATM   36  C   UNL     1     -40.798  54.283 -55.428  1.00  0.00     0.015 A 
HETATM   37  C   UNL     1     -40.191  53.741 -54.290  1.00  0.00     0.020 A 
HETATM   38  C   UNL     1     -40.940  53.544 -53.131  1.00  0.00     0.011 A 
HETATM   39 BR   UNL     1     -40.118  52.803 -51.598  1.00  0.00    -0.051 Br
HETATM   40  C   UNL     1     -42.290  53.878 -53.098  1.00  0.00     0.020 A 
HETATM   41  C   UNL     1     -42.893  54.422 -54.236  1.00  0.00     0.015 A 
ENDBRANCH  12  35
TORSDOF 7
ENDMDL
MODEL 2
REMARK VINA RESULT:      -7.7      3.060      5.439
REMARK  7 active torsions:
REMARK  status: ('A' for Active; 'I' for Inactive)
REMARK    1  A    between atoms: O_2  and  C_3 
REMARK    2  A    between atoms: C_4  and  O_5 
REMARK    3  A    between atoms: O_5  and  C_6 
REMARK       I    between atoms: C_6  and  N_7 
REMARK    4  A    between atoms: C_14  and  O_15 
REMARK    5  A    between atoms: C_18  and  C_19 
REMARK    6  A    between atoms: C_23  and  N_24 
REMARK    7  A    between atoms: C_31  and  C_32 
ROOT
HETATM    1  C   UNL     1     -42.805  55.245 -52.981  1.00  0.00     0.106 A 
HETATM    2  C   UNL     1     -42.605  54.592 -51.604  1.00  0.00     0.081 A 
HETATM    3  C   UNL     1     -43.632  54.808 -50.638  1.00  0.00     0.100 C 
HETATM    4  N   UNL     1     -44.483  54.981 -49.868  1.00  0.00    -0.191 NA
HETATM    5  C   UNL     1     -41.549  53.786 -51.312  1.00  0.00     0.140 A 
HETATM    6  O   UNL     1     -40.566  53.476 -52.264  1.00  0.00    -0.279 OA
HETATM    7  C   UNL     1     -40.770  53.934 -53.492  1.00  0.00     0.175 A 
HETATM    8  C   UNL     1     -41.777  54.750 -53.942  1.00  0.00     0.040 A 
HETATM    9  N   UNL     1     -39.976  53.658 -54.554  1.00  0.00    -0.256 N 
HETATM   10  H   UNL     1     -39.143  53.082 -54.583  1.00  0.00     0.191 HD
HETATM   11  N   UNL     1     -40.395  54.256 -55.683  1.00  0.00    -0.172 NA
HETATM   12  C   UNL     1     -41.523  54.909 -55.335  1.00  0.00     0.099 A 
ENDROOT
BRANCH   1  13
HETATM   13  C   UNL     1     -42.703  56.770 -52.906  1.00  0.00    -0.039 C 
HETATM   14  C   UNL     1     -41.513  57.459 -52.585  1.00  0.00     0.048 C 
HETATM   15  C   UNL     1     -41.502  58.845 -52.401  1.00  0.00     0.105 C 
HETATM   16  C   UNL     1     -42.716  59.538 -52.429  1.00  0.00     0.147 C 
HETATM   17  C   UNL     1     -43.892  58.901 -52.820  1.00  0.00     0.105 C 
HETATM   18  C   UNL     1     -43.888  57.524 -53.048  1.00  0.00     0.048 C 
BRANCH  15  19
HETATM   19  O   UNL     1     -40.370  59.571 -52.134  1.00  0.00    -0.353 OA
HETATM   20  C   UNL     1     -39.643  59.153 -50.984  1.00  0.00     0.210 C 
ENDBRANCH  15  19
BRANCH  16  21
HETATM   21  O   UNL     1     -42.776  60.900 -52.108  1.00  0.00    -0.256 OA
BRANCH  21  22
HETATM   22  C   UNL     1     -43.100  61.131 -50.774  1.00  0.00     0.368 C 
HETATM   23  N   UNL     1     -43.882  62.262 -50.611  1.00  0.00    -0.324 N 
HETATM   24  C   UNL     1     -44.702  62.833 -51.677  1.00  0.00     0.154 C 
HETATM   25  C   UNL     1     -44.250  62.711 -49.271  1.00  0.00     0.154 C 
HETATM   26  C   UNL     1     -46.189  62.614 -51.357  1.00  0.00     0.187 C 
HETATM   27  O   UNL     1     -46.523  63.142 -50.061  1.00  0.00    -0.388 OA
HETATM   28  C   UNL     1     -45.747  62.501 -49.031  1.00  0.00     0.187 C 
HETATM   29  O   UNL     1     -42.741  60.435 -49.826  1.00  0.00    -0.238 OA
ENDBRANCH  21  22
ENDBRANCH  16  21
BRANCH  17  30
HETATM   30  O   UNL     1     -45.049  59.633 -52.886  1.00  0.00    -0.353 OA
HETATM   31  C   UNL     1     -45.335  60.039 -54.224  1.00  0.00     0.210 C 
ENDBRANCH  17  30
ENDBRANCH   1  13
BRANCH   5  32
HETATM   32  N   UNL     1     -41.320  53.181 -50.095  1.00  0.00    -0.282 NA
HETATM   33  H   UNL     1     -41.985  53.416 -49.362  1.00  0.00     0.126 HD
HETATM   34  H   UNL     1     -40.354  53.292 -49.794  1.00  0.00     0.126 HD
ENDBRANCH   5  32
BRANCH  12  35
HETATM   35  C   UNL     1     -42.267  55.675 -56.335  1.00  0.00    -0.005 A 
HETATM   36  C   UNL     1     -42.994  55.040 -57.351  1.00  0.00     0.015 A 
HETATM   37  C   UNL     1     -43.694  55.794 -58.299  1.00  0.00     0.020 A 
HETATM   38  C   UNL     1     -43.664  57.186 -58.239  1.00  0.00     0.011 A 
HETATM   39 BR   UNL     1     -44.603  58.202 -59.526  1.00  0.00    -0.051 Br
HETATM   40  C   UNL     1     -42.937  57.834 -57.244  1.00  0.00     0.020 A 
HETATM   41  C   UNL     1     -42.241  57.078 -56.297  1.00  0.00     0.015 A 
ENDBRANCH  12  35
TORSDOF 7
ENDMDL
MODEL 3
REMARK VINA RESULT:      -7.5      3.142      5.252
REMARK  7 active torsions:
REMARK  status: ('A' for Active; 'I' for Inactive)
REMARK    1  A    between atoms: O_2  and  C_3 
REMARK    2  A    between atoms: C_4  and  O_5 
REMARK    3  A    between atoms: O_5  and  C_6 
REMARK       I    between atoms: C_6  and  N_7 
REMARK    4  A    between atoms: C_14  and  O_15 
REMARK    5  A    between atoms: C_18  and  C_19 
REMARK    6  A    between atoms: C_23  and  N_24 
REMARK    7  A    between atoms: C_31  and  C_32 
ROOT
HETATM    1  C   UNL     1     -42.844  55.157 -52.936  1.00  0.00     0.106 A 
HETATM    2  C   UNL     1     -42.627  54.463 -51.583  1.00  0.00     0.081 A 
HETATM    3  C   UNL     1     -43.674  54.589 -50.623  1.00  0.00     0.100 C 
HETATM    4  N   UNL     1     -44.541  54.689 -49.858  1.00  0.00    -0.191 NA
HETATM    5  C   UNL     1     -41.533  53.702 -51.307  1.00  0.00     0.140 A 
HETATM    6  O   UNL     1     -40.524  53.480 -52.257  1.00  0.00    -0.279 OA
HETATM    7  C   UNL     1     -40.739  53.973 -53.469  1.00  0.00     0.175 A 
HETATM    8  C   UNL     1     -41.782  54.752 -53.902  1.00  0.00     0.040 A 
HETATM    9  N   UNL     1     -39.919  53.778 -54.531  1.00  0.00    -0.256 N 
HETATM   10  H   UNL     1     -39.057  53.247 -54.569  1.00  0.00     0.191 HD
HETATM   11  N   UNL     1     -40.357  54.396 -55.642  1.00  0.00    -0.172 NA
HETATM   12  C   UNL     1     -41.520  54.977 -55.285  1.00  0.00     0.099 A 
ENDROOT
BRANCH   1  13
HETATM   13  C   UNL     1     -42.823  56.681 -52.803  1.00  0.00    -0.039 C 
HETATM   14  C   UNL     1     -43.954  57.499 -53.016  1.00  0.00     0.048 C 
HETATM   15  C   UNL     1     -43.854  58.894 -53.011  1.00  0.00     0.105 C 
HETATM   16  C   UNL     1     -42.589  59.479 -52.902  1.00  0.00     0.147 C 
HETATM   17  C   UNL     1     -41.468  58.703 -52.613  1.00  0.00     0.105 C 
HETATM   18  C   UNL     1     -41.582  57.312 -52.573  1.00  0.00     0.048 C 
BRANCH  15  19
HETATM   19  O   UNL     1     -44.925  59.736 -53.165  1.00  0.00    -0.353 OA
HETATM   20  C   UNL     1     -45.827  59.774 -52.065  1.00  0.00     0.210 C 
ENDBRANCH  15  19
BRANCH  16  21
HETATM   21  O   UNL     1     -42.420  60.862 -53.036  1.00  0.00    -0.256 OA
BRANCH  21  22
HETATM   22  C   UNL     1     -42.790  61.568 -51.894  1.00  0.00     0.368 C 
HETATM   23  N   UNL     1     -43.330  62.808 -52.194  1.00  0.00    -0.324 N 
HETATM   24  C   UNL     1     -43.930  63.131 -53.487  1.00  0.00     0.154 C 
HETATM   25  C   UNL     1     -43.698  63.725 -51.120  1.00  0.00     0.154 C 
HETATM   26  C   UNL     1     -45.450  63.288 -53.324  1.00  0.00     0.187 C 
HETATM   27  O   UNL     1     -45.766  64.260 -52.311  1.00  0.00    -0.388 OA
HETATM   28  C   UNL     1     -45.220  63.867 -51.038  1.00  0.00     0.187 C 
HETATM   29  O   UNL     1     -42.657  61.169 -50.739  1.00  0.00    -0.238 OA
ENDBRANCH  21  22
ENDBRANCH  16  21
BRANCH  17  30
HETATM   30  O   UNL     1     -40.257  59.325 -52.460  1.00  0.00    -0.353 OA
HETATM   31  C   UNL     1     -39.758  59.181 -51.131  1.00  0.00     0.210 C 
ENDBRANCH  17  30
ENDBRANCH   1  13
BRANCH   5  32
HETATM   32  N   UNL     1     -41.286  53.064 -50.110  1.00  0.00    -0.282 NA
HETATM   33  H   UNL     1     -41.377  52.051 -50.133  1.00  0.00     0.126 HD
HETATM   34  H   UNL     1     -41.808  53.484 -49.344  1.00  0.00     0.126 HD
ENDBRANCH   5  32
BRANCH  12  35
HETATM   35  C   UNL     1     -42.293  55.740 -56.265  1.00  0.00    -0.005 A 
HETATM   36  C   UNL     1     -43.011  55.105 -57.286  1.00  0.00     0.015 A 
HETATM   37  C   UNL     1     -43.738  55.857 -58.215  1.00  0.00     0.020 A 
HETATM   38  C   UNL     1     -43.742  57.248 -58.131  1.00  0.00     0.011 A 
HETATM   39 BR   UNL     1     -44.718  58.262 -59.393  1.00  0.00    -0.051 Br
HETATM   40  C   UNL     1     -43.024  57.897 -57.131  1.00  0.00     0.020 A 
HETATM   41  C   UNL     1     -42.301  57.143 -56.202  1.00  0.00     0.015 A 
ENDBRANCH  12  35
TORSDOF 7
ENDMDL
MODEL 4
REMARK VINA RESULT:      -7.4      0.641      2.132
REMARK  7 active torsions:
REMARK  status: ('A' for Active; 'I' for Inactive)
REMARK    1  A    between atoms: O_2  and  C_3 
REMARK    2  A    between atoms: C_4  and  O_5 
REMARK    3  A    between atoms: O_5  and  C_6 
REMARK       I    between atoms: C_6  and  N_7 
REMARK    4  A    between atoms: C_14  and  O_15 
REMARK    5  A    between atoms: C_18  and  C_19 
REMARK    6  A    between atoms: C_23  and  N_24 
REMARK    7  A    between atoms: C_31  and  C_32 
ROOT
HETATM    1  C   UNL     1     -41.965  58.112 -56.990  1.00  0.00     0.106 A 
HETATM    2  C   UNL     1     -42.156  59.133 -58.122  1.00  0.00     0.081 A 
HETATM    3  C   UNL     1     -41.324  60.290 -58.087  1.00  0.00     0.100 C 
HETATM    4  N   UNL     1     -40.629  61.220 -58.053  1.00  0.00    -0.191 NA
HETATM    5  C   UNL     1     -43.017  58.940 -59.158  1.00  0.00     0.140 A 
HETATM    6  O   UNL     1     -43.787  57.772 -59.275  1.00  0.00    -0.279 OA
HETATM    7  C   UNL     1     -43.561  56.825 -58.375  1.00  0.00     0.175 A 
HETATM    8  C   UNL     1     -42.732  56.866 -57.282  1.00  0.00     0.040 A 
HETATM    9  N   UNL     1     -44.143  55.602 -58.387  1.00  0.00    -0.256 N 
HETATM   10  H   UNL     1     -44.808  55.229 -59.056  1.00  0.00     0.191 HD
HETATM   11  N   UNL     1     -43.754  54.833 -57.355  1.00  0.00    -0.172 NA
HETATM   12  C   UNL     1     -42.860  55.581 -56.679  1.00  0.00     0.099 A 
ENDROOT
BRANCH   1  13
HETATM   13  C   UNL     1     -42.432  58.664 -55.642  1.00  0.00    -0.039 C 
HETATM   14  C   UNL     1     -41.690  58.538 -54.447  1.00  0.00     0.048 C 
HETATM   15  C   UNL     1     -42.218  58.942 -53.217  1.00  0.00     0.105 C 
HETATM   16  C   UNL     1     -43.545  59.377 -53.164  1.00  0.00     0.147 C 
HETATM   17  C   UNL     1     -44.274  59.587 -54.333  1.00  0.00     0.105 C 
HETATM   18  C   UNL     1     -43.724  59.224 -55.564  1.00  0.00     0.048 C 
BRANCH  15  19
HETATM   19  O   UNL     1     -41.527  58.886 -52.035  1.00  0.00    -0.353 OA
HETATM   20  C   UNL     1     -41.301  57.575 -51.530  1.00  0.00     0.210 C 
ENDBRANCH  15  19
BRANCH  16  21
HETATM   21  O   UNL     1     -44.164  59.656 -51.939  1.00  0.00    -0.256 OA
BRANCH  21  22
HETATM   22  C   UNL     1     -44.069  60.997 -51.575  1.00  0.00     0.368 C 
HETATM   23  N   UNL     1     -45.080  61.380 -50.709  1.00  0.00    -0.324 N 
HETATM   24  C   UNL     1     -45.819  60.439 -49.870  1.00  0.00     0.154 C 
HETATM   25  C   UNL     1     -45.192  62.772 -50.286  1.00  0.00     0.154 C 
HETATM   26  C   UNL     1     -45.435  60.652 -48.397  1.00  0.00     0.187 C 
HETATM   27  O   UNL     1     -45.636  62.021 -48.002  1.00  0.00    -0.388 OA
HETATM   28  C   UNL     1     -44.835  62.909 -48.803  1.00  0.00     0.187 C 
HETATM   29  O   UNL     1     -43.204  61.778 -51.966  1.00  0.00    -0.238 OA
ENDBRANCH  21  22
ENDBRANCH  16  21
BRANCH  17  30
HETATM   30  O   UNL     1     -45.554  60.067 -54.236  1.00  0.00    -0.353 OA
HETATM   31  C   UNL     1     -45.702  61.307 -54.925  1.00  0.00     0.210 C 
ENDBRANCH  17  30
ENDBRANCH   1  13
BRANCH   5  32
HETATM   32  N   UNL     1     -43.231  59.823 -60.193  1.00  0.00    -0.282 NA
HETATM   33  H   UNL     1     -42.634  59.691 -61.007  1.00  0.00     0.126 HD
HETATM   34  H   UNL     1     -43.238  60.789 -59.871  1.00  0.00     0.126 HD
ENDBRANCH   5  32
BRANCH  12  35
HETATM   35  C   UNL     1     -42.211  55.048 -55.481  1.00  0.00    -0.005 A 
HETATM   36  C   UNL     1     -40.868  54.647 -55.492  1.00  0.00     0.015 A 
HETATM   37  C   UNL     1     -40.271  54.135 -54.336  1.00  0.00     0.020 A 
HETATM   38  C   UNL     1     -41.017  54.014 -53.165  1.00  0.00     0.011 A 
HETATM   39 BR   UNL     1     -40.209  53.313 -51.606  1.00  0.00    -0.051 Br
HETATM   40  C   UNL     1     -42.355  54.395 -53.138  1.00  0.00     0.020 A 
HETATM   41  C   UNL     1     -42.948  54.909 -54.295  1.00  0.00     0.015 A 
ENDBRANCH  12  35
TORSDOF 7
ENDMDL
MODEL 5
REMARK VINA RESULT:      -7.4      2.318      7.174
REMARK  7 active torsions:
REMARK  status: ('A' for Active; 'I' for Inactive)
REMARK    1  A    between atoms: O_2  and  C_3 
REMARK    2  A    between atoms: C_4  and  O_5 
REMARK    3  A    between atoms: O_5  and  C_6 
REMARK       I    between atoms: C_6  and  N_7 
REMARK    4  A    between atoms: C_14  and  O_15 
REMARK    5  A    between atoms: C_18  and  C_19 
REMARK    6  A    between atoms: C_23  and  N_24 
REMARK    7  A    between atoms: C_31  and  C_32 
ROOT
HETATM    1  C   UNL     1     -43.348  58.939 -52.335  1.00  0.00     0.106 A 
HETATM    2  C   UNL     1     -44.015  60.265 -51.938  1.00  0.00     0.081 A 
HETATM    3  C   UNL     1     -45.344  60.479 -52.409  1.00  0.00     0.100 C 
HETATM    4  N   UNL     1     -46.431  60.631 -52.788  1.00  0.00    -0.191 NA
HETATM    5  C   UNL     1     -43.422  61.180 -51.123  1.00  0.00     0.140 A 
HETATM    6  O   UNL     1     -42.152  60.965 -50.567  1.00  0.00    -0.279 OA
HETATM    7  C   UNL     1     -41.600  59.782 -50.800  1.00  0.00     0.175 A 
HETATM    8  C   UNL     1     -42.067  58.762 -51.591  1.00  0.00     0.040 A 
HETATM    9  N   UNL     1     -40.424  59.368 -50.270  1.00  0.00    -0.256 N 
HETATM   10  H   UNL     1     -39.810  59.867 -49.637  1.00  0.00     0.191 HD
HETATM   11  N   UNL     1     -40.079  58.133 -50.675  1.00  0.00    -0.172 NA
HETATM   12  C   UNL     1     -41.094  57.728 -51.465  1.00  0.00     0.099 A 
ENDROOT
BRANCH   1  13
HETATM   13  C   UNL     1     -43.050  58.879 -53.834  1.00  0.00    -0.039 C 
HETATM   14  C   UNL     1     -42.491  59.951 -54.563  1.00  0.00     0.048 C 
HETATM   15  C   UNL     1     -42.359  59.895 -55.954  1.00  0.00     0.105 C 
HETATM   16  C   UNL     1     -42.894  58.798 -56.638  1.00  0.00     0.147 C 
HETATM   17  C   UNL     1     -43.379  57.693 -55.943  1.00  0.00     0.105 C 
HETATM   18  C   UNL     1     -43.465  57.736 -54.550  1.00  0.00     0.048 C 
BRANCH  15  19
HETATM   19  O   UNL     1     -41.783  60.885 -56.707  1.00  0.00    -0.353 OA
HETATM   20  C   UNL     1     -42.594  62.036 -56.912  1.00  0.00     0.210 C 
ENDBRANCH  15  19
BRANCH  16  21
HETATM   21  O   UNL     1     -42.916  58.762 -58.037  1.00  0.00    -0.256 OA
BRANCH  21  22
HETATM   22  C   UNL     1     -44.180  59.009 -58.567  1.00  0.00     0.368 C 
HETATM   23  N   UNL     1     -44.411  58.293 -59.730  1.00  0.00    -0.324 N 
HETATM   24  C   UNL     1     -43.694  57.068 -60.076  1.00  0.00     0.154 C 
HETATM   25  C   UNL     1     -45.651  58.488 -60.475  1.00  0.00     0.154 C 
HETATM   26  C   UNL     1     -44.648  55.867 -59.978  1.00  0.00     0.187 C 
HETATM   27  O   UNL     1     -45.819  56.069 -60.790  1.00  0.00    -0.388 OA
HETATM   28  C   UNL     1     -46.537  57.244 -60.369  1.00  0.00     0.187 C 
HETATM   29  O   UNL     1     -45.013  59.775 -58.087  1.00  0.00    -0.238 OA
ENDBRANCH  21  22
ENDBRANCH  16  21
BRANCH  17  30
HETATM   30  O   UNL     1     -43.842  56.617 -56.654  1.00  0.00    -0.353 OA
HETATM   31  C   UNL     1     -42.888  55.556 -56.681  1.00  0.00     0.210 C 
ENDBRANCH  17  30
ENDBRANCH   1  13
BRANCH   5  32
HETATM   32  N   UNL     1     -43.973  62.384 -50.742  1.00  0.00    -0.282 NA
HETATM   33  H   UNL     1     -43.872  63.140 -51.416  1.00  0.00     0.126 HD
HETATM   34  H   UNL     1     -43.677  62.655 -49.807  1.00  0.00     0.126 HD
ENDBRANCH   5  32
BRANCH  12  35
HETATM   35  C   UNL     1     -41.061  56.403 -52.084  1.00  0.00    -0.005 A 
HETATM   36  C   UNL     1     -41.432  55.254 -51.373  1.00  0.00     0.015 A 
HETATM   37  C   UNL     1     -41.387  53.996 -51.985  1.00  0.00     0.020 A 
HETATM   38  C   UNL     1     -40.963  53.883 -53.308  1.00  0.00     0.011 A 
HETATM   39 BR   UNL     1     -40.895  52.181 -54.128  1.00  0.00    -0.051 Br
HETATM   40  C   UNL     1     -40.579  55.012 -54.025  1.00  0.00     0.020 A 
HETATM   41  C   UNL     1     -40.628  56.267 -53.412  1.00  0.00     0.015 A 
ENDBRANCH  12  35
TORSDOF 7
ENDMDL
MODEL 6
REMARK VINA RESULT:      -7.3      3.166      5.504
REMARK  7 active torsions:
REMARK  status: ('A' for Active; 'I' for Inactive)
REMARK    1  A    between atoms: O_2  and  C_3 
REMARK    2  A    between atoms: C_4  and  O_5 
REMARK    3  A    between atoms: O_5  and  C_6 
REMARK       I    between atoms: C_6  and  N_7 
REMARK    4  A    between atoms: C_14  and  O_15 
REMARK    5  A    between atoms: C_18  and  C_19 
REMARK    6  A    between atoms: C_23  and  N_24 
REMARK    7  A    between atoms: C_31  and  C_32 
ROOT
HETATM    1  C   UNL     1     -42.706  54.992 -52.961  1.00  0.00     0.106 A 
HETATM    2  C   UNL     1     -42.445  54.259 -51.636  1.00  0.00     0.081 A 
HETATM    3  C   UNL     1     -43.455  54.365 -50.635  1.00  0.00     0.100 C 
HETATM    4  N   UNL     1     -44.294  54.448 -49.837  1.00  0.00    -0.191 NA
HETATM    5  C   UNL     1     -41.347  53.484 -51.421  1.00  0.00     0.140 A 
HETATM    6  O   UNL     1     -40.375  53.282 -52.413  1.00  0.00    -0.279 OA
HETATM    7  C   UNL     1     -40.630  53.810 -53.602  1.00  0.00     0.175 A 
HETATM    8  C   UNL     1     -41.682  54.607 -53.975  1.00  0.00     0.040 A 
HETATM    9  N   UNL     1     -39.851  53.641 -54.698  1.00  0.00    -0.256 N 
HETATM   10  H   UNL     1     -38.994  53.105 -54.783  1.00  0.00     0.191 HD
HETATM   11  N   UNL     1     -40.323  54.292 -55.775  1.00  0.00    -0.172 NA
HETATM   12  C   UNL     1     -41.469  54.869 -55.360  1.00  0.00     0.099 A 
ENDROOT
BRANCH   1  13
HETATM   13  C   UNL     1     -42.670  56.511 -52.787  1.00  0.00    -0.039 C 
HETATM   14  C   UNL     1     -41.478  57.249 -52.614  1.00  0.00     0.048 C 
HETATM   15  C   UNL     1     -41.505  58.618 -52.329  1.00  0.00     0.105 C 
HETATM   16  C   UNL     1     -42.739  59.235 -52.103  1.00  0.00     0.147 C 
HETATM   17  C   UNL     1     -43.931  58.554 -52.343  1.00  0.00     0.105 C 
HETATM   18  C   UNL     1     -43.897  57.198 -52.674  1.00  0.00     0.048 C 
BRANCH  15  19
HETATM   19  O   UNL     1     -40.382  59.392 -52.197  1.00  0.00    -0.353 OA
HETATM   20  C   UNL     1     -39.653  59.198 -50.990  1.00  0.00     0.210 C 
ENDBRANCH  15  19
BRANCH  16  21
HETATM   21  O   UNL     1     -42.812  60.566 -51.674  1.00  0.00    -0.256 OA
BRANCH  21  22
HETATM   22  C   UNL     1     -43.174  61.446 -52.690  1.00  0.00     0.368 C 
HETATM   23  N   UNL     1     -44.294  62.193 -52.365  1.00  0.00    -0.324 N 
HETATM   24  C   UNL     1     -44.726  62.438 -50.991  1.00  0.00     0.154 C 
HETATM   25  C   UNL     1     -44.870  63.110 -53.344  1.00  0.00     0.154 C 
HETATM   26  C   UNL     1     -44.500  63.917 -50.636  1.00  0.00     0.187 C 
HETATM   27  O   UNL     1     -45.152  64.782 -51.583  1.00  0.00    -0.388 OA
HETATM   28  C   UNL     1     -44.646  64.561 -52.912  1.00  0.00     0.187 C 
HETATM   29  O   UNL     1     -42.592  61.563 -53.767  1.00  0.00    -0.238 OA
ENDBRANCH  21  22
ENDBRANCH  16  21
BRANCH  17  30
HETATM   30  O   UNL     1     -45.118  59.216 -52.162  1.00  0.00    -0.353 OA
HETATM   31  C   UNL     1     -45.781  58.786 -50.974  1.00  0.00     0.210 C 
ENDBRANCH  17  30
ENDBRANCH   1  13
BRANCH   5  32
HETATM   32  N   UNL     1     -41.061  52.812 -50.252  1.00  0.00    -0.282 NA
HETATM   33  H   UNL     1     -40.241  53.144 -49.750  1.00  0.00     0.126 HD
HETATM   34  H   UNL     1     -41.050  51.803 -50.390  1.00  0.00     0.126 HD
ENDBRANCH   5  32
BRANCH  12  35
HETATM   35  C   UNL     1     -42.271  55.664 -56.290  1.00  0.00    -0.005 A 
HETATM   36  C   UNL     1     -42.948  55.072 -57.365  1.00  0.00     0.015 A 
HETATM   37  C   UNL     1     -43.704  55.854 -58.244  1.00  0.00     0.020 A 
HETATM   38  C   UNL     1     -43.780  57.233 -58.056  1.00  0.00     0.011 A 
HETATM   39 BR   UNL     1     -44.796  58.288 -59.251  1.00  0.00    -0.051 Br
HETATM   40  C   UNL     1     -43.105  57.840 -57.001  1.00  0.00     0.020 A 
HETATM   41  C   UNL     1     -42.352  57.056 -56.123  1.00  0.00     0.015 A 
ENDBRANCH  12  35
TORSDOF 7
ENDMDL
MODEL 7
REMARK VINA RESULT:      -7.3      2.216      7.359
REMARK  7 active torsions:
REMARK  status: ('A' for Active; 'I' for Inactive)
REMARK    1  A    between atoms: O_2  and  C_3 
REMARK    2  A    between atoms: C_4  and  O_5 
REMARK    3  A    between atoms: O_5  and  C_6 
REMARK       I    between atoms: C_6  and  N_7 
REMARK    4  A    between atoms: C_14  and  O_15 
REMARK    5  A    between atoms: C_18  and  C_19 
REMARK    6  A    between atoms: C_23  and  N_24 
REMARK    7  A    between atoms: C_31  and  C_32 
ROOT
HETATM    1  C   UNL     1     -43.675  58.993 -51.773  1.00  0.00     0.106 A 
HETATM    2  C   UNL     1     -44.434  60.208 -51.216  1.00  0.00     0.081 A 
HETATM    3  C   UNL     1     -45.838  60.253 -51.460  1.00  0.00     0.100 C 
HETATM    4  N   UNL     1     -46.982  60.268 -51.655  1.00  0.00    -0.191 NA
HETATM    5  C   UNL     1     -43.838  61.173 -50.464  1.00  0.00     0.140 A 
HETATM    6  O   UNL     1     -42.477  61.116 -50.126  1.00  0.00    -0.279 OA
HETATM    7  C   UNL     1     -41.823  60.024 -50.498  1.00  0.00     0.175 A 
HETATM    8  C   UNL     1     -42.278  58.971 -51.251  1.00  0.00     0.040 A 
HETATM    9  N   UNL     1     -40.533  59.758 -50.180  1.00  0.00    -0.256 N 
HETATM   10  H   UNL     1     -39.894  60.320 -49.630  1.00  0.00     0.191 HD
HETATM   11  N   UNL     1     -40.104  58.591 -50.691  1.00  0.00    -0.172 NA
HETATM   12  C   UNL     1     -41.174  58.074 -51.328  1.00  0.00     0.099 A 
ENDROOT
BRANCH   1  13
HETATM   13  C   UNL     1     -43.621  59.010 -53.302  1.00  0.00    -0.039 C 
HETATM   14  C   UNL     1     -43.734  57.851 -54.101  1.00  0.00     0.048 C 
HETATM   15  C   UNL     1     -43.547  57.901 -55.486  1.00  0.00     0.105 C 
HETATM   16  C   UNL     1     -43.133  59.103 -56.067  1.00  0.00     0.147 C 
HETATM   17  C   UNL     1     -43.090  60.279 -55.320  1.00  0.00     0.105 C 
HETATM   18  C   UNL     1     -43.323  60.231 -53.944  1.00  0.00     0.048 C 
BRANCH  15  19
HETATM   19  O   UNL     1     -43.690  56.819 -56.315  1.00  0.00    -0.353 OA
HETATM   20  C   UNL     1     -43.505  55.553 -55.691  1.00  0.00     0.210 C 
ENDBRANCH  15  19
BRANCH  16  21
HETATM   21  O   UNL     1     -42.794  59.169 -57.424  1.00  0.00    -0.256 OA
BRANCH  21  22
HETATM   22  C   UNL     1     -43.889  58.998 -58.267  1.00  0.00     0.368 C 
HETATM   23  N   UNL     1     -43.564  58.294 -59.415  1.00  0.00    -0.324 N 
HETATM   24  C   UNL     1     -42.415  57.397 -59.509  1.00  0.00     0.154 C 
HETATM   25  C   UNL     1     -44.566  58.091 -60.457  1.00  0.00     0.154 C 
HETATM   26  C   UNL     1     -42.904  55.942 -59.598  1.00  0.00     0.187 C 
HETATM   27  O   UNL     1     -43.828  55.772 -60.688  1.00  0.00    -0.388 OA
HETATM   28  C   UNL     1     -44.980  56.619 -60.519  1.00  0.00     0.187 C 
HETATM   29  O   UNL     1     -45.023  59.419 -58.050  1.00  0.00    -0.238 OA
ENDBRANCH  21  22
ENDBRANCH  16  21
BRANCH  17  30
HETATM   30  O   UNL     1     -42.731  61.445 -55.944  1.00  0.00    -0.353 OA
HETATM   31  C   UNL     1     -43.847  62.321 -56.096  1.00  0.00     0.210 C 
ENDBRANCH  17  30
ENDBRANCH   1  13
BRANCH   5  32
HETATM   32  N   UNL     1     -44.469  62.283 -49.945  1.00  0.00    -0.282 NA
HETATM   33  H   UNL     1     -44.842  62.931 -50.635  1.00  0.00     0.126 HD
HETATM   34  H   UNL     1     -43.897  62.749 -49.244  1.00  0.00     0.126 HD
ENDBRANCH   5  32
BRANCH  12  35
HETATM   35  C   UNL     1     -41.073  56.780 -52.005  1.00  0.00    -0.005 A 
HETATM   36  C   UNL     1     -40.691  56.685 -53.350  1.00  0.00     0.015 A 
HETATM   37  C   UNL     1     -40.607  55.437 -53.976  1.00  0.00     0.020 A 
HETATM   38  C   UNL     1     -40.911  54.280 -53.261  1.00  0.00     0.011 A 
HETATM   39 BR   UNL     1     -40.805  52.596 -54.113  1.00  0.00    -0.051 Br
HETATM   40  C   UNL     1     -41.303  54.356 -51.928  1.00  0.00     0.020 A 
HETATM   41  C   UNL     1     -41.385  55.604 -51.305  1.00  0.00     0.015 A 
ENDBRANCH  12  35
TORSDOF 7
ENDMDL
MODEL 8
REMARK VINA RESULT:      -6.7      1.753      2.488
REMARK  7 active torsions:
REMARK  status: ('A' for Active; 'I' for Inactive)
REMARK    1  A    between atoms: O_2  and  C_3 
REMARK    2  A    between atoms: C_4  and  O_5 
REMARK    3  A    between atoms: O_5  and  C_6 
REMARK       I    between atoms: C_6  and  N_7 
REMARK    4  A    between atoms: C_14  and  O_15 
REMARK    5  A    between atoms: C_18  and  C_19 
REMARK    6  A    between atoms: C_23  and  N_24 
REMARK    7  A    between atoms: C_31  and  C_32 
ROOT
HETATM    1  C   UNL     1     -42.141  59.508 -57.878  1.00  0.00     0.106 A 
HETATM    2  C   UNL     1     -41.873  60.589 -58.936  1.00  0.00     0.081 A 
HETATM    3  C   UNL     1     -40.802  61.493 -58.671  1.00  0.00     0.100 C 
HETATM    4  N   UNL     1     -39.918  62.211 -58.447  1.00  0.00    -0.191 NA
HETATM    5  C   UNL     1     -42.559  60.665 -60.109  1.00  0.00     0.140 A 
HETATM    6  O   UNL     1     -43.558  59.739 -60.446  1.00  0.00    -0.279 OA
HETATM    7  C   UNL     1     -43.734  58.730 -59.603  1.00  0.00     0.175 A 
HETATM    8  C   UNL     1     -43.126  58.513 -58.392  1.00  0.00     0.040 A 
HETATM    9  N   UNL     1     -44.587  57.699 -59.812  1.00  0.00    -0.256 N 
HETATM   10  H   UNL     1     -45.194  57.536 -60.607  1.00  0.00     0.191 HD
HETATM   11  N   UNL     1     -44.587  56.814 -58.799  1.00  0.00    -0.172 NA
HETATM   12  C   UNL     1     -43.670  57.281 -57.927  1.00  0.00     0.099 A 
ENDROOT
BRANCH   1  13
HETATM   13  C   UNL     1     -42.689  60.106 -56.580  1.00  0.00    -0.039 C 
HETATM   14  C   UNL     1     -43.768  61.015 -56.535  1.00  0.00     0.048 C 
HETATM   15  C   UNL     1     -44.147  61.634 -55.339  1.00  0.00     0.105 C 
HETATM   16  C   UNL     1     -43.369  61.427 -54.196  1.00  0.00     0.147 C 
HETATM   17  C   UNL     1     -42.349  60.478 -54.191  1.00  0.00     0.105 C 
HETATM   18  C   UNL     1     -42.005  59.828 -55.378  1.00  0.00     0.048 C 
BRANCH  15  19
HETATM   19  O   UNL     1     -45.214  62.488 -55.227  1.00  0.00    -0.353 OA
HETATM   20  C   UNL     1     -46.454  61.969 -55.691  1.00  0.00     0.210 C 
ENDBRANCH  15  19
BRANCH  16  21
HETATM   21  O   UNL     1     -43.620  62.135 -53.014  1.00  0.00    -0.256 OA
BRANCH  21  22
HETATM   22  C   UNL     1     -44.428  61.434 -52.123  1.00  0.00     0.368 C 
HETATM   23  N   UNL     1     -43.977  61.530 -50.817  1.00  0.00    -0.324 N 
HETATM   24  C   UNL     1     -43.122  62.614 -50.340  1.00  0.00     0.154 C 
HETATM   25  C   UNL     1     -44.649  60.789 -49.754  1.00  0.00     0.154 C 
HETATM   26  C   UNL     1     -43.921  63.520 -49.389  1.00  0.00     0.187 C 
HETATM   27  O   UNL     1     -44.500  62.759 -48.314  1.00  0.00    -0.388 OA
HETATM   28  C   UNL     1     -45.392  61.750 -48.822  1.00  0.00     0.187 C 
HETATM   29  O   UNL     1     -45.428  60.788 -52.430  1.00  0.00    -0.238 OA
ENDBRANCH  21  22
ENDBRANCH  16  21
BRANCH  17  30
HETATM   30  O   UNL     1     -41.648  60.269 -53.032  1.00  0.00    -0.353 OA
HETATM   31  C   UNL     1     -40.901  59.054 -53.085  1.00  0.00     0.210 C 
ENDBRANCH  17  30
ENDBRANCH   1  13
BRANCH   5  32
HETATM   32  N   UNL     1     -42.362  61.615 -61.087  1.00  0.00    -0.282 NA
HETATM   33  H   UNL     1     -43.011  61.571 -61.871  1.00  0.00     0.126 HD
HETATM   34  H   UNL     1     -41.391  61.652 -61.389  1.00  0.00     0.126 HD
ENDBRANCH   5  32
BRANCH  12  35
HETATM   35  C   UNL     1     -43.394  56.551 -56.690  1.00  0.00    -0.005 A 
HETATM   36  C   UNL     1     -42.560  55.424 -56.674  1.00  0.00     0.015 A 
HETATM   37  C   UNL     1     -42.316  54.740 -55.479  1.00  0.00     0.020 A 
HETATM   38  C   UNL     1     -42.910  55.175 -54.296  1.00  0.00     0.011 A 
HETATM   39 BR   UNL     1     -42.584  54.242 -52.684  1.00  0.00    -0.051 Br
HETATM   40  C   UNL     1     -43.750  56.284 -54.294  1.00  0.00     0.020 A 
HETATM   41  C   UNL     1     -43.991  56.967 -55.489  1.00  0.00     0.015 A 
ENDBRANCH  12  35
TORSDOF 7
ENDMDL
MODEL 9
REMARK VINA RESULT:      -6.7     18.520     22.176
REMARK  7 active torsions:
REMARK  status: ('A' for Active; 'I' for Inactive)
REMARK    1  A    between atoms: O_2  and  C_3 
REMARK    2  A    between atoms: C_4  and  O_5 
REMARK    3  A    between atoms: O_5  and  C_6 
REMARK       I    between atoms: C_6  and  N_7 
REMARK    4  A    between atoms: C_14  and  O_15 
REMARK    5  A    between atoms: C_18  and  C_19 
REMARK    6  A    between atoms: C_23  and  N_24 
REMARK    7  A    between atoms: C_31  and  C_32 
ROOT
HETATM    1  C   UNL     1     -34.881  38.709 -52.657  1.00  0.00     0.106 A 
HETATM    2  C   UNL     1     -35.899  38.900 -51.521  1.00  0.00     0.081 A 
HETATM    3  C   UNL     1     -36.906  37.899 -51.389  1.00  0.00     0.100 C 
HETATM    4  N   UNL     1     -37.710  37.069 -51.286  1.00  0.00    -0.191 NA
HETATM    5  C   UNL     1     -35.829  39.923 -50.627  1.00  0.00     0.140 A 
HETATM    6  O   UNL     1     -34.800  40.877 -50.668  1.00  0.00    -0.279 OA
HETATM    7  C   UNL     1     -33.846  40.674 -51.568  1.00  0.00     0.175 A 
HETATM    8  C   UNL     1     -33.772  39.698 -52.529  1.00  0.00     0.040 A 
HETATM    9  N   UNL     1     -32.734  41.439 -51.689  1.00  0.00    -0.256 N 
HETATM   10  H   UNL     1     -32.462  42.244 -51.137  1.00  0.00     0.191 HD
HETATM   11  N   UNL     1     -31.931  41.030 -52.687  1.00  0.00    -0.172 NA
HETATM   12  C   UNL     1     -32.537  39.938 -53.198  1.00  0.00     0.099 A 
ENDROOT
BRANCH   1  13
HETATM   13  C   UNL     1     -35.528  38.881 -54.033  1.00  0.00    -0.039 C 
HETATM   14  C   UNL     1     -36.403  39.940 -54.358  1.00  0.00     0.048 C 
HETATM   15  C   UNL     1     -37.070  39.981 -55.587  1.00  0.00     0.105 C 
HETATM   16  C   UNL     1     -36.947  38.894 -56.457  1.00  0.00     0.147 C 
HETATM   17  C   UNL     1     -36.032  37.875 -56.200  1.00  0.00     0.105 C 
HETATM   18  C   UNL     1     -35.333  37.863 -54.991  1.00  0.00     0.048 C 
BRANCH  15  19
HETATM   19  O   UNL     1     -37.894  41.005 -55.974  1.00  0.00    -0.353 OA
HETATM   20  C   UNL     1     -37.236  42.236 -56.253  1.00  0.00     0.210 C 
ENDBRANCH  15  19
BRANCH  16  21
HETATM   21  O   UNL     1     -37.705  38.821 -57.632  1.00  0.00    -0.256 OA
BRANCH  21  22
HETATM   22  C   UNL     1     -36.994  39.211 -58.763  1.00  0.00     0.368 C 
HETATM   23  N   UNL     1     -37.188  38.349 -59.830  1.00  0.00    -0.324 N 
HETATM   24  C   UNL     1     -38.354  37.477 -59.957  1.00  0.00     0.154 C 
HETATM   25  C   UNL     1     -36.455  38.550 -61.076  1.00  0.00     0.154 C 
HETATM   26  C   UNL     1     -39.246  37.976 -61.105  1.00  0.00     0.187 C 
HETATM   27  O   UNL     1     -38.501  38.084 -62.331  1.00  0.00    -0.388 OA
HETATM   28  C   UNL     1     -37.406  39.007 -62.186  1.00  0.00     0.187 C 
HETATM   29  O   UNL     1     -36.262  40.197 -58.837  1.00  0.00    -0.238 OA
ENDBRANCH  21  22
ENDBRANCH  16  21
BRANCH  17  30
HETATM   30  O   UNL     1     -35.904  36.857 -57.109  1.00  0.00    -0.353 OA
HETATM   31  C   UNL     1     -34.543  36.660 -57.487  1.00  0.00     0.210 C 
ENDBRANCH  17  30
ENDBRANCH   1  13
BRANCH   5  32
HETATM   32  N   UNL     1     -36.716  40.143 -49.596  1.00  0.00    -0.282 NA
HETATM   33  H   UNL     1     -36.330  40.625 -48.787  1.00  0.00     0.126 HD
HETATM   34  H   UNL     1     -37.216  39.295 -49.340  1.00  0.00     0.126 HD
ENDBRANCH   5  32
BRANCH  12  35
HETATM   35  C   UNL     1     -31.928  39.214 -54.313  1.00  0.00    -0.005 A 
HETATM   36  C   UNL     1     -31.318  37.965 -54.130  1.00  0.00     0.015 A 
HETATM   37  C   UNL     1     -30.737  37.294 -55.211  1.00  0.00     0.020 A 
HETATM   38  C   UNL     1     -30.757  37.873 -56.479  1.00  0.00     0.011 A 
HETATM   39 BR   UNL     1     -29.964  36.967 -57.936  1.00  0.00    -0.051 Br
HETATM   40  C   UNL     1     -31.347  39.117 -56.678  1.00  0.00     0.020 A 
HETATM   41  C   UNL     1     -31.928  39.785 -55.596  1.00  0.00     0.015 A 
ENDBRANCH  12  35
TORSDOF 7
ENDMDL
MODEL 10
REMARK VINA RESULT:      -6.7      2.536      6.991
REMARK  7 active torsions:
REMARK  status: ('A' for Active; 'I' for Inactive)
REMARK    1  A    between atoms: O_2  and  C_3 
REMARK    2  A    between atoms: C_4  and  O_5 
REMARK    3  A    between atoms: O_5  and  C_6 
REMARK       I    between atoms: C_6  and  N_7 
REMARK    4  A    between atoms: C_14  and  O_15 
REMARK    5  A    between atoms: C_18  and  C_19 
REMARK    6  A    between atoms: C_23  and  N_24 
REMARK    7  A    between atoms: C_31  and  C_32 
ROOT
HETATM    1  C   UNL     1     -43.765  59.346 -52.005  1.00  0.00     0.106 A 
HETATM    2  C   UNL     1     -44.541  60.539 -51.424  1.00  0.00     0.081 A 
HETATM    3  C   UNL     1     -45.931  60.610 -51.732  1.00  0.00     0.100 C 
HETATM    4  N   UNL     1     -47.064  60.645 -51.979  1.00  0.00    -0.191 NA
HETATM    5  C   UNL     1     -43.974  61.460 -50.597  1.00  0.00     0.140 A 
HETATM    6  O   UNL     1     -42.632  61.373 -50.198  1.00  0.00    -0.279 OA
HETATM    7  C   UNL     1     -41.969  60.294 -50.594  1.00  0.00     0.175 A 
HETATM    8  C   UNL     1     -42.395  59.285 -51.418  1.00  0.00     0.040 A 
HETATM    9  N   UNL     1     -40.697  60.001 -50.229  1.00  0.00    -0.256 N 
HETATM   10  H   UNL     1     -40.080  60.528 -49.621  1.00  0.00     0.191 HD
HETATM   11  N   UNL     1     -40.253  58.856 -50.777  1.00  0.00    -0.172 NA
HETATM   12  C   UNL     1     -41.294  58.382 -51.489  1.00  0.00     0.099 A 
ENDROOT
BRANCH   1  13
HETATM   13  C   UNL     1     -43.638  59.439 -53.527  1.00  0.00    -0.039 C 
HETATM   14  C   UNL     1     -43.355  60.639 -54.215  1.00  0.00     0.048 C 
HETATM   15  C   UNL     1     -43.378  60.698 -55.612  1.00  0.00     0.105 C 
HETATM   16  C   UNL     1     -43.797  59.573 -56.328  1.00  0.00     0.147 C 
HETATM   17  C   UNL     1     -44.005  58.355 -55.684  1.00  0.00     0.105 C 
HETATM   18  C   UNL     1     -43.935  58.290 -54.291  1.00  0.00     0.048 C 
BRANCH  15  19
HETATM   19  O   UNL     1     -43.068  61.822 -56.333  1.00  0.00    -0.353 OA
HETATM   20  C   UNL     1     -43.407  63.054 -55.706  1.00  0.00     0.210 C 
ENDBRANCH  15  19
BRANCH  16  21
HETATM   21  O   UNL     1     -43.975  59.626 -57.716  1.00  0.00    -0.256 OA
BRANCH  21  22
HETATM   22  C   UNL     1     -42.774  59.704 -58.416  1.00  0.00     0.368 C 
HETATM   23  N   UNL     1     -42.881  60.478 -59.559  1.00  0.00    -0.324 N 
HETATM   24  C   UNL     1     -43.909  61.500 -59.745  1.00  0.00     0.154 C 
HETATM   25  C   UNL     1     -41.744  60.605 -60.465  1.00  0.00     0.154 C 
HETATM   26  C   UNL     1     -43.262  62.894 -59.707  1.00  0.00     0.187 C 
HETATM   27  O   UNL     1     -42.199  62.999 -60.671  1.00  0.00    -0.388 OA
HETATM   28  C   UNL     1     -41.172  62.024 -60.409  1.00  0.00     0.187 C 
HETATM   29  O   UNL     1     -41.725  59.153 -58.087  1.00  0.00    -0.238 OA
ENDBRANCH  21  22
ENDBRANCH  16  21
BRANCH  17  30
HETATM   30  O   UNL     1     -44.361  57.264 -56.433  1.00  0.00    -0.353 OA
HETATM   31  C   UNL     1     -43.263  56.370 -56.610  1.00  0.00     0.210 C 
ENDBRANCH  17  30
ENDBRANCH   1  13
BRANCH   5  32
HETATM   32  N   UNL     1     -44.621  62.548 -50.054  1.00  0.00    -0.282 NA
HETATM   33  H   UNL     1     -44.957  63.234 -50.727  1.00  0.00     0.126 HD
HETATM   34  H   UNL     1     -44.080  62.974 -49.304  1.00  0.00     0.126 HD
ENDBRANCH   5  32
BRANCH  12  35
HETATM   35  C   UNL     1     -41.170  57.123 -52.224  1.00  0.00    -0.005 A 
HETATM   36  C   UNL     1     -40.737  57.091 -53.556  1.00  0.00     0.015 A 
HETATM   37  C   UNL     1     -40.632  55.876 -54.239  1.00  0.00     0.020 A 
HETATM   38  C   UNL     1     -40.967  54.686 -53.594  1.00  0.00     0.011 A 
HETATM   39 BR   UNL     1     -40.832  53.045 -54.523  1.00  0.00    -0.051 Br
HETATM   40  C   UNL     1     -41.411  54.699 -52.276  1.00  0.00     0.020 A 
HETATM   41  C   UNL     1     -41.513  55.915 -51.595  1.00  0.00     0.015 A 
ENDBRANCH  12  35
TORSDOF 7
ENDMDL
