MODEL 1
REMARK VINA RESULT:      -7.5      0.000      0.000
REMARK  9 active torsions:
REMARK  status: ('A' for Active; 'I' for Inactive)
REMARK    1  A    between atoms: C_2  and  C_3 
REMARK    2  A    between atoms: C_7  and  C_8 
REMARK    3  A    between atoms: C_8  and  C_9 
REMARK       I    between atoms: C_9  and  N_10 
REMARK    4  A    between atoms: N_10  and  C_11 
REMARK    5  A    between atoms: C_11  and  C_12 
REMARK    6  A    between atoms: C_12  and  C_13 
REMARK    7  A    between atoms: C_21  and  C_22 
REMARK    8  A    between atoms: C_32  and  C_33 
REMARK    9  A    between atoms: C_33  and  O_34 
ROOT
HETATM    1  C   UNL     1     -41.605  60.713 -58.055  1.00  0.00     0.051 C 
HETATM    2  N   UNL     1     -41.369  60.679 -56.694  1.00  0.00    -0.228 NA
HETATM    3  C   UNL     1     -42.211  60.034 -55.961  1.00  0.00     0.170 C 
HETATM    4  N   UNL     1     -43.271  58.993 -56.491  1.00  0.00    -0.318 N 
HETATM    5  C   UNL     1     -43.781  58.376 -55.472  1.00  0.00     0.011 C 
HETATM    6  C   UNL     1     -43.056  58.702 -57.924  1.00  0.00     0.166 C 
HETATM    7  S   UNL     1     -42.210  60.143 -54.225  1.00  0.00    -0.086 SA
HETATM    8  C   UNL     1     -43.717  59.140 -54.167  1.00  0.00     0.135 C 
HETATM    9  C   UNL     1     -42.547  59.931 -58.624  1.00  0.00     0.069 C 
ENDROOT
BRANCH   5  10
HETATM   10  C   UNL     1     -44.096  56.905 -55.482  1.00  0.00     0.156 C 
BRANCH  10  11
HETATM   11  C   UNL     1     -43.040  56.208 -54.643  1.00  0.00     0.222 C 
HETATM   12  N   UNL     1     -41.777  56.143 -55.171  1.00  0.00    -0.361 N 
HETATM   13  H   UNL     1     -41.523  56.765 -55.935  1.00  0.00     0.162 HD
HETATM   14  O   UNL     1     -43.361  55.658 -53.590  1.00  0.00    -0.273 OA
BRANCH  12  15
HETATM   15  C   UNL     1     -40.693  55.478 -54.455  1.00  0.00     0.124 C 
BRANCH  15  16
HETATM   16  C   UNL     1     -40.483  54.036 -54.940  1.00  0.00     0.053 C 
BRANCH  16  17
HETATM   17  C   UNL     1     -41.066  52.989 -53.975  1.00  0.00     0.189 C 
HETATM   18  N   UNL     1     -40.464  53.218 -52.578  1.00  0.00    -0.071 N 
HETATM   19  H   UNL     1     -39.810  54.010 -52.617  1.00  0.00     0.279 HD
HETATM   20  C   UNL     1     -41.480  53.555 -51.523  1.00  0.00     0.270 C 
HETATM   21  C   UNL     1     -39.639  51.994 -52.215  1.00  0.00     0.235 C 
HETATM   22  C   UNL     1     -39.381  51.326 -53.548  1.00  0.00     0.030 C 
HETATM   23  C   UNL     1     -40.681  51.545 -54.294  1.00  0.00     0.035 C 
ENDBRANCH  16  17
ENDBRANCH  15  16
ENDBRANCH  12  15
ENDBRANCH  10  11
ENDBRANCH   5  10
BRANCH   6  24
HETATM   24  C   UNL     1     -44.187  57.977 -58.652  1.00  0.00    -0.024 A 
HETATM   25  C   UNL     1     -43.895  56.994 -59.634  1.00  0.00    -0.053 A 
HETATM   26  C   UNL     1     -42.489  56.571 -59.979  1.00  0.00     0.049 C 
HETATM   27  C   UNL     1     -44.947  56.388 -60.341  1.00  0.00     0.014 A 
HETATM   28  C   UNL     1     -46.280  56.738 -60.112  1.00  0.00    -0.061 A 
HETATM   29  C   UNL     1     -47.378  56.141 -60.945  1.00  0.00     0.048 C 
HETATM   30  C   UNL     1     -46.564  57.722 -59.167  1.00  0.00     0.007 A 
HETATM   31  C   UNL     1     -45.536  58.332 -58.445  1.00  0.00     0.011 A 
ENDBRANCH   6  24
BRANCH   9  32
HETATM   32  C   UNL     1     -43.497  60.699 -59.454  1.00  0.00     0.293 C 
HETATM   33  O   UNL     1     -44.256  61.493 -58.915  1.00  0.00    -0.259 OA
BRANCH  32  34
HETATM   34  O   UNL     1     -43.342  60.475 -60.770  1.00  0.00    -0.323 OA
HETATM   35  C   UNL     1     -44.589  60.351 -61.464  1.00  0.00     0.213 C 
ENDBRANCH  32  34
ENDBRANCH   9  32
BRANCH   1  36
HETATM   36  C   UNL     1     -40.837  61.800 -58.793  1.00  0.00     0.056 C 
HETATM   37  C   UNL     1     -41.162  63.184 -58.233  1.00  0.00     0.011 C 
ENDBRANCH   1  36
TORSDOF 9
ENDMDL
MODEL 2
REMARK VINA RESULT:      -7.3      2.541      7.770
REMARK  9 active torsions:
REMARK  status: ('A' for Active; 'I' for Inactive)
REMARK    1  A    between atoms: C_2  and  C_3 
REMARK    2  A    between atoms: C_7  and  C_8 
REMARK    3  A    between atoms: C_8  and  C_9 
REMARK       I    between atoms: C_9  and  N_10 
REMARK    4  A    between atoms: N_10  and  C_11 
REMARK    5  A    between atoms: C_11  and  C_12 
REMARK    6  A    between atoms: C_12  and  C_13 
REMARK    7  A    between atoms: C_21  and  C_22 
REMARK    8  A    between atoms: C_32  and  C_33 
REMARK    9  A    between atoms: C_33  and  O_34 
ROOT
HETATM    1  C   UNL     1     -42.975  58.903 -53.637  1.00  0.00     0.051 C 
HETATM    2  N   UNL     1     -43.388  59.457 -54.832  1.00  0.00    -0.228 NA
HETATM    3  C   UNL     1     -43.063  58.841 -55.917  1.00  0.00     0.170 C 
HETATM    4  N   UNL     1     -42.556  57.350 -56.002  1.00  0.00    -0.318 N 
HETATM    5  C   UNL     1     -42.547  56.992 -57.247  1.00  0.00     0.011 C 
HETATM    6  C   UNL     1     -42.678  56.675 -54.692  1.00  0.00     0.166 C 
HETATM    7  S   UNL     1     -43.258  59.558 -57.490  1.00  0.00    -0.086 SA
HETATM    8  C   UNL     1     -42.426  58.132 -58.236  1.00  0.00     0.135 C 
HETATM    9  C   UNL     1     -42.443  57.663 -53.584  1.00  0.00     0.069 C 
ENDROOT
BRANCH   5  10
HETATM   10  C   UNL     1     -42.964  55.622 -57.706  1.00  0.00     0.156 C 
BRANCH  10  11
HETATM   11  C   UNL     1     -43.584  55.773 -59.084  1.00  0.00     0.222 C 
HETATM   12  N   UNL     1     -44.953  55.745 -59.151  1.00  0.00    -0.361 N 
HETATM   13  H   UNL     1     -45.496  55.895 -58.304  1.00  0.00     0.162 HD
HETATM   14  O   UNL     1     -42.860  55.822 -60.078  1.00  0.00    -0.273 OA
BRANCH  12  15
HETATM   15  C   UNL     1     -45.649  55.863 -60.428  1.00  0.00     0.124 C 
BRANCH  15  16
HETATM   16  C   UNL     1     -46.635  57.042 -60.439  1.00  0.00     0.053 C 
BRANCH  16  17
HETATM   17  C   UNL     1     -46.174  58.217 -59.560  1.00  0.00     0.189 C 
HETATM   18  N   UNL     1     -47.182  58.398 -58.412  1.00  0.00    -0.071 N 
HETATM   19  H   UNL     1     -47.930  57.698 -58.505  1.00  0.00     0.279 HD
HETATM   20  C   UNL     1     -46.591  58.211 -57.044  1.00  0.00     0.270 C 
HETATM   21  C   UNL     1     -47.842  59.758 -58.577  1.00  0.00     0.235 C 
HETATM   22  C   UNL     1     -47.582  60.112 -60.024  1.00  0.00     0.030 C 
HETATM   23  C   UNL     1     -46.183  59.576 -60.258  1.00  0.00     0.035 C 
ENDBRANCH  16  17
ENDBRANCH  15  16
ENDBRANCH  12  15
ENDBRANCH  10  11
ENDBRANCH   5  10
BRANCH   6  24
HETATM   24  C   UNL     1     -41.932  55.350 -54.534  1.00  0.00    -0.024 A 
HETATM   25  C   UNL     1     -42.420  54.353 -53.649  1.00  0.00    -0.053 A 
HETATM   26  C   UNL     1     -43.700  54.505 -52.867  1.00  0.00     0.049 C 
HETATM   27  C   UNL     1     -41.684  53.171 -53.465  1.00  0.00     0.014 A 
HETATM   28  C   UNL     1     -40.470  52.954 -54.123  1.00  0.00    -0.061 A 
HETATM   29  C   UNL     1     -39.659  51.722 -53.838  1.00  0.00     0.048 C 
HETATM   30  C   UNL     1     -39.978  53.945 -54.971  1.00  0.00     0.007 A 
HETATM   31  C   UNL     1     -40.697  55.125 -55.176  1.00  0.00     0.011 A 
ENDBRANCH   6  24
BRANCH   9  32
HETATM   32  C   UNL     1     -41.136  57.633 -52.896  1.00  0.00     0.293 C 
HETATM   33  O   UNL     1     -40.189  58.234 -53.385  1.00  0.00    -0.259 OA
BRANCH  32  34
HETATM   34  O   UNL     1     -41.179  56.985 -51.720  1.00  0.00    -0.323 OA
HETATM   35  C   UNL     1     -40.728  57.790 -50.624  1.00  0.00     0.213 C 
ENDBRANCH  32  34
ENDBRANCH   9  32
BRANCH   1  36
HETATM   36  C   UNL     1     -43.026  59.860 -52.455  1.00  0.00     0.056 C 
HETATM   37  C   UNL     1     -44.070  59.419 -51.430  1.00  0.00     0.011 C 
ENDBRANCH   1  36
TORSDOF 9
ENDMDL
MODEL 3
REMARK VINA RESULT:      -6.8      2.737      8.582
REMARK  9 active torsions:
REMARK  status: ('A' for Active; 'I' for Inactive)
REMARK    1  A    between atoms: C_2  and  C_3 
REMARK    2  A    between atoms: C_7  and  C_8 
REMARK    3  A    between atoms: C_8  and  C_9 
REMARK       I    between atoms: C_9  and  N_10 
REMARK    4  A    between atoms: N_10  and  C_11 
REMARK    5  A    between atoms: C_11  and  C_12 
REMARK    6  A    between atoms: C_12  and  C_13 
REMARK    7  A    between atoms: C_21  and  C_22 
REMARK    8  A    between atoms: C_32  and  C_33 
REMARK    9  A    between atoms: C_33  and  O_34 
ROOT
HETATM    1  C   UNL     1     -41.026  54.883 -52.830  1.00  0.00     0.051 C 
HETATM    2  N   UNL     1     -41.243  54.701 -54.181  1.00  0.00    -0.228 NA
HETATM    3  C   UNL     1     -42.025  55.536 -54.776  1.00  0.00     0.170 C 
HETATM    4  N   UNL     1     -42.469  56.936 -54.202  1.00  0.00    -0.318 N 
HETATM    5  C   UNL     1     -43.056  57.598 -55.149  1.00  0.00     0.011 C 
HETATM    6  C   UNL     1     -41.723  57.263 -52.968  1.00  0.00     0.166 C 
HETATM    7  S   UNL     1     -42.618  55.271 -56.390  1.00  0.00    -0.086 SA
HETATM    8  C   UNL     1     -43.662  56.744 -56.242  1.00  0.00     0.135 C 
HETATM    9  C   UNL     1     -41.434  56.005 -52.197  1.00  0.00     0.069 C 
ENDROOT
BRANCH   5  10
HETATM   10  C   UNL     1     -42.867  59.076 -55.351  1.00  0.00     0.156 C 
BRANCH  10  11
HETATM   11  C   UNL     1     -42.671  59.311 -56.838  1.00  0.00     0.222 C 
HETATM   12  N   UNL     1     -43.804  59.425 -57.599  1.00  0.00    -0.361 N 
HETATM   13  H   UNL     1     -44.693  59.617 -57.144  1.00  0.00     0.162 HD
HETATM   14  O   UNL     1     -41.536  59.301 -57.313  1.00  0.00    -0.273 OA
BRANCH  12  15
HETATM   15  C   UNL     1     -43.728  59.634 -59.042  1.00  0.00     0.124 C 
BRANCH  15  16
HETATM   16  C   UNL     1     -44.921  59.006 -59.778  1.00  0.00     0.053 C 
BRANCH  16  17
HETATM   17  C   UNL     1     -45.210  57.563 -59.330  1.00  0.00     0.189 C 
HETATM   18  N   UNL     1     -44.758  56.602 -60.443  1.00  0.00    -0.071 N 
HETATM   19  H   UNL     1     -44.376  57.148 -61.226  1.00  0.00     0.279 HD
HETATM   20  C   UNL     1     -43.678  55.645 -60.023  1.00  0.00     0.270 C 
HETATM   21  C   UNL     1     -45.989  55.887 -60.976  1.00  0.00     0.235 C 
HETATM   22  C   UNL     1     -47.137  56.766 -60.530  1.00  0.00     0.030 C 
HETATM   23  C   UNL     1     -46.693  57.235 -59.159  1.00  0.00     0.035 C 
ENDBRANCH  16  17
ENDBRANCH  15  16
ENDBRANCH  12  15
ENDBRANCH  10  11
ENDBRANCH   5  10
BRANCH   6  24
HETATM   24  C   UNL     1     -42.267  58.415 -52.124  1.00  0.00    -0.024 A 
HETATM   25  C   UNL     1     -41.380  59.270 -51.421  1.00  0.00    -0.053 A 
HETATM   26  C   UNL     1     -39.880  59.139 -51.496  1.00  0.00     0.049 C 
HETATM   27  C   UNL     1     -41.901  60.282 -50.596  1.00  0.00     0.014 A 
HETATM   28  C   UNL     1     -43.278  60.460 -50.439  1.00  0.00    -0.061 A 
HETATM   29  C   UNL     1     -43.808  61.489 -49.481  1.00  0.00     0.048 C 
HETATM   30  C   UNL     1     -44.149  59.602 -51.109  1.00  0.00     0.007 A 
HETATM   31  C   UNL     1     -43.654  58.596 -51.941  1.00  0.00     0.011 A 
ENDBRANCH   6  24
BRANCH   9  32
HETATM   32  C   UNL     1     -42.259  55.717 -51.006  1.00  0.00     0.293 C 
HETATM   33  O   UNL     1     -43.319  55.121 -51.142  1.00  0.00    -0.259 OA
BRANCH  32  34
HETATM   34  O   UNL     1     -41.670  56.096 -49.859  1.00  0.00    -0.323 OA
HETATM   35  C   UNL     1     -41.265  54.986 -49.049  1.00  0.00     0.213 C 
ENDBRANCH  32  34
ENDBRANCH   9  32
BRANCH   1  36
HETATM   36  C   UNL     1     -40.449  53.666 -52.121  1.00  0.00     0.056 C 
HETATM   37  C   UNL     1     -40.191  52.525 -53.104  1.00  0.00     0.011 C 
ENDBRANCH   1  36
TORSDOF 9
ENDMDL
MODEL 4
REMARK VINA RESULT:      -6.8      4.295      5.929
REMARK  9 active torsions:
REMARK  status: ('A' for Active; 'I' for Inactive)
REMARK    1  A    between atoms: C_2  and  C_3 
REMARK    2  A    between atoms: C_7  and  C_8 
REMARK    3  A    between atoms: C_8  and  C_9 
REMARK       I    between atoms: C_9  and  N_10 
REMARK    4  A    between atoms: N_10  and  C_11 
REMARK    5  A    between atoms: C_11  and  C_12 
REMARK    6  A    between atoms: C_12  and  C_13 
REMARK    7  A    between atoms: C_21  and  C_22 
REMARK    8  A    between atoms: C_32  and  C_33 
REMARK    9  A    between atoms: C_33  and  O_34 
ROOT
HETATM    1  C   UNL     1     -40.806  59.272 -50.802  1.00  0.00     0.051 C 
HETATM    2  N   UNL     1     -40.734  57.904 -50.624  1.00  0.00    -0.228 NA
HETATM    3  C   UNL     1     -41.748  57.202 -50.999  1.00  0.00     0.170 C 
HETATM    4  N   UNL     1     -42.899  57.701 -51.955  1.00  0.00    -0.318 N 
HETATM    5  C   UNL     1     -43.615  56.677 -52.299  1.00  0.00     0.011 C 
HETATM    6  C   UNL     1     -42.575  59.024 -52.528  1.00  0.00     0.166 C 
HETATM    7  S   UNL     1     -41.925  55.523 -50.580  1.00  0.00    -0.086 SA
HETATM    8  C   UNL     1     -43.574  55.516 -51.330  1.00  0.00     0.135 C 
HETATM    9  C   UNL     1     -41.794  59.835 -51.531  1.00  0.00     0.069 C 
ENDROOT
BRANCH   5  10
HETATM   10  C   UNL     1     -44.166  56.496 -53.687  1.00  0.00     0.156 C 
BRANCH  10  11
HETATM   11  C   UNL     1     -43.374  55.382 -54.349  1.00  0.00     0.222 C 
HETATM   12  N   UNL     1     -42.054  55.638 -54.616  1.00  0.00    -0.361 N 
HETATM   13  H   UNL     1     -41.592  56.412 -54.145  1.00  0.00     0.162 HD
HETATM   14  O   UNL     1     -43.946  54.350 -54.697  1.00  0.00    -0.273 OA
BRANCH  12  15
HETATM   15  C   UNL     1     -41.208  54.643 -55.267  1.00  0.00     0.124 C 
BRANCH  15  16
HETATM   16  C   UNL     1     -40.212  54.005 -54.287  1.00  0.00     0.053 C 
BRANCH  16  17
HETATM   17  C   UNL     1     -40.819  52.835 -53.493  1.00  0.00     0.189 C 
HETATM   18  N   UNL     1     -39.748  52.282 -52.537  1.00  0.00    -0.071 N 
HETATM   19  H   UNL     1     -38.879  52.817 -52.656  1.00  0.00     0.279 HD
HETATM   20  C   UNL     1     -40.116  52.383 -51.083  1.00  0.00     0.270 C 
HETATM   21  C   UNL     1     -39.436  50.854 -52.956  1.00  0.00     0.235 C 
HETATM   22  C   UNL     1     -39.940  50.778 -54.381  1.00  0.00     0.030 C 
HETATM   23  C   UNL     1     -41.199  51.621 -54.340  1.00  0.00     0.035 C 
ENDBRANCH  16  17
ENDBRANCH  15  16
ENDBRANCH  12  15
ENDBRANCH  10  11
ENDBRANCH   5  10
BRANCH   6  24
HETATM   24  C   UNL     1     -43.720  59.777 -53.202  1.00  0.00    -0.024 A 
HETATM   25  C   UNL     1     -43.525  60.404 -54.461  1.00  0.00    -0.053 A 
HETATM   26  C   UNL     1     -42.226  60.327 -55.223  1.00  0.00     0.049 C 
HETATM   27  C   UNL     1     -44.570  61.149 -55.033  1.00  0.00     0.014 A 
HETATM   28  C   UNL     1     -45.799  61.302 -54.386  1.00  0.00    -0.061 A 
HETATM   29  C   UNL     1     -46.866  62.179 -54.977  1.00  0.00     0.048 C 
HETATM   30  C   UNL     1     -45.981  60.710 -53.138  1.00  0.00     0.007 A 
HETATM   31  C   UNL     1     -44.960  59.956 -52.554  1.00  0.00     0.011 A 
ENDBRANCH   6  24
BRANCH   9  32
HETATM   32  C   UNL     1     -42.505  60.902 -50.797  1.00  0.00     0.293 C 
HETATM   33  O   UNL     1     -43.073  60.629 -49.748  1.00  0.00    -0.259 OA
BRANCH  32  34
HETATM   34  O   UNL     1     -42.359  62.112 -51.363  1.00  0.00    -0.323 OA
HETATM   35  C   UNL     1     -43.398  63.026 -50.995  1.00  0.00     0.213 C 
ENDBRANCH  32  34
ENDBRANCH   9  32
BRANCH   1  36
HETATM   36  C   UNL     1     -39.791  60.061 -49.988  1.00  0.00     0.056 C 
HETATM   37  C   UNL     1     -38.363  59.620 -50.305  1.00  0.00     0.011 C 
ENDBRANCH   1  36
TORSDOF 9
ENDMDL
MODEL 5
REMARK VINA RESULT:      -6.8      1.510      2.185
REMARK  9 active torsions:
REMARK  status: ('A' for Active; 'I' for Inactive)
REMARK    1  A    between atoms: C_2  and  C_3 
REMARK    2  A    between atoms: C_7  and  C_8 
REMARK    3  A    between atoms: C_8  and  C_9 
REMARK       I    between atoms: C_9  and  N_10 
REMARK    4  A    between atoms: N_10  and  C_11 
REMARK    5  A    between atoms: C_11  and  C_12 
REMARK    6  A    between atoms: C_12  and  C_13 
REMARK    7  A    between atoms: C_21  and  C_22 
REMARK    8  A    between atoms: C_32  and  C_33 
REMARK    9  A    between atoms: C_33  and  O_34 
ROOT
HETATM    1  C   UNL     1     -41.977  60.612 -57.177  1.00  0.00     0.051 C 
HETATM    2  N   UNL     1     -41.556  60.207 -55.926  1.00  0.00    -0.228 NA
HETATM    3  C   UNL     1     -42.193  59.235 -55.369  1.00  0.00     0.170 C 
HETATM    4  N   UNL     1     -43.162  58.237 -56.112  1.00  0.00    -0.318 N 
HETATM    5  C   UNL     1     -43.439  57.261 -55.306  1.00  0.00     0.011 C 
HETATM    6  C   UNL     1     -43.107  58.436 -57.576  1.00  0.00     0.166 C 
HETATM    7  S   UNL     1     -41.970  58.809 -53.697  1.00  0.00    -0.086 SA
HETATM    8  C   UNL     1     -43.304  57.591 -53.836  1.00  0.00     0.135 C 
HETATM    9  C   UNL     1     -42.871  59.889 -57.885  1.00  0.00     0.069 C 
ENDROOT
BRANCH   5  10
HETATM   10  C   UNL     1     -43.548  55.831 -55.762  1.00  0.00     0.156 C 
BRANCH  10  11
HETATM   11  C   UNL     1     -42.301  55.106 -55.287  1.00  0.00     0.222 C 
HETATM   12  N   UNL     1     -42.487  54.066 -54.413  1.00  0.00    -0.361 N 
HETATM   13  H   UNL     1     -43.411  53.650 -54.324  1.00  0.00     0.162 HD
HETATM   14  O   UNL     1     -41.191  55.519 -55.618  1.00  0.00    -0.273 OA
BRANCH  12  15
HETATM   15  C   UNL     1     -41.356  53.315 -53.881  1.00  0.00     0.124 C 
BRANCH  15  16
HETATM   16  C   UNL     1     -40.725  54.009 -52.664  1.00  0.00     0.053 C 
BRANCH  16  17
HETATM   17  C   UNL     1     -41.359  53.576 -51.331  1.00  0.00     0.189 C 
HETATM   18  N   UNL     1     -42.034  54.799 -50.687  1.00  0.00    -0.071 N 
HETATM   19  H   UNL     1     -41.898  55.619 -51.292  1.00  0.00     0.279 HD
HETATM   20  C   UNL     1     -43.517  54.649 -50.498  1.00  0.00     0.270 C 
HETATM   21  C   UNL     1     -41.313  55.101 -49.383  1.00  0.00     0.235 C 
HETATM   22  C   UNL     1     -39.984  54.393 -49.534  1.00  0.00     0.030 C 
HETATM   23  C   UNL     1     -40.359  53.122 -50.268  1.00  0.00     0.035 C 
ENDBRANCH  16  17
ENDBRANCH  15  16
ENDBRANCH  12  15
ENDBRANCH  10  11
ENDBRANCH   5  10
BRANCH   6  24
HETATM   24  C   UNL     1     -44.216  57.782 -58.399  1.00  0.00    -0.024 A 
HETATM   25  C   UNL     1     -43.902  57.054 -59.576  1.00  0.00    -0.053 A 
HETATM   26  C   UNL     1     -42.489  56.836 -60.055  1.00  0.00     0.049 C 
HETATM   27  C   UNL     1     -44.941  56.518 -60.356  1.00  0.00     0.014 A 
HETATM   28  C   UNL     1     -46.283  56.695 -60.009  1.00  0.00    -0.061 A 
HETATM   29  C   UNL     1     -47.375  56.190 -60.908  1.00  0.00     0.048 C 
HETATM   30  C   UNL     1     -46.591  57.433 -58.867  1.00  0.00     0.007 A 
HETATM   31  C   UNL     1     -45.575  57.968 -58.072  1.00  0.00     0.011 A 
ENDBRANCH   6  24
BRANCH   9  32
HETATM   32  C   UNL     1     -44.023  60.696 -58.339  1.00  0.00     0.293 C 
HETATM   33  O   UNL     1     -44.198  60.867 -59.538  1.00  0.00    -0.259 OA
BRANCH  32  34
HETATM   34  O   UNL     1     -44.816  61.088 -57.328  1.00  0.00    -0.323 OA
HETATM   35  C   UNL     1     -45.679  62.174 -57.687  1.00  0.00     0.213 C 
ENDBRANCH  32  34
ENDBRANCH   9  32
BRANCH   1  36
HETATM   36  C   UNL     1     -41.474  61.987 -57.590  1.00  0.00     0.056 C 
HETATM   37  C   UNL     1     -40.485  61.890 -58.750  1.00  0.00     0.011 C 
ENDBRANCH   1  36
TORSDOF 9
ENDMDL
MODEL 6
REMARK VINA RESULT:      -6.3      2.796      8.790
REMARK  9 active torsions:
REMARK  status: ('A' for Active; 'I' for Inactive)
REMARK    1  A    between atoms: C_2  and  C_3 
REMARK    2  A    between atoms: C_7  and  C_8 
REMARK    3  A    between atoms: C_8  and  C_9 
REMARK       I    between atoms: C_9  and  N_10 
REMARK    4  A    between atoms: N_10  and  C_11 
REMARK    5  A    between atoms: C_11  and  C_12 
REMARK    6  A    between atoms: C_12  and  C_13 
REMARK    7  A    between atoms: C_21  and  C_22 
REMARK    8  A    between atoms: C_32  and  C_33 
REMARK    9  A    between atoms: C_33  and  O_34 
ROOT
HETATM    1  C   UNL     1     -40.970  54.868 -52.569  1.00  0.00     0.051 C 
HETATM    2  N   UNL     1     -41.134  54.646 -53.922  1.00  0.00    -0.228 NA
HETATM    3  C   UNL     1     -41.869  55.477 -54.577  1.00  0.00     0.170 C 
HETATM    4  N   UNL     1     -42.305  56.905 -54.068  1.00  0.00    -0.318 N 
HETATM    5  C   UNL     1     -42.836  57.547 -55.061  1.00  0.00     0.011 C 
HETATM    6  C   UNL     1     -41.606  57.256 -52.814  1.00  0.00     0.166 C 
HETATM    7  S   UNL     1     -42.398  55.172 -56.206  1.00  0.00    -0.086 SA
HETATM    8  C   UNL     1     -43.414  56.671 -56.151  1.00  0.00     0.135 C 
HETATM    9  C   UNL     1     -41.379  56.018 -51.992  1.00  0.00     0.069 C 
ENDROOT
BRANCH   5  10
HETATM   10  C   UNL     1     -42.604  59.014 -55.302  1.00  0.00     0.156 C 
BRANCH  10  11
HETATM   11  C   UNL     1     -43.594  59.463 -56.362  1.00  0.00     0.222 C 
HETATM   12  N   UNL     1     -43.151  59.466 -57.658  1.00  0.00    -0.361 N 
HETATM   13  H   UNL     1     -42.316  58.937 -57.901  1.00  0.00     0.162 HD
HETATM   14  O   UNL     1     -44.699  59.886 -56.024  1.00  0.00    -0.273 OA
BRANCH  12  15
HETATM   15  C   UNL     1     -44.016  59.897 -58.751  1.00  0.00     0.124 C 
BRANCH  15  16
HETATM   16  C   UNL     1     -44.492  58.715 -59.610  1.00  0.00     0.053 C 
BRANCH  16  17
HETATM   17  C   UNL     1     -46.014  58.711 -59.832  1.00  0.00     0.189 C 
HETATM   18  N   UNL     1     -46.620  59.928 -59.110  1.00  0.00    -0.071 N 
HETATM   19  H   UNL     1     -45.869  60.453 -58.644  1.00  0.00     0.279 HD
HETATM   20  C   UNL     1     -47.315  60.897 -60.025  1.00  0.00     0.270 C 
HETATM   21  C   UNL     1     -47.534  59.414 -58.009  1.00  0.00     0.235 C 
HETATM   22  C   UNL     1     -47.077  57.987 -57.798  1.00  0.00     0.030 C 
HETATM   23  C   UNL     1     -46.746  57.526 -59.203  1.00  0.00     0.035 C 
ENDBRANCH  16  17
ENDBRANCH  15  16
ENDBRANCH  12  15
ENDBRANCH  10  11
ENDBRANCH   5  10
BRANCH   6  24
HETATM   24  C   UNL     1     -42.159  58.447 -52.033  1.00  0.00    -0.024 A 
HETATM   25  C   UNL     1     -41.287  59.286 -51.291  1.00  0.00    -0.053 A 
HETATM   26  C   UNL     1     -39.791  59.098 -51.266  1.00  0.00     0.049 C 
HETATM   27  C   UNL     1     -41.821  60.335 -50.524  1.00  0.00     0.014 A 
HETATM   28  C   UNL     1     -43.198  60.567 -50.461  1.00  0.00    -0.061 A 
HETATM   29  C   UNL     1     -43.749  61.637 -49.561  1.00  0.00     0.048 C 
HETATM   30  C   UNL     1     -44.056  59.726 -51.167  1.00  0.00     0.007 A 
HETATM   31  C   UNL     1     -43.546  58.683 -51.944  1.00  0.00     0.011 A 
ENDBRANCH   6  24
BRANCH   9  32
HETATM   32  C   UNL     1     -42.261  55.788 -50.829  1.00  0.00     0.293 C 
HETATM   33  O   UNL     1     -41.831  55.996 -49.702  1.00  0.00    -0.259 OA
BRANCH  32  34
HETATM   34  O   UNL     1     -43.511  55.442 -51.181  1.00  0.00    -0.323 OA
HETATM   35  C   UNL     1     -43.994  54.300 -50.463  1.00  0.00     0.213 C 
ENDBRANCH  32  34
ENDBRANCH   9  32
BRANCH   1  36
HETATM   36  C   UNL     1     -40.453  53.663 -51.797  1.00  0.00     0.056 C 
HETATM   37  C   UNL     1     -40.180  52.484 -52.730  1.00  0.00     0.011 C 
ENDBRANCH   1  36
TORSDOF 9
ENDMDL
MODEL 7
REMARK VINA RESULT:      -6.3      2.616      8.604
REMARK  9 active torsions:
REMARK  status: ('A' for Active; 'I' for Inactive)
REMARK    1  A    between atoms: C_2  and  C_3 
REMARK    2  A    between atoms: C_7  and  C_8 
REMARK    3  A    between atoms: C_8  and  C_9 
REMARK       I    between atoms: C_9  and  N_10 
REMARK    4  A    between atoms: N_10  and  C_11 
REMARK    5  A    between atoms: C_11  and  C_12 
REMARK    6  A    between atoms: C_12  and  C_13 
REMARK    7  A    between atoms: C_21  and  C_22 
REMARK    8  A    between atoms: C_32  and  C_33 
REMARK    9  A    between atoms: C_33  and  O_34 
ROOT
HETATM    1  C   UNL     1     -40.613  53.831 -51.695  1.00  0.00     0.051 C 
HETATM    2  N   UNL     1     -40.200  53.598 -52.992  1.00  0.00    -0.228 NA
HETATM    3  C   UNL     1     -40.778  54.268 -53.930  1.00  0.00     0.170 C 
HETATM    4  N   UNL     1     -41.645  55.568 -53.720  1.00  0.00    -0.318 N 
HETATM    5  C   UNL     1     -41.871  56.099 -54.879  1.00  0.00     0.011 C 
HETATM    6  C   UNL     1     -41.561  56.039 -52.321  1.00  0.00     0.166 C 
HETATM    7  S   UNL     1     -40.573  53.881 -55.614  1.00  0.00    -0.086 SA
HETATM    8  C   UNL     1     -41.805  55.137 -56.045  1.00  0.00     0.135 C 
HETATM    9  C   UNL     1     -41.428  54.864 -51.393  1.00  0.00     0.069 C 
ENDROOT
BRANCH   5  10
HETATM   10  C   UNL     1     -41.858  57.585 -55.113  1.00  0.00     0.156 C 
BRANCH  10  11
HETATM   11  C   UNL     1     -43.135  57.942 -55.853  1.00  0.00     0.222 C 
HETATM   12  N   UNL     1     -43.028  58.863 -56.862  1.00  0.00    -0.361 N 
HETATM   13  H   UNL     1     -42.112  59.067 -57.254  1.00  0.00     0.162 HD
HETATM   14  O   UNL     1     -44.209  57.476 -55.475  1.00  0.00    -0.273 OA
BRANCH  12  15
HETATM   15  C   UNL     1     -44.197  59.289 -57.623  1.00  0.00     0.124 C 
BRANCH  15  16
HETATM   16  C   UNL     1     -43.874  59.486 -59.112  1.00  0.00     0.053 C 
BRANCH  16  17
HETATM   17  C   UNL     1     -44.256  58.270 -59.974  1.00  0.00     0.189 C 
HETATM   18  N   UNL     1     -44.968  57.239 -59.081  1.00  0.00    -0.071 N 
HETATM   19  H   UNL     1     -45.015  57.599 -58.119  1.00  0.00     0.279 HD
HETATM   20  C   UNL     1     -46.381  56.943 -59.496  1.00  0.00     0.270 C 
HETATM   21  C   UNL     1     -44.106  55.987 -59.031  1.00  0.00     0.235 C 
HETATM   22  C   UNL     1     -42.740  56.472 -59.465  1.00  0.00     0.030 C 
HETATM   23  C   UNL     1     -43.069  57.492 -60.538  1.00  0.00     0.035 C 
ENDBRANCH  16  17
ENDBRANCH  15  16
ENDBRANCH  12  15
ENDBRANCH  10  11
ENDBRANCH   5  10
BRANCH   6  24
HETATM   24  C   UNL     1     -42.593  57.080 -51.887  1.00  0.00    -0.024 A 
HETATM   25  C   UNL     1     -42.181  58.264 -51.221  1.00  0.00    -0.053 A 
HETATM   26  C   UNL     1     -40.735  58.594 -50.951  1.00  0.00     0.049 C 
HETATM   27  C   UNL     1     -43.149  59.176 -50.769  1.00  0.00     0.014 A 
HETATM   28  C   UNL     1     -44.515  58.941 -50.946  1.00  0.00    -0.061 A 
HETATM   29  C   UNL     1     -45.531  59.887 -50.372  1.00  0.00     0.048 C 
HETATM   30  C   UNL     1     -44.920  57.765 -51.575  1.00  0.00     0.007 A 
HETATM   31  C   UNL     1     -43.975  56.848 -52.042  1.00  0.00     0.011 A 
ENDBRANCH   6  24
BRANCH   9  32
HETATM   32  C   UNL     1     -42.623  54.442 -50.634  1.00  0.00     0.293 C 
HETATM   33  O   UNL     1     -43.496  53.798 -51.202  1.00  0.00    -0.259 OA
BRANCH  32  34
HETATM   34  O   UNL     1     -42.557  54.766 -49.332  1.00  0.00    -0.323 OA
HETATM   35  C   UNL     1     -41.312  55.377 -48.973  1.00  0.00     0.213 C 
ENDBRANCH  32  34
ENDBRANCH   9  32
BRANCH   1  36
HETATM   36  C   UNL     1     -40.204  52.749 -50.707  1.00  0.00     0.056 C 
HETATM   37  C   UNL     1     -39.630  51.530 -51.427  1.00  0.00     0.011 C 
ENDBRANCH   1  36
TORSDOF 9
ENDMDL
MODEL 8
REMARK VINA RESULT:      -6.2      3.349      4.781
REMARK  9 active torsions:
REMARK  status: ('A' for Active; 'I' for Inactive)
REMARK    1  A    between atoms: C_2  and  C_3 
REMARK    2  A    between atoms: C_7  and  C_8 
REMARK    3  A    between atoms: C_8  and  C_9 
REMARK       I    between atoms: C_9  and  N_10 
REMARK    4  A    between atoms: N_10  and  C_11 
REMARK    5  A    between atoms: C_11  and  C_12 
REMARK    6  A    between atoms: C_12  and  C_13 
REMARK    7  A    between atoms: C_21  and  C_22 
REMARK    8  A    between atoms: C_32  and  C_33 
REMARK    9  A    between atoms: C_33  and  O_34 
ROOT
HETATM    1  C   UNL     1     -41.110  58.437 -52.061  1.00  0.00     0.051 C 
HETATM    2  N   UNL     1     -41.038  57.175 -51.504  1.00  0.00    -0.228 NA
HETATM    3  C   UNL     1     -41.951  56.327 -51.832  1.00  0.00     0.170 C 
HETATM    4  N   UNL     1     -42.926  56.468 -53.064  1.00  0.00    -0.318 N 
HETATM    5  C   UNL     1     -43.544  55.341 -53.226  1.00  0.00     0.011 C 
HETATM    6  C   UNL     1     -42.538  57.611 -53.918  1.00  0.00     0.166 C 
HETATM    7  S   UNL     1     -42.158  54.812 -51.003  1.00  0.00    -0.086 SA
HETATM    8  C   UNL     1     -43.647  54.486 -51.981  1.00  0.00     0.135 C 
HETATM    9  C   UNL     1     -41.967  58.712 -53.068  1.00  0.00     0.069 C 
ENDROOT
BRANCH   5  10
HETATM   10  C   UNL     1     -43.836  54.757 -54.581  1.00  0.00     0.156 C 
BRANCH  10  11
HETATM   11  C   UNL     1     -42.505  54.554 -55.285  1.00  0.00     0.222 C 
HETATM   12  N   UNL     1     -41.514  53.940 -54.565  1.00  0.00    -0.361 N 
HETATM   13  H   UNL     1     -41.757  53.417 -53.727  1.00  0.00     0.162 HD
HETATM   14  O   UNL     1     -42.335  55.015 -56.413  1.00  0.00    -0.273 OA
BRANCH  12  15
HETATM   15  C   UNL     1     -40.192  53.714 -55.140  1.00  0.00     0.124 C 
BRANCH  15  16
HETATM   16  C   UNL     1     -39.389  52.673 -54.345  1.00  0.00     0.053 C 
BRANCH  16  17
HETATM   17  C   UNL     1     -40.282  51.713 -53.542  1.00  0.00     0.189 C 
HETATM   18  N   UNL     1     -39.480  51.183 -52.340  1.00  0.00    -0.071 N 
HETATM   19  H   UNL     1     -38.535  51.589 -52.359  1.00  0.00     0.279 HD
HETATM   20  C   UNL     1     -40.071  51.540 -51.006  1.00  0.00     0.270 C 
HETATM   21  C   UNL     1     -39.308  49.682 -52.514  1.00  0.00     0.235 C 
HETATM   22  C   UNL     1     -39.567  49.458 -53.988  1.00  0.00     0.030 C 
HETATM   23  C   UNL     1     -40.682  50.441 -54.289  1.00  0.00     0.035 C 
ENDBRANCH  16  17
ENDBRANCH  15  16
ENDBRANCH  12  15
ENDBRANCH  10  11
ENDBRANCH   5  10
BRANCH   6  24
HETATM   24  C   UNL     1     -43.565  58.072 -54.952  1.00  0.00    -0.024 A 
HETATM   25  C   UNL     1     -43.144  58.515 -56.233  1.00  0.00    -0.053 A 
HETATM   26  C   UNL     1     -41.700  58.512 -56.669  1.00  0.00     0.049 C 
HETATM   27  C   UNL     1     -44.096  58.999 -57.145  1.00  0.00     0.014 A 
HETATM   28  C   UNL     1     -45.453  59.070 -56.818  1.00  0.00    -0.061 A 
HETATM   29  C   UNL     1     -46.436  59.677 -57.778  1.00  0.00     0.048 C 
HETATM   30  C   UNL     1     -45.862  58.661 -55.551  1.00  0.00     0.007 A 
HETATM   31  C   UNL     1     -44.934  58.167 -54.630  1.00  0.00     0.011 A 
ENDBRANCH   6  24
BRANCH   9  32
HETATM   32  C   UNL     1     -42.823  59.882 -52.782  1.00  0.00     0.293 C 
HETATM   33  O   UNL     1     -43.693  59.791 -51.926  1.00  0.00    -0.259 OA
BRANCH  32  34
HETATM   34  O   UNL     1     -42.465  60.974 -53.478  1.00  0.00    -0.323 OA
HETATM   35  C   UNL     1     -43.574  61.613 -54.121  1.00  0.00     0.213 C 
ENDBRANCH  32  34
ENDBRANCH   9  32
BRANCH   1  36
HETATM   36  C   UNL     1     -40.276  59.486 -51.340  1.00  0.00     0.056 C 
HETATM   37  C   UNL     1     -40.596  59.516 -49.846  1.00  0.00     0.011 C 
ENDBRANCH   1  36
TORSDOF 9
ENDMDL
MODEL 9
REMARK VINA RESULT:      -6.2      2.758      9.054
REMARK  9 active torsions:
REMARK  status: ('A' for Active; 'I' for Inactive)
REMARK    1  A    between atoms: C_2  and  C_3 
REMARK    2  A    between atoms: C_7  and  C_8 
REMARK    3  A    between atoms: C_8  and  C_9 
REMARK       I    between atoms: C_9  and  N_10 
REMARK    4  A    between atoms: N_10  and  C_11 
REMARK    5  A    between atoms: C_11  and  C_12 
REMARK    6  A    between atoms: C_12  and  C_13 
REMARK    7  A    between atoms: C_21  and  C_22 
REMARK    8  A    between atoms: C_32  and  C_33 
REMARK    9  A    between atoms: C_33  and  O_34 
ROOT
HETATM    1  C   UNL     1     -41.023  54.888 -52.906  1.00  0.00     0.051 C 
HETATM    2  N   UNL     1     -41.234  54.738 -54.263  1.00  0.00    -0.228 NA
HETATM    3  C   UNL     1     -42.003  55.594 -54.843  1.00  0.00     0.170 C 
HETATM    4  N   UNL     1     -42.434  56.987 -54.242  1.00  0.00    -0.318 N 
HETATM    5  C   UNL     1     -43.008  57.675 -55.177  1.00  0.00     0.011 C 
HETATM    6  C   UNL     1     -41.692  57.278 -52.997  1.00  0.00     0.166 C 
HETATM    7  S   UNL     1     -42.589  55.371 -56.466  1.00  0.00    -0.086 SA
HETATM    8  C   UNL     1     -43.618  56.852 -56.291  1.00  0.00     0.135 C 
HETATM    9  C   UNL     1     -41.421  56.000 -52.252  1.00  0.00     0.069 C 
ENDROOT
BRANCH   5  10
HETATM   10  C   UNL     1     -42.801  59.156 -55.346  1.00  0.00     0.156 C 
BRANCH  10  11
HETATM   11  C   UNL     1     -43.822  59.646 -56.357  1.00  0.00     0.222 C 
HETATM   12  N   UNL     1     -43.387  59.801 -57.648  1.00  0.00    -0.361 N 
HETATM   13  H   UNL     1     -42.524  59.349 -57.940  1.00  0.00     0.162 HD
HETATM   14  O   UNL     1     -44.948  59.967 -55.981  1.00  0.00    -0.273 OA
BRANCH  12  15
HETATM   15  C   UNL     1     -44.282  60.284 -58.694  1.00  0.00     0.124 C 
BRANCH  15  16
HETATM   16  C   UNL     1     -43.604  61.327 -59.595  1.00  0.00     0.053 C 
BRANCH  16  17
HETATM   17  C   UNL     1     -42.133  60.993 -59.896  1.00  0.00     0.189 C 
HETATM   18  N   UNL     1     -41.309  62.290 -59.824  1.00  0.00    -0.071 N 
HETATM   19  H   UNL     1     -41.934  63.075 -59.599  1.00  0.00     0.279 HD
HETATM   20  C   UNL     1     -40.241  62.278 -58.767  1.00  0.00     0.270 C 
HETATM   21  C   UNL     1     -40.748  62.569 -61.209  1.00  0.00     0.235 C 
HETATM   22  C   UNL     1     -41.624  61.743 -62.125  1.00  0.00     0.030 C 
HETATM   23  C   UNL     1     -41.873  60.487 -61.314  1.00  0.00     0.035 C 
ENDBRANCH  16  17
ENDBRANCH  15  16
ENDBRANCH  12  15
ENDBRANCH  10  11
ENDBRANCH   5  10
BRANCH   6  24
HETATM   24  C   UNL     1     -42.227  58.418 -52.132  1.00  0.00    -0.024 A 
HETATM   25  C   UNL     1     -41.335  59.240 -51.395  1.00  0.00    -0.053 A 
HETATM   26  C   UNL     1     -39.836  59.085 -51.455  1.00  0.00     0.049 C 
HETATM   27  C   UNL     1     -41.850  60.240 -50.552  1.00  0.00     0.014 A 
HETATM   28  C   UNL     1     -43.226  60.437 -50.408  1.00  0.00    -0.061 A 
HETATM   29  C   UNL     1     -43.751  61.451 -49.431  1.00  0.00     0.048 C 
HETATM   30  C   UNL     1     -44.102  59.612 -51.111  1.00  0.00     0.007 A 
HETATM   31  C   UNL     1     -43.613  58.618 -51.962  1.00  0.00     0.011 A 
ENDBRANCH   6  24
BRANCH   9  32
HETATM   32  C   UNL     1     -42.256  55.697 -51.072  1.00  0.00     0.293 C 
HETATM   33  O   UNL     1     -43.332  55.134 -51.228  1.00  0.00    -0.259 OA
BRANCH  32  34
HETATM   34  O   UNL     1     -41.660  56.022 -49.912  1.00  0.00    -0.323 OA
HETATM   35  C   UNL     1     -41.367  54.880 -49.098  1.00  0.00     0.213 C 
ENDBRANCH  32  34
ENDBRANCH   9  32
BRANCH   1  36
HETATM   36  C   UNL     1     -40.464  53.650 -52.221  1.00  0.00     0.056 C 
HETATM   37  C   UNL     1     -40.304  52.495 -53.209  1.00  0.00     0.011 C 
ENDBRANCH   1  36
TORSDOF 9
ENDMDL
MODEL 10
REMARK VINA RESULT:      -6.1      3.095      7.150
REMARK  9 active torsions:
REMARK  status: ('A' for Active; 'I' for Inactive)
REMARK    1  A    between atoms: C_2  and  C_3 
REMARK    2  A    between atoms: C_7  and  C_8 
REMARK    3  A    between atoms: C_8  and  C_9 
REMARK       I    between atoms: C_9  and  N_10 
REMARK    4  A    between atoms: N_10  and  C_11 
REMARK    5  A    between atoms: C_11  and  C_12 
REMARK    6  A    between atoms: C_12  and  C_13 
REMARK    7  A    between atoms: C_21  and  C_22 
REMARK    8  A    between atoms: C_32  and  C_33 
REMARK    9  A    between atoms: C_33  and  O_34 
ROOT
HETATM    1  C   UNL     1     -43.435  56.046 -51.911  1.00  0.00     0.051 C 
HETATM    2  N   UNL     1     -42.667  56.990 -51.259  1.00  0.00    -0.228 NA
HETATM    3  C   UNL     1     -41.912  57.744 -51.981  1.00  0.00     0.170 C 
HETATM    4  N   UNL     1     -42.041  57.937 -53.541  1.00  0.00    -0.318 N 
HETATM    5  C   UNL     1     -41.283  58.927 -53.894  1.00  0.00     0.011 C 
HETATM    6  C   UNL     1     -43.265  57.288 -54.055  1.00  0.00     0.166 C 
HETATM    7  S   UNL     1     -40.687  58.770 -51.293  1.00  0.00    -0.086 SA
HETATM    8  C   UNL     1     -40.127  59.209 -52.959  1.00  0.00     0.135 C 
HETATM    9  C   UNL     1     -43.560  56.049 -53.256  1.00  0.00     0.069 C 
ENDROOT
BRANCH   5  10
HETATM   10  C   UNL     1     -41.688  59.935 -54.935  1.00  0.00     0.156 C 
BRANCH  10  11
HETATM   11  C   UNL     1     -42.766  60.813 -54.324  1.00  0.00     0.222 C 
HETATM   12  N   UNL     1     -42.417  61.536 -53.213  1.00  0.00    -0.361 N 
HETATM   13  H   UNL     1     -41.433  61.678 -53.001  1.00  0.00     0.162 HD
HETATM   14  O   UNL     1     -43.910  60.777 -54.775  1.00  0.00    -0.273 OA
BRANCH  12  15
HETATM   15  C   UNL     1     -43.383  62.396 -52.538  1.00  0.00     0.124 C 
BRANCH  15  16
HETATM   16  C   UNL     1     -43.555  62.019 -51.059  1.00  0.00     0.053 C 
BRANCH  16  17
HETATM   17  C   UNL     1     -44.986  61.573 -50.716  1.00  0.00     0.189 C 
HETATM   18  N   UNL     1     -44.913  60.428 -49.690  1.00  0.00    -0.071 N 
HETATM   19  H   UNL     1     -43.928  60.226 -49.479  1.00  0.00     0.279 HD
HETATM   20  C   UNL     1     -45.575  60.741 -48.378  1.00  0.00     0.270 C 
HETATM   21  C   UNL     1     -45.481  59.177 -50.341  1.00  0.00     0.235 C 
HETATM   22  C   UNL     1     -45.415  59.479 -51.822  1.00  0.00     0.030 C 
HETATM   23  C   UNL     1     -45.756  60.954 -51.882  1.00  0.00     0.035 C 
ENDBRANCH  16  17
ENDBRANCH  15  16
ENDBRANCH  12  15
ENDBRANCH  10  11
ENDBRANCH   5  10
BRANCH   6  24
HETATM   24  C   UNL     1     -43.360  57.106 -55.570  1.00  0.00    -0.024 A 
HETATM   25  C   UNL     1     -44.521  57.520 -56.271  1.00  0.00    -0.053 A 
HETATM   26  C   UNL     1     -45.688  58.199 -55.599  1.00  0.00     0.049 C 
HETATM   27  C   UNL     1     -44.617  57.283 -57.653  1.00  0.00     0.014 A 
HETATM   28  C   UNL     1     -43.600  56.632 -58.356  1.00  0.00    -0.061 A 
HETATM   29  C   UNL     1     -43.768  56.309 -59.813  1.00  0.00     0.048 C 
HETATM   30  C   UNL     1     -42.471  56.201 -57.661  1.00  0.00     0.007 A 
HETATM   31  C   UNL     1     -42.350  56.435 -56.289  1.00  0.00     0.011 A 
ENDBRANCH   6  24
BRANCH   9  32
HETATM   32  C   UNL     1     -43.234  54.741 -53.860  1.00  0.00     0.293 C 
HETATM   33  O   UNL     1     -44.091  54.148 -54.502  1.00  0.00    -0.259 OA
BRANCH  32  34
HETATM   34  O   UNL     1     -41.948  54.391 -53.687  1.00  0.00    -0.323 OA
HETATM   35  C   UNL     1     -41.623  53.140 -54.305  1.00  0.00     0.213 C 
ENDBRANCH  32  34
ENDBRANCH   9  32
BRANCH   1  36
HETATM   36  C   UNL     1     -43.971  54.945 -51.007  1.00  0.00     0.056 C 
HETATM   37  C   UNL     1     -42.852  54.319 -50.175  1.00  0.00     0.011 C 
ENDBRANCH   1  36
TORSDOF 9
ENDMDL
