MODEL 1
REMARK VINA RESULT:      -7.8      0.000      0.000
REMARK  5 active torsions:
REMARK  status: ('A' for Active; 'I' for Inactive)
REMARK    1  A    between atoms: C_8  and  N_9 
REMARK       I    between atoms: N_9  and  C_10 
REMARK       I    between atoms: C_10  and  N_11 
REMARK    2  A    between atoms: N_11  and  C_12 
REMARK    3  A    between atoms: C_13  and  O_14 
REMARK    4  A    between atoms: O_14  and  C_15 
REMARK    5  A    between atoms: C_15  and  C_16 
ROOT
HETATM    1  N   UNL     1     -42.117  56.147 -56.375  1.00  0.00    -0.305 N 
HETATM    2  C   UNL     1     -42.089  54.940 -55.702  1.00  0.00     0.325 C 
HETATM    3  N   UNL     1     -40.812  54.680 -55.240  1.00  0.00    -0.306 N 
HETATM    4  O   UNL     1     -43.054  54.208 -55.522  1.00  0.00    -0.247 OA
HETATM    5  H   UNL     1     -41.476  56.847 -56.033  1.00  0.00     0.171 HD
HETATM    6  H   UNL     1     -40.056  55.065 -55.794  1.00  0.00     0.171 HD
ENDROOT
BRANCH   3   7
HETATM    7  C   UNL     1     -40.441  53.682 -54.316  1.00  0.00     0.070 A 
HETATM    8  C   UNL     1     -40.572  53.971 -52.947  1.00  0.00     0.097 A 
HETATM    9  C   UNL     1     -40.299  53.005 -51.977  1.00  0.00     0.063 A 
HETATM   10  C   UNL     1     -39.857  51.746 -52.379  1.00  0.00     0.036 A 
HETATM   11 CL   UNL     1     -39.510  50.547 -51.195  1.00  0.00    -0.084 Cl
HETATM   12  C   UNL     1     -39.695  51.451 -53.731  1.00  0.00     0.026 A 
HETATM   13  C   UNL     1     -39.991  52.417 -54.699  1.00  0.00     0.034 A 
BRANCH   8  14
HETATM   14  O   UNL     1     -40.998  55.226 -52.585  1.00  0.00    -0.340 OA
BRANCH  14  15
HETATM   15  C   UNL     1     -41.770  55.179 -51.367  1.00  0.00     0.293 C 
BRANCH  15  16
HETATM   16  C   UNL     1     -43.252  55.094 -51.690  1.00  0.00     0.408 C 
HETATM   17  F   UNL     1     -44.003  55.596 -50.682  1.00  0.00    -0.169 F 
HETATM   18  F   UNL     1     -43.558  55.778 -52.814  1.00  0.00    -0.169 F 
HETATM   19  F   UNL     1     -43.628  53.809 -51.879  1.00  0.00    -0.169 F 
ENDBRANCH  15  16
ENDBRANCH  14  15
ENDBRANCH   8  14
ENDBRANCH   3   7
BRANCH   1  20
HETATM   20  C   UNL     1     -43.182  56.606 -57.131  1.00  0.00     0.086 A 
HETATM   21  C   UNL     1     -44.201  57.375 -56.604  1.00  0.00     0.052 A 
HETATM   22  C   UNL     1     -44.489  57.858 -55.235  1.00  0.00     0.072 C 
HETATM   23  N   UNL     1     -45.049  57.627 -57.647  1.00  0.00    -0.280 N 
HETATM   24  H   UNL     1     -45.921  58.145 -57.635  1.00  0.00     0.189 HD
HETATM   25  N   UNL     1     -44.639  57.120 -58.815  1.00  0.00    -0.177 NA
HETATM   26  C   UNL     1     -43.492  56.492 -58.516  1.00  0.00     0.079 A 
HETATM   27  C   UNL     1     -42.717  55.862 -59.615  1.00  0.00     0.075 C 
ENDBRANCH   1  20
TORSDOF 5
ENDMDL
MODEL 2
REMARK VINA RESULT:      -7.4      1.648      2.577
REMARK  5 active torsions:
REMARK  status: ('A' for Active; 'I' for Inactive)
REMARK    1  A    between atoms: C_8  and  N_9 
REMARK       I    between atoms: N_9  and  C_10 
REMARK       I    between atoms: C_10  and  N_11 
REMARK    2  A    between atoms: N_11  and  C_12 
REMARK    3  A    between atoms: C_13  and  O_14 
REMARK    4  A    between atoms: O_14  and  C_15 
REMARK    5  A    between atoms: C_15  and  C_16 
ROOT
HETATM    1  N   UNL     1     -42.196  56.234 -54.891  1.00  0.00    -0.305 N 
HETATM    2  C   UNL     1     -42.146  54.915 -54.483  1.00  0.00     0.325 C 
HETATM    3  N   UNL     1     -40.840  54.548 -54.212  1.00  0.00    -0.306 N 
HETATM    4  O   UNL     1     -43.114  54.174 -54.361  1.00  0.00    -0.247 OA
HETATM    5  H   UNL     1     -41.503  56.840 -54.478  1.00  0.00     0.171 HD
HETATM    6  H   UNL     1     -40.127  55.028 -54.748  1.00  0.00     0.171 HD
ENDROOT
BRANCH   3   7
HETATM    7  C   UNL     1     -40.418  53.376 -53.551  1.00  0.00     0.070 A 
HETATM    8  C   UNL     1     -40.326  53.408 -52.149  1.00  0.00     0.097 A 
HETATM    9  C   UNL     1     -39.991  52.264 -51.423  1.00  0.00     0.063 A 
HETATM   10  C   UNL     1     -39.712  51.083 -52.108  1.00  0.00     0.036 A 
HETATM   11 CL   UNL     1     -39.292  49.667 -51.227  1.00  0.00    -0.084 Cl
HETATM   12  C   UNL     1     -39.771  51.041 -53.500  1.00  0.00     0.026 A 
HETATM   13  C   UNL     1     -40.128  52.186 -54.221  1.00  0.00     0.034 A 
BRANCH   8  14
HETATM   14  O   UNL     1     -40.596  54.592 -51.506  1.00  0.00    -0.340 OA
BRANCH  14  15
HETATM   15  C   UNL     1     -40.128  54.558 -50.142  1.00  0.00     0.293 C 
BRANCH  15  16
HETATM   16  C   UNL     1     -41.217  55.047 -49.202  1.00  0.00     0.408 C 
HETATM   17  F   UNL     1     -40.906  54.783 -47.912  1.00  0.00    -0.169 F 
HETATM   18  F   UNL     1     -41.414  56.378 -49.316  1.00  0.00    -0.169 F 
HETATM   19  F   UNL     1     -42.393  54.436 -49.473  1.00  0.00    -0.169 F 
ENDBRANCH  15  16
ENDBRANCH  14  15
ENDBRANCH   8  14
ENDBRANCH   3   7
BRANCH   1  20
HETATM   20  C   UNL     1     -43.312  56.854 -55.428  1.00  0.00     0.086 A 
HETATM   21  C   UNL     1     -43.634  56.791 -56.769  1.00  0.00     0.052 A 
HETATM   22  C   UNL     1     -42.962  56.172 -57.935  1.00  0.00     0.072 C 
HETATM   23  N   UNL     1     -44.787  57.513 -56.905  1.00  0.00    -0.280 N 
HETATM   24  H   UNL     1     -45.309  57.706 -57.753  1.00  0.00     0.189 HD
HETATM   25  N   UNL     1     -45.261  58.002 -55.754  1.00  0.00    -0.177 NA
HETATM   26  C   UNL     1     -44.367  57.604 -54.836  1.00  0.00     0.079 A 
HETATM   27  C   UNL     1     -44.624  57.921 -53.408  1.00  0.00     0.075 C 
ENDBRANCH   1  20
TORSDOF 5
ENDMDL
MODEL 3
REMARK VINA RESULT:      -7.3      1.073      2.132
REMARK  5 active torsions:
REMARK  status: ('A' for Active; 'I' for Inactive)
REMARK    1  A    between atoms: C_8  and  N_9 
REMARK       I    between atoms: N_9  and  C_10 
REMARK       I    between atoms: C_10  and  N_11 
REMARK    2  A    between atoms: N_11  and  C_12 
REMARK    3  A    between atoms: C_13  and  O_14 
REMARK    4  A    between atoms: O_14  and  C_15 
REMARK    5  A    between atoms: C_15  and  C_16 
ROOT
HETATM    1  N   UNL     1     -42.261  56.576 -56.593  1.00  0.00    -0.305 N 
HETATM    2  C   UNL     1     -42.252  55.399 -55.869  1.00  0.00     0.325 C 
HETATM    3  N   UNL     1     -40.976  55.133 -55.406  1.00  0.00    -0.306 N 
HETATM    4  O   UNL     1     -43.230  54.695 -55.650  1.00  0.00    -0.247 OA
HETATM    5  H   UNL     1     -41.604  57.277 -56.286  1.00  0.00     0.171 HD
HETATM    6  H   UNL     1     -40.217  55.478 -55.981  1.00  0.00     0.171 HD
ENDROOT
BRANCH   3   7
HETATM    7  C   UNL     1     -40.618  54.168 -54.442  1.00  0.00     0.070 A 
HETATM    8  C   UNL     1     -40.735  54.517 -53.086  1.00  0.00     0.097 A 
HETATM    9  C   UNL     1     -40.473  53.588 -52.077  1.00  0.00     0.063 A 
HETATM   10  C   UNL     1     -40.057  52.306 -52.427  1.00  0.00     0.036 A 
HETATM   11 CL   UNL     1     -39.725  51.152 -51.196  1.00  0.00    -0.084 Cl
HETATM   12  C   UNL     1     -39.909  51.951 -53.767  1.00  0.00     0.026 A 
HETATM   13  C   UNL     1     -40.194  52.880 -54.774  1.00  0.00     0.034 A 
BRANCH   8  14
HETATM   14  O   UNL     1     -41.135  55.795 -52.775  1.00  0.00    -0.340 OA
BRANCH  14  15
HETATM   15  C   UNL     1     -42.438  55.792 -52.156  1.00  0.00     0.293 C 
BRANCH  15  16
HETATM   16  C   UNL     1     -43.136  57.119 -52.397  1.00  0.00     0.408 C 
HETATM   17  F   UNL     1     -44.457  56.944 -52.631  1.00  0.00    -0.169 F 
HETATM   18  F   UNL     1     -43.010  57.949 -51.340  1.00  0.00    -0.169 F 
HETATM   19  F   UNL     1     -42.610  57.747 -53.474  1.00  0.00    -0.169 F 
ENDBRANCH  15  16
ENDBRANCH  14  15
ENDBRANCH   8  14
ENDBRANCH   3   7
BRANCH   1  20
HETATM   20  C   UNL     1     -43.323  57.024 -57.360  1.00  0.00     0.086 A 
HETATM   21  C   UNL     1     -43.440  56.760 -58.710  1.00  0.00     0.052 A 
HETATM   22  C   UNL     1     -42.566  56.053 -59.674  1.00  0.00     0.072 C 
HETATM   23  N   UNL     1     -44.605  57.359 -59.103  1.00  0.00    -0.280 N 
HETATM   24  H   UNL     1     -45.008  57.395 -60.033  1.00  0.00     0.189 HD
HETATM   25  N   UNL     1     -45.273  57.952 -58.108  1.00  0.00    -0.177 NA
HETATM   26  C   UNL     1     -44.501  57.753 -57.029  1.00  0.00     0.079 A 
HETATM   27  C   UNL     1     -44.984  58.231 -55.709  1.00  0.00     0.075 C 
ENDBRANCH   1  20
TORSDOF 5
ENDMDL
MODEL 4
REMARK VINA RESULT:      -7.2      2.656      3.403
REMARK  5 active torsions:
REMARK  status: ('A' for Active; 'I' for Inactive)
REMARK    1  A    between atoms: C_8  and  N_9 
REMARK       I    between atoms: N_9  and  C_10 
REMARK       I    between atoms: C_10  and  N_11 
REMARK    2  A    between atoms: N_11  and  C_12 
REMARK    3  A    between atoms: C_13  and  O_14 
REMARK    4  A    between atoms: O_14  and  C_15 
REMARK    5  A    between atoms: C_15  and  C_16 
ROOT
HETATM    1  N   UNL     1     -42.314  56.565 -54.552  1.00  0.00    -0.305 N 
HETATM    2  C   UNL     1     -41.296  55.643 -54.387  1.00  0.00     0.325 C 
HETATM    3  N   UNL     1     -41.738  54.576 -53.625  1.00  0.00    -0.306 N 
HETATM    4  O   UNL     1     -40.169  55.741 -54.856  1.00  0.00    -0.247 OA
HETATM    5  H   UNL     1     -43.244  56.177 -54.590  1.00  0.00     0.171 HD
HETATM    6  H   UNL     1     -42.459  54.788 -52.946  1.00  0.00     0.171 HD
ENDROOT
BRANCH   3   7
HETATM    7  C   UNL     1     -41.077  53.343 -53.446  1.00  0.00     0.070 A 
HETATM    8  C   UNL     1     -40.409  53.124 -52.230  1.00  0.00     0.097 A 
HETATM    9  C   UNL     1     -39.800  51.899 -51.952  1.00  0.00     0.063 A 
HETATM   10  C   UNL     1     -39.832  50.893 -52.915  1.00  0.00     0.036 A 
HETATM   11 CL   UNL     1     -39.082  49.379 -52.590  1.00  0.00    -0.084 Cl
HETATM   12  C   UNL     1     -40.467  51.102 -54.138  1.00  0.00     0.026 A 
HETATM   13  C   UNL     1     -41.093  52.326 -54.402  1.00  0.00     0.034 A 
BRANCH   8  14
HETATM   14  O   UNL     1     -40.386  54.143 -51.307  1.00  0.00    -0.340 OA
BRANCH  14  15
HETATM   15  C   UNL     1     -41.279  53.865 -50.209  1.00  0.00     0.293 C 
BRANCH  15  16
HETATM   16  C   UNL     1     -40.544  54.007 -48.887  1.00  0.00     0.408 C 
HETATM   17  F   UNL     1     -41.041  55.032 -48.157  1.00  0.00    -0.169 F 
HETATM   18  F   UNL     1     -40.636  52.885 -48.141  1.00  0.00    -0.169 F 
HETATM   19  F   UNL     1     -39.230  54.252 -49.094  1.00  0.00    -0.169 F 
ENDBRANCH  15  16
ENDBRANCH  14  15
ENDBRANCH   8  14
ENDBRANCH   3   7
BRANCH   1  20
HETATM   20  C   UNL     1     -42.153  57.832 -55.085  1.00  0.00     0.086 A 
HETATM   21  C   UNL     1     -42.477  58.145 -56.390  1.00  0.00     0.052 A 
HETATM   22  C   UNL     1     -42.984  57.334 -57.521  1.00  0.00     0.072 C 
HETATM   23  N   UNL     1     -42.183  59.473 -56.535  1.00  0.00    -0.280 N 
HETATM   24  H   UNL     1     -42.270  60.047 -57.366  1.00  0.00     0.189 HD
HETATM   25  N   UNL     1     -41.736  60.055 -55.416  1.00  0.00    -0.177 NA
HETATM   26  C   UNL     1     -41.714  59.061 -54.515  1.00  0.00     0.079 A 
HETATM   27  C   UNL     1     -41.325  59.376 -53.117  1.00  0.00     0.075 C 
ENDBRANCH   1  20
TORSDOF 5
ENDMDL
MODEL 5
REMARK VINA RESULT:      -7.1      2.631      3.799
REMARK  5 active torsions:
REMARK  status: ('A' for Active; 'I' for Inactive)
REMARK    1  A    between atoms: C_8  and  N_9 
REMARK       I    between atoms: N_9  and  C_10 
REMARK       I    between atoms: C_10  and  N_11 
REMARK    2  A    between atoms: N_11  and  C_12 
REMARK    3  A    between atoms: C_13  and  O_14 
REMARK    4  A    between atoms: O_14  and  C_15 
REMARK    5  A    between atoms: C_15  and  C_16 
ROOT
HETATM    1  N   UNL     1     -42.086  56.262 -56.765  1.00  0.00    -0.305 N 
HETATM    2  C   UNL     1     -42.373  55.916 -55.457  1.00  0.00     0.325 C 
HETATM    3  N   UNL     1     -41.375  55.104 -54.949  1.00  0.00    -0.306 N 
HETATM    4  O   UNL     1     -43.357  56.282 -54.827  1.00  0.00    -0.247 OA
HETATM    5  H   UNL     1     -41.106  56.353 -56.982  1.00  0.00     0.171 HD
HETATM    6  H   UNL     1     -40.895  54.520 -55.623  1.00  0.00     0.171 HD
ENDROOT
BRANCH   3   7
HETATM    7  C   UNL     1     -41.189  54.750 -53.597  1.00  0.00     0.070 A 
HETATM    8  C   UNL     1     -40.682  53.471 -53.315  1.00  0.00     0.097 A 
HETATM    9  C   UNL     1     -40.399  53.081 -52.004  1.00  0.00     0.063 A 
HETATM   10  C   UNL     1     -40.658  53.967 -50.962  1.00  0.00     0.036 A 
HETATM   11 CL   UNL     1     -40.320  53.499 -49.341  1.00  0.00    -0.084 Cl
HETATM   12  C   UNL     1     -41.187  55.230 -51.221  1.00  0.00     0.026 A 
HETATM   13  C   UNL     1     -41.449  55.623 -52.539  1.00  0.00     0.034 A 
BRANCH   8  14
HETATM   14  O   UNL     1     -40.449  52.616 -54.366  1.00  0.00    -0.340 OA
BRANCH  14  15
HETATM   15  C   UNL     1     -39.551  51.556 -53.981  1.00  0.00     0.293 C 
BRANCH  15  16
HETATM   16  C   UNL     1     -40.187  50.204 -54.258  1.00  0.00     0.408 C 
HETATM   17  F   UNL     1     -40.140  49.407 -53.166  1.00  0.00    -0.169 F 
HETATM   18  F   UNL     1     -41.480  50.327 -54.625  1.00  0.00    -0.169 F 
HETATM   19  F   UNL     1     -39.537  49.566 -55.259  1.00  0.00    -0.169 F 
ENDBRANCH  15  16
ENDBRANCH  14  15
ENDBRANCH   8  14
ENDBRANCH   3   7
BRANCH   1  20
HETATM   20  C   UNL     1     -42.968  56.893 -57.626  1.00  0.00     0.086 A 
HETATM   21  C   UNL     1     -43.688  56.218 -58.592  1.00  0.00     0.052 A 
HETATM   22  C   UNL     1     -43.719  54.798 -59.012  1.00  0.00     0.072 C 
HETATM   23  N   UNL     1     -44.436  57.171 -59.227  1.00  0.00    -0.280 N 
HETATM   24  H   UNL     1     -45.072  57.050 -60.007  1.00  0.00     0.189 HD
HETATM   25  N   UNL     1     -44.290  58.401 -58.722  1.00  0.00    -0.177 NA
HETATM   26  C   UNL     1     -43.394  58.247 -57.736  1.00  0.00     0.079 A 
HETATM   27  C   UNL     1     -43.043  59.425 -56.902  1.00  0.00     0.075 C 
ENDBRANCH   1  20
TORSDOF 5
ENDMDL
MODEL 6
REMARK VINA RESULT:      -7.0      1.942      2.731
REMARK  5 active torsions:
REMARK  status: ('A' for Active; 'I' for Inactive)
REMARK    1  A    between atoms: C_8  and  N_9 
REMARK       I    between atoms: N_9  and  C_10 
REMARK       I    between atoms: C_10  and  N_11 
REMARK    2  A    between atoms: N_11  and  C_12 
REMARK    3  A    between atoms: C_13  and  O_14 
REMARK    4  A    between atoms: O_14  and  C_15 
REMARK    5  A    between atoms: C_15  and  C_16 
ROOT
HETATM    1  N   UNL     1     -43.783  56.057 -57.495  1.00  0.00    -0.305 N 
HETATM    2  C   UNL     1     -42.915  55.988 -56.421  1.00  0.00     0.325 C 
HETATM    3  N   UNL     1     -43.036  54.764 -55.788  1.00  0.00    -0.306 N 
HETATM    4  O   UNL     1     -42.137  56.870 -56.081  1.00  0.00    -0.247 OA
HETATM    5  H   UNL     1     -43.958  55.182 -57.965  1.00  0.00     0.171 HD
HETATM    6  H   UNL     1     -43.950  54.330 -55.838  1.00  0.00     0.171 HD
ENDROOT
BRANCH   3   7
HETATM    7  C   UNL     1     -42.163  54.232 -54.817  1.00  0.00     0.070 A 
HETATM    8  C   UNL     1     -42.523  54.361 -53.465  1.00  0.00     0.097 A 
HETATM    9  C   UNL     1     -41.747  53.791 -52.455  1.00  0.00     0.063 A 
HETATM   10  C   UNL     1     -40.579  53.112 -52.797  1.00  0.00     0.036 A 
HETATM   11 CL   UNL     1     -39.610  52.409 -51.563  1.00  0.00    -0.084 Cl
HETATM   12  C   UNL     1     -40.192  52.998 -54.131  1.00  0.00     0.026 A 
HETATM   13  C   UNL     1     -40.986  53.554 -55.141  1.00  0.00     0.034 A 
BRANCH   8  14
HETATM   14  O   UNL     1     -43.674  55.048 -53.161  1.00  0.00    -0.340 OA
BRANCH  14  15
HETATM   15  C   UNL     1     -43.374  56.373 -52.678  1.00  0.00     0.293 C 
BRANCH  15  16
HETATM   16  C   UNL     1     -44.364  57.375 -53.247  1.00  0.00     0.408 C 
HETATM   17  F   UNL     1     -45.189  57.850 -52.286  1.00  0.00    -0.169 F 
HETATM   18  F   UNL     1     -43.738  58.430 -53.812  1.00  0.00    -0.169 F 
HETATM   19  F   UNL     1     -45.133  56.799 -54.199  1.00  0.00    -0.169 F 
ENDBRANCH  15  16
ENDBRANCH  14  15
ENDBRANCH   8  14
ENDBRANCH   3   7
BRANCH   1  20
HETATM   20  C   UNL     1     -44.060  57.207 -58.214  1.00  0.00     0.086 A 
HETATM   21  C   UNL     1     -43.369  57.565 -59.355  1.00  0.00     0.052 A 
HETATM   22  C   UNL     1     -42.224  56.955 -60.068  1.00  0.00     0.072 C 
HETATM   23  N   UNL     1     -43.929  58.742 -59.770  1.00  0.00    -0.280 N 
HETATM   24  H   UNL     1     -43.666  59.315 -60.564  1.00  0.00     0.189 HD
HETATM   25  N   UNL     1     -44.953  59.152 -59.015  1.00  0.00    -0.177 NA
HETATM   26  C   UNL     1     -45.049  58.219 -58.055  1.00  0.00     0.079 A 
HETATM   27  C   UNL     1     -46.149  58.327 -57.064  1.00  0.00     0.075 C 
ENDBRANCH   1  20
TORSDOF 5
ENDMDL
MODEL 7
REMARK VINA RESULT:      -6.9      3.290      6.569
REMARK  5 active torsions:
REMARK  status: ('A' for Active; 'I' for Inactive)
REMARK    1  A    between atoms: C_8  and  N_9 
REMARK       I    between atoms: N_9  and  C_10 
REMARK       I    between atoms: C_10  and  N_11 
REMARK    2  A    between atoms: N_11  and  C_12 
REMARK    3  A    between atoms: C_13  and  O_14 
REMARK    4  A    between atoms: O_14  and  C_15 
REMARK    5  A    between atoms: C_15  and  C_16 
ROOT
HETATM    1  N   UNL     1     -39.995  52.821 -53.974  1.00  0.00    -0.305 N 
HETATM    2  C   UNL     1     -41.090  53.658 -54.085  1.00  0.00     0.325 C 
HETATM    3  N   UNL     1     -40.814  54.691 -54.963  1.00  0.00    -0.306 N 
HETATM    4  O   UNL     1     -42.159  53.507 -53.506  1.00  0.00    -0.247 OA
HETATM    5  H   UNL     1     -39.434  52.732 -54.807  1.00  0.00     0.171 HD
HETATM    6  H   UNL     1     -39.844  54.977 -55.016  1.00  0.00     0.171 HD
ENDROOT
BRANCH   3   7
HETATM    7  C   UNL     1     -41.745  55.594 -55.514  1.00  0.00     0.070 A 
HETATM    8  C   UNL     1     -41.799  56.893 -54.980  1.00  0.00     0.097 A 
HETATM    9  C   UNL     1     -42.640  57.863 -55.528  1.00  0.00     0.063 A 
HETATM   10  C   UNL     1     -43.463  57.521 -56.599  1.00  0.00     0.036 A 
HETATM   11 CL   UNL     1     -44.509  58.704 -57.280  1.00  0.00    -0.084 Cl
HETATM   12  C   UNL     1     -43.443  56.230 -57.123  1.00  0.00     0.026 A 
HETATM   13  C   UNL     1     -42.581  55.268 -56.584  1.00  0.00     0.034 A 
BRANCH   8  14
HETATM   14  O   UNL     1     -40.983  57.193 -53.915  1.00  0.00    -0.340 OA
BRANCH  14  15
HETATM   15  C   UNL     1     -41.736  57.792 -52.841  1.00  0.00     0.293 C 
BRANCH  15  16
HETATM   16  C   UNL     1     -42.046  56.754 -51.776  1.00  0.00     0.408 C 
HETATM   17  F   UNL     1     -42.213  57.330 -50.563  1.00  0.00    -0.169 F 
HETATM   18  F   UNL     1     -43.170  56.063 -52.064  1.00  0.00    -0.169 F 
HETATM   19  F   UNL     1     -41.035  55.862 -51.669  1.00  0.00    -0.169 F 
ENDBRANCH  15  16
ENDBRANCH  14  15
ENDBRANCH   8  14
ENDBRANCH   3   7
BRANCH   1  20
HETATM   20  C   UNL     1     -39.863  51.814 -53.033  1.00  0.00     0.086 A 
HETATM   21  C   UNL     1     -39.710  50.484 -53.372  1.00  0.00     0.052 A 
HETATM   22  C   UNL     1     -39.692  49.775 -54.672  1.00  0.00     0.072 C 
HETATM   23  N   UNL     1     -39.612  49.810 -52.186  1.00  0.00    -0.280 N 
HETATM   24  H   UNL     1     -39.512  48.812 -52.039  1.00  0.00     0.189 HD
HETATM   25  N   UNL     1     -39.645  50.601 -51.108  1.00  0.00    -0.177 NA
HETATM   26  C   UNL     1     -39.796  51.836 -51.611  1.00  0.00     0.079 A 
HETATM   27  C   UNL     1     -39.803  52.990 -50.676  1.00  0.00     0.075 C 
ENDBRANCH   1  20
TORSDOF 5
ENDMDL
MODEL 8
REMARK VINA RESULT:      -6.9      2.711      3.281
REMARK  5 active torsions:
REMARK  status: ('A' for Active; 'I' for Inactive)
REMARK    1  A    between atoms: C_8  and  N_9 
REMARK       I    between atoms: N_9  and  C_10 
REMARK       I    between atoms: C_10  and  N_11 
REMARK    2  A    between atoms: N_11  and  C_12 
REMARK    3  A    between atoms: C_13  and  O_14 
REMARK    4  A    between atoms: O_14  and  C_15 
REMARK    5  A    between atoms: C_15  and  C_16 
ROOT
HETATM    1  N   UNL     1     -42.513  57.305 -53.537  1.00  0.00    -0.305 N 
HETATM    2  C   UNL     1     -42.375  55.970 -53.867  1.00  0.00     0.325 C 
HETATM    3  N   UNL     1     -41.093  55.537 -53.579  1.00  0.00    -0.306 N 
HETATM    4  O   UNL     1     -43.258  55.260 -54.331  1.00  0.00    -0.247 OA
HETATM    5  H   UNL     1     -41.966  57.613 -52.748  1.00  0.00     0.171 HD
HETATM    6  H   UNL     1     -40.366  56.239 -53.644  1.00  0.00     0.171 HD
ENDROOT
BRANCH   3   7
HETATM    7  C   UNL     1     -40.646  54.200 -53.549  1.00  0.00     0.070 A 
HETATM    8  C   UNL     1     -40.543  53.568 -52.299  1.00  0.00     0.097 A 
HETATM    9  C   UNL     1     -40.183  52.223 -52.199  1.00  0.00     0.063 A 
HETATM   10  C   UNL     1     -39.890  51.511 -53.360  1.00  0.00     0.036 A 
HETATM   11 CL   UNL     1     -39.439  49.854 -53.252  1.00  0.00    -0.084 Cl
HETATM   12  C   UNL     1     -39.960  52.129 -54.607  1.00  0.00     0.026 A 
HETATM   13  C   UNL     1     -40.342  53.472 -54.702  1.00  0.00     0.034 A 
BRANCH   8  14
HETATM   14  O   UNL     1     -40.827  54.303 -51.173  1.00  0.00    -0.340 OA
BRANCH  14  15
HETATM   15  C   UNL     1     -41.019  53.444 -50.030  1.00  0.00     0.293 C 
BRANCH  15  16
HETATM   16  C   UNL     1     -40.432  54.089 -48.786  1.00  0.00     0.408 C 
HETATM   17  F   UNL     1     -40.998  55.294 -48.545  1.00  0.00    -0.169 F 
HETATM   18  F   UNL     1     -40.615  53.320 -47.691  1.00  0.00    -0.169 F 
HETATM   19  F   UNL     1     -39.101  54.283 -48.930  1.00  0.00    -0.169 F 
ENDBRANCH  15  16
ENDBRANCH  14  15
ENDBRANCH   8  14
ENDBRANCH   3   7
BRANCH   1  20
HETATM   20  C   UNL     1     -43.596  58.096 -53.881  1.00  0.00     0.086 A 
HETATM   21  C   UNL     1     -44.648  58.345 -53.022  1.00  0.00     0.052 A 
HETATM   22  C   UNL     1     -44.959  57.874 -51.653  1.00  0.00     0.072 C 
HETATM   23  N   UNL     1     -45.504  59.156 -53.714  1.00  0.00    -0.280 N 
HETATM   24  H   UNL     1     -46.398  59.528 -53.410  1.00  0.00     0.189 HD
HETATM   25  N   UNL     1     -45.071  59.488 -54.935  1.00  0.00    -0.177 NA
HETATM   26  C   UNL     1     -43.898  58.847 -55.053  1.00  0.00     0.079 A 
HETATM   27  C   UNL     1     -43.094  59.053 -56.284  1.00  0.00     0.075 C 
ENDBRANCH   1  20
TORSDOF 5
ENDMDL
MODEL 9
REMARK VINA RESULT:      -6.9      1.762      1.982
REMARK  5 active torsions:
REMARK  status: ('A' for Active; 'I' for Inactive)
REMARK    1  A    between atoms: C_8  and  N_9 
REMARK       I    between atoms: N_9  and  C_10 
REMARK       I    between atoms: C_10  and  N_11 
REMARK    2  A    between atoms: N_11  and  C_12 
REMARK    3  A    between atoms: C_13  and  O_14 
REMARK    4  A    between atoms: O_14  and  C_15 
REMARK    5  A    between atoms: C_15  and  C_16 
ROOT
HETATM    1  N   UNL     1     -43.634  55.952 -57.174  1.00  0.00    -0.305 N 
HETATM    2  C   UNL     1     -42.719  55.828 -56.145  1.00  0.00     0.325 C 
HETATM    3  N   UNL     1     -42.897  54.622 -55.491  1.00  0.00    -0.306 N 
HETATM    4  O   UNL     1     -41.861  56.653 -55.857  1.00  0.00    -0.247 OA
HETATM    5  H   UNL     1     -43.898  55.089 -57.623  1.00  0.00     0.171 HD
HETATM    6  H   UNL     1     -43.842  54.257 -55.488  1.00  0.00     0.171 HD
ENDROOT
BRANCH   3   7
HETATM    7  C   UNL     1     -42.016  54.035 -54.560  1.00  0.00     0.070 A 
HETATM    8  C   UNL     1     -42.348  54.116 -53.197  1.00  0.00     0.097 A 
HETATM    9  C   UNL     1     -41.565  53.490 -52.226  1.00  0.00     0.063 A 
HETATM   10  C   UNL     1     -40.417  52.805 -52.618  1.00  0.00     0.036 A 
HETATM   11 CL   UNL     1     -39.438  52.034 -51.433  1.00  0.00    -0.084 Cl
HETATM   12  C   UNL     1     -40.058  52.738 -53.963  1.00  0.00     0.026 A 
HETATM   13  C   UNL     1     -40.859  53.349 -54.934  1.00  0.00     0.034 A 
BRANCH   8  14
HETATM   14  O   UNL     1     -43.480  54.811 -52.843  1.00  0.00    -0.340 OA
BRANCH  14  15
HETATM   15  C   UNL     1     -43.205  55.737 -51.773  1.00  0.00     0.293 C 
BRANCH  15  16
HETATM   16  C   UNL     1     -42.966  57.129 -52.333  1.00  0.00     0.408 C 
HETATM   17  F   UNL     1     -41.686  57.279 -52.746  1.00  0.00    -0.169 F 
HETATM   18  F   UNL     1     -43.773  57.389 -53.384  1.00  0.00    -0.169 F 
HETATM   19  F   UNL     1     -43.205  58.071 -51.392  1.00  0.00    -0.169 F 
ENDBRANCH  15  16
ENDBRANCH  14  15
ENDBRANCH   8  14
ENDBRANCH   3   7
BRANCH   1  20
HETATM   20  C   UNL     1     -43.862  57.113 -57.893  1.00  0.00     0.086 A 
HETATM   21  C   UNL     1     -44.717  58.108 -57.463  1.00  0.00     0.052 A 
HETATM   22  C   UNL     1     -45.600  58.231 -56.280  1.00  0.00     0.072 C 
HETATM   23  N   UNL     1     -44.672  59.076 -58.429  1.00  0.00    -0.280 N 
HETATM   24  H   UNL     1     -45.188  59.948 -58.466  1.00  0.00     0.189 HD
HETATM   25  N   UNL     1     -43.823  58.807 -59.427  1.00  0.00    -0.177 NA
HETATM   26  C   UNL     1     -43.315  57.606 -59.112  1.00  0.00     0.079 A 
HETATM   27  C   UNL     1     -42.266  57.024 -59.988  1.00  0.00     0.075 C 
ENDBRANCH   1  20
TORSDOF 5
ENDMDL
MODEL 10
REMARK VINA RESULT:      -6.8      3.366      5.014
REMARK  5 active torsions:
REMARK  status: ('A' for Active; 'I' for Inactive)
REMARK    1  A    between atoms: C_8  and  N_9 
REMARK       I    between atoms: N_9  and  C_10 
REMARK       I    between atoms: C_10  and  N_11 
REMARK    2  A    between atoms: N_11  and  C_12 
REMARK    3  A    between atoms: C_13  and  O_14 
REMARK    4  A    between atoms: O_14  and  C_15 
REMARK    5  A    between atoms: C_15  and  C_16 
ROOT
HETATM    1  N   UNL     1     -42.744  57.235 -51.396  1.00  0.00    -0.305 N 
HETATM    2  C   UNL     1     -41.817  56.434 -52.035  1.00  0.00     0.325 C 
HETATM    3  N   UNL     1     -41.945  55.123 -51.610  1.00  0.00    -0.306 N 
HETATM    4  O   UNL     1     -41.006  56.816 -52.869  1.00  0.00    -0.247 OA
HETATM    5  H   UNL     1     -43.620  56.787 -51.171  1.00  0.00     0.171 HD
HETATM    6  H   UNL     1     -42.281  54.998 -50.663  1.00  0.00     0.171 HD
ENDROOT
BRANCH   3   7
HETATM    7  C   UNL     1     -41.351  53.989 -52.200  1.00  0.00     0.070 A 
HETATM    8  C   UNL     1     -41.856  53.548 -53.435  1.00  0.00     0.097 A 
HETATM    9  C   UNL     1     -41.267  52.481 -54.115  1.00  0.00     0.063 A 
HETATM   10  C   UNL     1     -40.182  51.824 -53.537  1.00  0.00     0.036 A 
HETATM   11 CL   UNL     1     -39.449  50.504 -54.360  1.00  0.00    -0.084 Cl
HETATM   12  C   UNL     1     -39.685  52.231 -52.300  1.00  0.00     0.026 A 
HETATM   13  C   UNL     1     -40.267  53.315 -51.634  1.00  0.00     0.034 A 
BRANCH   8  14
HETATM   14  O   UNL     1     -42.935  54.210 -53.971  1.00  0.00    -0.340 OA
BRANCH  14  15
HETATM   15  C   UNL     1     -42.944  54.104 -55.409  1.00  0.00     0.293 C 
BRANCH  15  16
HETATM   16  C   UNL     1     -42.737  55.472 -56.037  1.00  0.00     0.408 C 
HETATM   17  F   UNL     1     -41.484  55.930 -55.810  1.00  0.00    -0.169 F 
HETATM   18  F   UNL     1     -42.931  55.443 -57.373  1.00  0.00    -0.169 F 
HETATM   19  F   UNL     1     -43.602  56.373 -55.518  1.00  0.00    -0.169 F 
ENDBRANCH  15  16
ENDBRANCH  14  15
ENDBRANCH   8  14
ENDBRANCH   3   7
BRANCH   1  20
HETATM   20  C   UNL     1     -42.756  58.619 -51.438  1.00  0.00     0.086 A 
HETATM   21  C   UNL     1     -43.726  59.343 -52.100  1.00  0.00     0.052 A 
HETATM   22  C   UNL     1     -44.892  58.943 -52.920  1.00  0.00     0.072 C 
HETATM   23  N   UNL     1     -43.398  60.657 -51.912  1.00  0.00    -0.280 N 
HETATM   24  H   UNL     1     -43.872  61.479 -52.271  1.00  0.00     0.189 HD
HETATM   25  N   UNL     1     -42.318  60.843 -51.145  1.00  0.00    -0.177 NA
HETATM   26  C   UNL     1     -41.912  59.600 -50.843  1.00  0.00     0.079 A 
HETATM   27  C   UNL     1     -40.753  59.432 -49.930  1.00  0.00     0.075 C 
ENDBRANCH   1  20
TORSDOF 5
ENDMDL
