MODEL 1
REMARK VINA RESULT:      -8.1      0.000      0.000
REMARK  11 active torsions:
REMARK  status: ('A' for Active; 'I' for Inactive)
REMARK    1  A    between atoms: C_2  and  O_3 
REMARK    2  A    between atoms: O_3  and  C_4 
REMARK    3  A    between atoms: C_5  and  O_6 
REMARK    4  A    between atoms: O_6  and  C_7 
REMARK    5  A    between atoms: C_7  and  C_8 
REMARK       I    between atoms: C_8  and  N_9 
REMARK    6  A    between atoms: N_9  and  C_10 
REMARK    7  A    between atoms: C_11  and  O_12 
REMARK    8  A    between atoms: C_21  and  C_22 
REMARK    9  A    between atoms: C_27  and  C_28 
REMARK   10  A    between atoms: C_34  and  C_35 
REMARK   11  A    between atoms: C_35  and  C_36 
ROOT
HETATM    1  C   UNL     1     -41.406  59.053 -53.160  1.00  0.00     0.102 A 
HETATM    2  C   UNL     1     -42.288  57.989 -52.947  1.00  0.00     0.102 A 
HETATM    3  C   UNL     1     -43.533  57.966 -53.578  1.00  0.00     0.040 A 
HETATM    4  C   UNL     1     -43.889  58.983 -54.459  1.00  0.00     0.012 A 
HETATM    5  C   UNL     1     -43.008  60.044 -54.711  1.00  0.00    -0.028 A 
HETATM    6  C   UNL     1     -41.751  60.049 -54.078  1.00  0.00     0.049 A 
ENDROOT
BRANCH   5   7
HETATM    7  C   UNL     1     -43.431  61.168 -55.640  1.00  0.00     0.157 C 
HETATM    8  N   UNL     1     -44.793  61.555 -55.322  1.00  0.00    -0.354 N 
HETATM    9  C   UNL     1     -45.625  62.144 -56.217  1.00  0.00     0.173 C 
HETATM   10  H   UNL     1     -45.047  61.657 -54.346  1.00  0.00     0.163 HD
HETATM   11  S   UNL     1     -47.020  62.901 -55.733  1.00  0.00    -0.041 SA
HETATM   12  N   UNL     1     -45.279  62.047 -57.529  1.00  0.00    -0.332 N 
HETATM   13  C   UNL     1     -44.182  61.358 -57.996  1.00  0.00     0.057 C 
HETATM   14  H   UNL     1     -45.947  62.409 -58.203  1.00  0.00     0.168 HD
HETATM   15  C   UNL     1     -43.272  60.897 -57.116  1.00  0.00     0.047 C 
BRANCH  13  16
HETATM   16  C   UNL     1     -44.102  61.222 -59.458  1.00  0.00    -0.009 A 
HETATM   17  C   UNL     1     -43.163  61.959 -60.190  1.00  0.00     0.014 A 
HETATM   18  C   UNL     1     -43.057  61.788 -61.571  1.00  0.00     0.001 A 
HETATM   19  C   UNL     1     -43.881  60.877 -62.228  1.00  0.00     0.000 A 
HETATM   20  C   UNL     1     -44.817  60.138 -61.506  1.00  0.00     0.001 A 
HETATM   21  C   UNL     1     -44.928  60.308 -60.125  1.00  0.00     0.014 A 
ENDBRANCH  13  16
BRANCH  15  22
HETATM   22  C   UNL     1     -42.108  60.081 -57.567  1.00  0.00     0.193 C 
HETATM   23  O   UNL     1     -40.968  60.536 -57.544  1.00  0.00    -0.287 OA
BRANCH  22  24
HETATM   24  C   UNL     1     -42.364  58.760 -58.198  1.00  0.00     0.015 A 
HETATM   25  C   UNL     1     -41.794  58.510 -59.454  1.00  0.00     0.015 A 
HETATM   26  C   UNL     1     -42.044  57.304 -60.110  1.00  0.00     0.001 A 
HETATM   27  C   UNL     1     -42.854  56.342 -59.511  1.00  0.00     0.000 A 
HETATM   28  C   UNL     1     -43.406  56.577 -58.250  1.00  0.00     0.001 A 
HETATM   29  C   UNL     1     -43.157  57.781 -57.587  1.00  0.00     0.015 A 
ENDBRANCH  22  24
ENDBRANCH  15  22
ENDBRANCH   5   7
BRANCH   1  30
HETATM   30  O   UNL     1     -40.218  59.049 -52.478  1.00  0.00    -0.349 OA
BRANCH  30  31
HETATM   31  C   UNL     1     -40.287  59.481 -51.114  1.00  0.00     0.171 C 
HETATM   32  C   UNL     1     -38.887  59.575 -50.535  1.00  0.00     0.034 C 
ENDBRANCH  30  31
ENDBRANCH   1  30
BRANCH   2  33
HETATM   33  O   UNL     1     -42.047  56.984 -52.047  1.00  0.00    -0.339 OA
BRANCH  33  34
HETATM   34  C   UNL     1     -43.181  56.127 -51.848  1.00  0.00     0.278 C 
BRANCH  34  35
HETATM   35  C   UNL     1     -42.785  54.647 -51.981  1.00  0.00     0.246 C 
HETATM   36  N   UNL     1     -41.555  54.489 -52.603  1.00  0.00    -0.323 N 
HETATM   37  H   UNL     1     -41.028  55.350 -52.681  1.00  0.00     0.169 HD
HETATM   38  O   UNL     1     -43.487  53.767 -51.493  1.00  0.00    -0.271 OA
BRANCH  36  39
HETATM   39  C   UNL     1     -40.853  53.286 -52.817  1.00  0.00     0.068 A 
HETATM   40  C   UNL     1     -39.929  52.725 -51.917  1.00  0.00     0.095 A 
HETATM   41  C   UNL     1     -39.252  51.552 -52.281  1.00  0.00     0.039 A 
HETATM   42  C   UNL     1     -39.520  50.919 -53.499  1.00  0.00     0.003 A 
HETATM   43  C   UNL     1     -40.483  51.438 -54.356  1.00  0.00     0.002 A 
HETATM   44  C   UNL     1     -41.154  52.610 -54.011  1.00  0.00     0.032 A 
BRANCH  40  45
HETATM   45  O   UNL     1     -39.829  53.305 -50.681  1.00  0.00    -0.354 OA
HETATM   46  C   UNL     1     -40.529  52.705 -49.601  1.00  0.00     0.210 C 
ENDBRANCH  40  45
ENDBRANCH  36  39
ENDBRANCH  34  35
ENDBRANCH  33  34
ENDBRANCH   2  33
TORSDOF 11
ENDMDL
MODEL 2
REMARK VINA RESULT:      -7.9      3.039      8.386
REMARK  11 active torsions:
REMARK  status: ('A' for Active; 'I' for Inactive)
REMARK    1  A    between atoms: C_2  and  O_3 
REMARK    2  A    between atoms: O_3  and  C_4 
REMARK    3  A    between atoms: C_5  and  O_6 
REMARK    4  A    between atoms: O_6  and  C_7 
REMARK    5  A    between atoms: C_7  and  C_8 
REMARK       I    between atoms: C_8  and  N_9 
REMARK    6  A    between atoms: N_9  and  C_10 
REMARK    7  A    between atoms: C_11  and  O_12 
REMARK    8  A    between atoms: C_21  and  C_22 
REMARK    9  A    between atoms: C_27  and  C_28 
REMARK   10  A    between atoms: C_34  and  C_35 
REMARK   11  A    between atoms: C_35  and  C_36 
ROOT
HETATM    1  C   UNL     1     -42.835  60.563 -55.298  1.00  0.00     0.102 A 
HETATM    2  C   UNL     1     -44.187  60.920 -55.303  1.00  0.00     0.102 A 
HETATM    3  C   UNL     1     -44.979  60.703 -54.174  1.00  0.00     0.040 A 
HETATM    4  C   UNL     1     -44.417  60.168 -53.019  1.00  0.00     0.012 A 
HETATM    5  C   UNL     1     -43.057  59.830 -52.981  1.00  0.00    -0.028 A 
HETATM    6  C   UNL     1     -42.267  60.066 -54.122  1.00  0.00     0.049 A 
ENDROOT
BRANCH   5   7
HETATM    7  C   UNL     1     -42.472  59.206 -51.727  1.00  0.00     0.157 C 
HETATM    8  N   UNL     1     -41.175  59.803 -51.465  1.00  0.00    -0.354 N 
HETATM    9  C   UNL     1     -40.200  59.177 -50.760  1.00  0.00     0.173 C 
HETATM   10  H   UNL     1     -41.083  60.808 -51.554  1.00  0.00     0.163 HD
HETATM   11  S   UNL     1     -38.893  60.010 -50.166  1.00  0.00    -0.041 SA
HETATM   12  N   UNL     1     -40.327  57.833 -50.602  1.00  0.00    -0.332 N 
HETATM   13  C   UNL     1     -41.342  57.077 -51.145  1.00  0.00     0.057 C 
HETATM   14  H   UNL     1     -39.552  57.353 -50.153  1.00  0.00     0.168 HD
HETATM   15  C   UNL     1     -42.390  57.699 -51.718  1.00  0.00     0.047 C 
BRANCH  13  16
HETATM   16  C   UNL     1     -41.181  55.621 -51.010  1.00  0.00    -0.009 A 
HETATM   17  C   UNL     1     -40.627  54.868 -52.052  1.00  0.00     0.014 A 
HETATM   18  C   UNL     1     -40.429  53.495 -51.901  1.00  0.00     0.001 A 
HETATM   19  C   UNL     1     -40.778  52.867 -50.707  1.00  0.00     0.000 A 
HETATM   20  C   UNL     1     -41.328  53.610 -49.663  1.00  0.00     0.001 A 
HETATM   21  C   UNL     1     -41.529  54.983 -49.812  1.00  0.00     0.014 A 
ENDBRANCH  13  16
BRANCH  15  22
HETATM   22  C   UNL     1     -43.475  56.924 -52.386  1.00  0.00     0.193 C 
HETATM   23  O   UNL     1     -44.567  56.769 -51.847  1.00  0.00    -0.287 OA
BRANCH  22  24
HETATM   24  C   UNL     1     -43.165  56.205 -53.649  1.00  0.00     0.015 A 
HETATM   25  C   UNL     1     -43.718  54.930 -53.831  1.00  0.00     0.015 A 
HETATM   26  C   UNL     1     -43.417  54.193 -54.977  1.00  0.00     0.001 A 
HETATM   27  C   UNL     1     -42.575  54.730 -55.948  1.00  0.00     0.000 A 
HETATM   28  C   UNL     1     -42.040  56.008 -55.782  1.00  0.00     0.001 A 
HETATM   29  C   UNL     1     -42.339  56.752 -54.637  1.00  0.00     0.015 A 
ENDBRANCH  22  24
ENDBRANCH  15  22
ENDBRANCH   5   7
BRANCH   1  30
HETATM   30  O   UNL     1     -42.117  60.754 -56.448  1.00  0.00    -0.349 OA
BRANCH  30  31
HETATM   31  C   UNL     1     -41.915  59.584 -57.252  1.00  0.00     0.171 C 
HETATM   32  C   UNL     1     -41.803  59.981 -58.713  1.00  0.00     0.034 C 
ENDBRANCH  30  31
ENDBRANCH   1  30
BRANCH   2  33
HETATM   33  O   UNL     1     -44.835  61.389 -56.415  1.00  0.00    -0.339 OA
BRANCH  33  34
HETATM   34  C   UNL     1     -45.894  60.524 -56.852  1.00  0.00     0.278 C 
BRANCH  34  35
HETATM   35  C   UNL     1     -45.473  59.720 -58.093  1.00  0.00     0.246 C 
HETATM   36  N   UNL     1     -45.478  58.353 -57.857  1.00  0.00    -0.323 N 
HETATM   37  H   UNL     1     -45.945  58.093 -56.997  1.00  0.00     0.169 HD
HETATM   38  O   UNL     1     -45.256  60.286 -59.160  1.00  0.00    -0.271 OA
BRANCH  36  39
HETATM   39  C   UNL     1     -45.225  57.323 -58.785  1.00  0.00     0.068 A 
HETATM   40  C   UNL     1     -46.133  56.887 -59.767  1.00  0.00     0.095 A 
HETATM   41  C   UNL     1     -45.777  55.808 -60.589  1.00  0.00     0.039 A 
HETATM   42  C   UNL     1     -44.523  55.200 -60.471  1.00  0.00     0.003 A 
HETATM   43  C   UNL     1     -43.603  55.677 -59.547  1.00  0.00     0.002 A 
HETATM   44  C   UNL     1     -43.948  56.741 -58.716  1.00  0.00     0.032 A 
BRANCH  40  45
HETATM   45  O   UNL     1     -47.275  57.623 -59.934  1.00  0.00    -0.354 OA
HETATM   46  C   UNL     1     -47.669  57.955 -61.257  1.00  0.00     0.210 C 
ENDBRANCH  40  45
ENDBRANCH  36  39
ENDBRANCH  34  35
ENDBRANCH  33  34
ENDBRANCH   2  33
TORSDOF 11
ENDMDL
MODEL 3
REMARK VINA RESULT:      -7.9      2.463      3.430
REMARK  11 active torsions:
REMARK  status: ('A' for Active; 'I' for Inactive)
REMARK    1  A    between atoms: C_2  and  O_3 
REMARK    2  A    between atoms: O_3  and  C_4 
REMARK    3  A    between atoms: C_5  and  O_6 
REMARK    4  A    between atoms: O_6  and  C_7 
REMARK    5  A    between atoms: C_7  and  C_8 
REMARK       I    between atoms: C_8  and  N_9 
REMARK    6  A    between atoms: N_9  and  C_10 
REMARK    7  A    between atoms: C_11  and  O_12 
REMARK    8  A    between atoms: C_21  and  C_22 
REMARK    9  A    between atoms: C_27  and  C_28 
REMARK   10  A    between atoms: C_34  and  C_35 
REMARK   11  A    between atoms: C_35  and  C_36 
ROOT
HETATM    1  C   UNL     1     -42.237  57.129 -55.106  1.00  0.00     0.102 A 
HETATM    2  C   UNL     1     -42.547  57.634 -53.839  1.00  0.00     0.102 A 
HETATM    3  C   UNL     1     -43.206  58.857 -53.708  1.00  0.00     0.040 A 
HETATM    4  C   UNL     1     -43.597  59.566 -54.841  1.00  0.00     0.012 A 
HETATM    5  C   UNL     1     -43.323  59.064 -56.121  1.00  0.00    -0.028 A 
HETATM    6  C   UNL     1     -42.670  57.823 -56.239  1.00  0.00     0.049 A 
ENDROOT
BRANCH   5   7
HETATM    7  C   UNL     1     -43.717  59.871 -57.345  1.00  0.00     0.157 C 
HETATM    8  N   UNL     1     -43.401  61.268 -57.110  1.00  0.00    -0.354 N 
HETATM    9  C   UNL     1     -44.034  62.288 -57.741  1.00  0.00     0.173 C 
HETATM   10  H   UNL     1     -42.506  61.493 -56.690  1.00  0.00     0.163 HD
HETATM   11  S   UNL     1     -43.413  63.827 -57.735  1.00  0.00    -0.041 SA
HETATM   12  N   UNL     1     -45.219  61.995 -58.340  1.00  0.00    -0.332 N 
HETATM   13  C   UNL     1     -45.825  60.758 -58.304  1.00  0.00     0.057 C 
HETATM   14  H   UNL     1     -45.735  62.776 -58.734  1.00  0.00     0.168 HD
HETATM   15  C   UNL     1     -45.143  59.707 -57.812  1.00  0.00     0.047 C 
BRANCH  13  16
HETATM   16  C   UNL     1     -47.188  60.711 -58.853  1.00  0.00    -0.009 A 
HETATM   17  C   UNL     1     -48.299  60.808 -58.006  1.00  0.00     0.014 A 
HETATM   18  C   UNL     1     -49.590  60.815 -58.536  1.00  0.00     0.001 A 
HETATM   19  C   UNL     1     -49.779  60.731 -59.914  1.00  0.00     0.000 A 
HETATM   20  C   UNL     1     -48.679  60.637 -60.764  1.00  0.00     0.001 A 
HETATM   21  C   UNL     1     -47.386  60.628 -60.238  1.00  0.00     0.014 A 
ENDBRANCH  13  16
BRANCH  15  22
HETATM   22  C   UNL     1     -45.782  58.365 -57.682  1.00  0.00     0.193 C 
HETATM   23  O   UNL     1     -46.292  58.006 -56.625  1.00  0.00    -0.287 OA
BRANCH  22  24
HETATM   24  C   UNL     1     -45.653  57.401 -58.807  1.00  0.00     0.015 A 
HETATM   25  C   UNL     1     -46.810  57.076 -59.528  1.00  0.00     0.015 A 
HETATM   26  C   UNL     1     -46.751  56.140 -60.561  1.00  0.00     0.001 A 
HETATM   27  C   UNL     1     -45.538  55.535 -60.883  1.00  0.00     0.000 A 
HETATM   28  C   UNL     1     -44.379  55.872 -60.181  1.00  0.00     0.001 A 
HETATM   29  C   UNL     1     -44.431  56.810 -59.148  1.00  0.00     0.015 A 
ENDBRANCH  22  24
ENDBRANCH  15  22
ENDBRANCH   5   7
BRANCH   1  30
HETATM   30  O   UNL     1     -41.548  55.947 -55.175  1.00  0.00    -0.349 OA
BRANCH  30  31
HETATM   31  C   UNL     1     -42.037  55.003 -56.135  1.00  0.00     0.171 C 
HETATM   32  C   UNL     1     -43.281  54.322 -55.594  1.00  0.00     0.034 C 
ENDBRANCH  30  31
ENDBRANCH   1  30
BRANCH   2  33
HETATM   33  O   UNL     1     -42.141  57.038 -52.674  1.00  0.00    -0.339 OA
BRANCH  33  34
HETATM   34  C   UNL     1     -43.176  56.262 -52.053  1.00  0.00     0.278 C 
BRANCH  34  35
HETATM   35  C   UNL     1     -42.816  54.767 -52.043  1.00  0.00     0.246 C 
HETATM   36  N   UNL     1     -41.498  54.544 -52.413  1.00  0.00    -0.323 N 
HETATM   37  H   UNL     1     -40.935  55.386 -52.429  1.00  0.00     0.169 HD
HETATM   38  O   UNL     1     -43.629  53.932 -51.657  1.00  0.00    -0.271 OA
BRANCH  36  39
HETATM   39  C   UNL     1     -40.812  53.313 -52.437  1.00  0.00     0.068 A 
HETATM   40  C   UNL     1     -40.270  52.675 -51.307  1.00  0.00     0.095 A 
HETATM   41  C   UNL     1     -39.556  51.480 -51.480  1.00  0.00     0.039 A 
HETATM   42  C   UNL     1     -39.421  50.903 -52.746  1.00  0.00     0.003 A 
HETATM   43  C   UNL     1     -40.016  51.500 -53.850  1.00  0.00     0.002 A 
HETATM   44  C   UNL     1     -40.718  52.693 -53.694  1.00  0.00     0.032 A 
BRANCH  40  45
HETATM   45  O   UNL     1     -40.571  53.208 -50.083  1.00  0.00    -0.354 OA
HETATM   46  C   UNL     1     -39.665  54.145 -49.519  1.00  0.00     0.210 C 
ENDBRANCH  40  45
ENDBRANCH  36  39
ENDBRANCH  34  35
ENDBRANCH  33  34
ENDBRANCH   2  33
TORSDOF 11
ENDMDL
MODEL 4
REMARK VINA RESULT:      -7.8      3.186      8.172
REMARK  11 active torsions:
REMARK  status: ('A' for Active; 'I' for Inactive)
REMARK    1  A    between atoms: C_2  and  O_3 
REMARK    2  A    between atoms: O_3  and  C_4 
REMARK    3  A    between atoms: C_5  and  O_6 
REMARK    4  A    between atoms: O_6  and  C_7 
REMARK    5  A    between atoms: C_7  and  C_8 
REMARK       I    between atoms: C_8  and  N_9 
REMARK    6  A    between atoms: N_9  and  C_10 
REMARK    7  A    between atoms: C_11  and  O_12 
REMARK    8  A    between atoms: C_21  and  C_22 
REMARK    9  A    between atoms: C_27  and  C_28 
REMARK   10  A    between atoms: C_34  and  C_35 
REMARK   11  A    between atoms: C_35  and  C_36 
ROOT
HETATM    1  C   UNL     1     -45.601  61.520 -54.050  1.00  0.00     0.102 A 
HETATM    2  C   UNL     1     -44.775  62.347 -54.817  1.00  0.00     0.102 A 
HETATM    3  C   UNL     1     -43.390  62.173 -54.801  1.00  0.00     0.040 A 
HETATM    4  C   UNL     1     -42.823  61.146 -54.052  1.00  0.00     0.012 A 
HETATM    5  C   UNL     1     -43.634  60.286 -53.298  1.00  0.00    -0.028 A 
HETATM    6  C   UNL     1     -45.030  60.464 -53.333  1.00  0.00     0.049 A 
ENDROOT
BRANCH   5   7
HETATM    7  C   UNL     1     -42.995  59.200 -52.452  1.00  0.00     0.157 C 
HETATM    8  N   UNL     1     -41.773  59.718 -51.865  1.00  0.00    -0.354 N 
HETATM    9  C   UNL     1     -40.741  58.925 -51.481  1.00  0.00     0.173 C 
HETATM   10  H   UNL     1     -41.789  60.649 -51.466  1.00  0.00     0.163 HD
HETATM   11  S   UNL     1     -39.537  59.493 -50.490  1.00  0.00    -0.041 SA
HETATM   12  N   UNL     1     -40.724  57.660 -51.979  1.00  0.00    -0.332 N 
HETATM   13  C   UNL     1     -41.647  57.161 -52.871  1.00  0.00     0.057 C 
HETATM   14  H   UNL     1     -39.906  57.098 -51.763  1.00  0.00     0.168 HD
HETATM   15  C   UNL     1     -42.751  57.882 -53.145  1.00  0.00     0.047 C 
BRANCH  13  16
HETATM   16  C   UNL     1     -41.332  55.836 -53.426  1.00  0.00    -0.009 A 
HETATM   17  C   UNL     1     -41.966  54.690 -52.930  1.00  0.00     0.014 A 
HETATM   18  C   UNL     1     -41.702  53.440 -53.493  1.00  0.00     0.001 A 
HETATM   19  C   UNL     1     -40.810  53.329 -54.557  1.00  0.00     0.000 A 
HETATM   20  C   UNL     1     -40.177  54.466 -55.059  1.00  0.00     0.001 A 
HETATM   21  C   UNL     1     -40.436  55.716 -54.496  1.00  0.00     0.014 A 
ENDBRANCH  13  16
BRANCH  15  22
HETATM   22  C   UNL     1     -43.742  57.420 -54.161  1.00  0.00     0.193 C 
HETATM   23  O   UNL     1     -44.812  56.924 -53.822  1.00  0.00    -0.287 OA
BRANCH  22  24
HETATM   24  C   UNL     1     -43.347  57.421 -55.594  1.00  0.00     0.015 A 
HETATM   25  C   UNL     1     -43.581  56.258 -56.340  1.00  0.00     0.015 A 
HETATM   26  C   UNL     1     -43.185  56.191 -57.676  1.00  0.00     0.001 A 
HETATM   27  C   UNL     1     -42.565  57.286 -58.273  1.00  0.00     0.000 A 
HETATM   28  C   UNL     1     -42.350  58.455 -57.540  1.00  0.00     0.001 A 
HETATM   29  C   UNL     1     -42.747  58.529 -56.203  1.00  0.00     0.015 A 
ENDBRANCH  22  24
ENDBRANCH  15  22
ENDBRANCH   5   7
BRANCH   1  30
HETATM   30  O   UNL     1     -46.948  61.765 -54.066  1.00  0.00    -0.349 OA
BRANCH  30  31
HETATM   31  C   UNL     1     -47.545  62.019 -52.788  1.00  0.00     0.171 C 
HETATM   32  C   UNL     1     -49.037  62.242 -52.955  1.00  0.00     0.034 C 
ENDBRANCH  30  31
ENDBRANCH   1  30
BRANCH   2  33
HETATM   33  O   UNL     1     -45.242  63.421 -55.528  1.00  0.00    -0.339 OA
BRANCH  33  34
HETATM   34  C   UNL     1     -44.972  63.321 -56.934  1.00  0.00     0.278 C 
BRANCH  34  35
HETATM   35  C   UNL     1     -45.839  62.233 -57.588  1.00  0.00     0.246 C 
HETATM   36  N   UNL     1     -45.123  61.070 -57.832  1.00  0.00    -0.323 N 
HETATM   37  H   UNL     1     -44.225  61.044 -57.367  1.00  0.00     0.169 HD
HETATM   38  O   UNL     1     -47.040  62.415 -57.764  1.00  0.00    -0.271 OA
BRANCH  36  39
HETATM   39  C   UNL     1     -45.616  59.854 -58.345  1.00  0.00     0.068 A 
HETATM   40  C   UNL     1     -45.518  59.452 -59.690  1.00  0.00     0.095 A 
HETATM   41  C   UNL     1     -46.107  58.240 -60.081  1.00  0.00     0.039 A 
HETATM   42  C   UNL     1     -46.744  57.418 -59.145  1.00  0.00     0.003 A 
HETATM   43  C   UNL     1     -46.779  57.786 -57.806  1.00  0.00     0.002 A 
HETATM   44  C   UNL     1     -46.208  58.992 -57.406  1.00  0.00     0.032 A 
BRANCH  40  45
HETATM   45  O   UNL     1     -44.750  60.223 -60.519  1.00  0.00    -0.354 OA
HETATM   46  C   UNL     1     -43.504  59.701 -60.955  1.00  0.00     0.210 C 
ENDBRANCH  40  45
ENDBRANCH  36  39
ENDBRANCH  34  35
ENDBRANCH  33  34
ENDBRANCH   2  33
TORSDOF 11
ENDMDL
MODEL 5
REMARK VINA RESULT:      -7.8      4.960      8.688
REMARK  11 active torsions:
REMARK  status: ('A' for Active; 'I' for Inactive)
REMARK    1  A    between atoms: C_2  and  O_3 
REMARK    2  A    between atoms: O_3  and  C_4 
REMARK    3  A    between atoms: C_5  and  O_6 
REMARK    4  A    between atoms: O_6  and  C_7 
REMARK    5  A    between atoms: C_7  and  C_8 
REMARK       I    between atoms: C_8  and  N_9 
REMARK    6  A    between atoms: N_9  and  C_10 
REMARK    7  A    between atoms: C_11  and  O_12 
REMARK    8  A    between atoms: C_21  and  C_22 
REMARK    9  A    between atoms: C_27  and  C_28 
REMARK   10  A    between atoms: C_34  and  C_35 
REMARK   11  A    between atoms: C_35  and  C_36 
ROOT
HETATM    1  C   UNL     1     -43.644  61.660 -52.329  1.00  0.00     0.102 A 
HETATM    2  C   UNL     1     -44.892  61.258 -51.841  1.00  0.00     0.102 A 
HETATM    3  C   UNL     1     -45.524  60.129 -52.362  1.00  0.00     0.040 A 
HETATM    4  C   UNL     1     -44.897  59.367 -53.345  1.00  0.00     0.012 A 
HETATM    5  C   UNL     1     -43.633  59.733 -53.827  1.00  0.00    -0.028 A 
HETATM    6  C   UNL     1     -43.000  60.867 -53.284  1.00  0.00     0.049 A 
ENDROOT
BRANCH   5   7
HETATM    7  C   UNL     1     -42.984  58.916 -54.930  1.00  0.00     0.157 C 
HETATM    8  N   UNL     1     -43.949  58.711 -55.994  1.00  0.00    -0.354 N 
HETATM    9  C   UNL     1     -43.888  57.668 -56.859  1.00  0.00     0.173 C 
HETATM   10  H   UNL     1     -44.513  59.499 -56.290  1.00  0.00     0.163 HD
HETATM   11  S   UNL     1     -44.764  57.660 -58.268  1.00  0.00    -0.041 SA
HETATM   12  N   UNL     1     -43.107  56.616 -56.494  1.00  0.00    -0.332 N 
HETATM   13  C   UNL     1     -42.426  56.529 -55.300  1.00  0.00     0.057 C 
HETATM   14  H   UNL     1     -43.133  55.799 -57.098  1.00  0.00     0.168 HD
HETATM   15  C   UNL     1     -42.358  57.611 -54.502  1.00  0.00     0.047 C 
BRANCH  13  16
HETATM   16  C   UNL     1     -41.799  55.226 -55.029  1.00  0.00    -0.009 A 
HETATM   17  C   UNL     1     -40.408  55.080 -55.096  1.00  0.00     0.014 A 
HETATM   18  C   UNL     1     -39.813  53.856 -54.788  1.00  0.00     0.001 A 
HETATM   19  C   UNL     1     -40.602  52.774 -54.405  1.00  0.00     0.000 A 
HETATM   20  C   UNL     1     -41.988  52.911 -54.334  1.00  0.00     0.001 A 
HETATM   21  C   UNL     1     -42.586  54.134 -54.644  1.00  0.00     0.014 A 
ENDBRANCH  13  16
BRANCH  15  22
HETATM   22  C   UNL     1     -41.698  57.545 -53.166  1.00  0.00     0.193 C 
HETATM   23  O   UNL     1     -40.669  58.172 -52.936  1.00  0.00    -0.287 OA
BRANCH  22  24
HETATM   24  C   UNL     1     -42.216  56.579 -52.162  1.00  0.00     0.015 A 
HETATM   25  C   UNL     1     -41.303  55.697 -51.568  1.00  0.00     0.015 A 
HETATM   26  C   UNL     1     -41.747  54.739 -50.656  1.00  0.00     0.001 A 
HETATM   27  C   UNL     1     -43.099  54.666 -50.326  1.00  0.00     0.000 A 
HETATM   28  C   UNL     1     -44.008  55.557 -50.898  1.00  0.00     0.001 A 
HETATM   29  C   UNL     1     -43.569  56.520 -51.811  1.00  0.00     0.015 A 
ENDBRANCH  22  24
ENDBRANCH  15  22
ENDBRANCH   5   7
BRANCH   1  30
HETATM   30  O   UNL     1     -43.091  62.802 -51.815  1.00  0.00    -0.349 OA
BRANCH  30  31
HETATM   31  C   UNL     1     -43.569  64.028 -52.381  1.00  0.00     0.171 C 
HETATM   32  C   UNL     1     -42.760  64.370 -53.619  1.00  0.00     0.034 C 
ENDBRANCH  30  31
ENDBRANCH   1  30
BRANCH   2  33
HETATM   33  O   UNL     1     -45.608  61.985 -50.927  1.00  0.00    -0.339 OA
BRANCH  33  34
HETATM   34  C   UNL     1     -45.808  61.286 -49.690  1.00  0.00     0.278 C 
BRANCH  34  35
HETATM   35  C   UNL     1     -45.133  62.025 -48.522  1.00  0.00     0.246 C 
HETATM   36  N   UNL     1     -45.618  61.610 -47.291  1.00  0.00    -0.323 N 
HETATM   37  H   UNL     1     -46.171  60.764 -47.339  1.00  0.00     0.169 HD
HETATM   38  O   UNL     1     -44.217  62.816 -48.730  1.00  0.00    -0.271 OA
BRANCH  36  39
HETATM   39  C   UNL     1     -45.173  62.014 -46.016  1.00  0.00     0.068 A 
HETATM   40  C   UNL     1     -45.463  63.256 -45.422  1.00  0.00     0.095 A 
HETATM   41  C   UNL     1     -44.906  63.557 -44.171  1.00  0.00     0.039 A 
HETATM   42  C   UNL     1     -44.110  62.624 -43.498  1.00  0.00     0.003 A 
HETATM   43  C   UNL     1     -43.882  61.373 -44.056  1.00  0.00     0.002 A 
HETATM   44  C   UNL     1     -44.421  61.066 -45.304  1.00  0.00     0.032 A 
BRANCH  40  45
HETATM   45  O   UNL     1     -46.371  64.058 -46.060  1.00  0.00    -0.354 OA
HETATM   46  C   UNL     1     -47.737  63.950 -45.687  1.00  0.00     0.210 C 
ENDBRANCH  40  45
ENDBRANCH  36  39
ENDBRANCH  34  35
ENDBRANCH  33  34
ENDBRANCH   2  33
TORSDOF 11
ENDMDL
MODEL 6
REMARK VINA RESULT:      -7.7      4.593      9.448
REMARK  11 active torsions:
REMARK  status: ('A' for Active; 'I' for Inactive)
REMARK    1  A    between atoms: C_2  and  O_3 
REMARK    2  A    between atoms: O_3  and  C_4 
REMARK    3  A    between atoms: C_5  and  O_6 
REMARK    4  A    between atoms: O_6  and  C_7 
REMARK    5  A    between atoms: C_7  and  C_8 
REMARK       I    between atoms: C_8  and  N_9 
REMARK    6  A    between atoms: N_9  and  C_10 
REMARK    7  A    between atoms: C_11  and  O_12 
REMARK    8  A    between atoms: C_21  and  C_22 
REMARK    9  A    between atoms: C_27  and  C_28 
REMARK   10  A    between atoms: C_34  and  C_35 
REMARK   11  A    between atoms: C_35  and  C_36 
ROOT
HETATM    1  C   UNL     1     -43.996  61.887 -52.933  1.00  0.00     0.102 A 
HETATM    2  C   UNL     1     -45.352  61.651 -53.178  1.00  0.00     0.102 A 
HETATM    3  C   UNL     1     -45.745  60.666 -54.085  1.00  0.00     0.040 A 
HETATM    4  C   UNL     1     -44.789  59.880 -54.722  1.00  0.00     0.012 A 
HETATM    5  C   UNL     1     -43.424  60.079 -54.469  1.00  0.00    -0.028 A 
HETATM    6  C   UNL     1     -43.041  61.067 -53.543  1.00  0.00     0.049 A 
ENDROOT
BRANCH   5   7
HETATM    7  C   UNL     1     -42.393  59.244 -55.207  1.00  0.00     0.157 C 
HETATM    8  N   UNL     1     -42.716  59.239 -56.622  1.00  0.00    -0.354 N 
HETATM    9  C   UNL     1     -42.333  58.249 -57.466  1.00  0.00     0.173 C 
HETATM   10  H   UNL     1     -42.981  60.115 -57.057  1.00  0.00     0.163 HD
HETATM   11  S   UNL     1     -42.389  58.447 -59.113  1.00  0.00    -0.041 SA
HETATM   12  N   UNL     1     -41.940  57.078 -56.897  1.00  0.00    -0.332 N 
HETATM   13  C   UNL     1     -41.954  56.826 -55.544  1.00  0.00     0.057 C 
HETATM   14  H   UNL     1     -41.739  56.310 -57.531  1.00  0.00     0.168 HD
HETATM   15  C   UNL     1     -42.190  57.841 -54.690  1.00  0.00     0.047 C 
BRANCH  13  16
HETATM   16  C   UNL     1     -41.671  55.435 -55.161  1.00  0.00    -0.009 A 
HETATM   17  C   UNL     1     -40.374  55.047 -54.802  1.00  0.00     0.014 A 
HETATM   18  C   UNL     1     -40.120  53.738 -54.390  1.00  0.00     0.001 A 
HETATM   19  C   UNL     1     -41.159  52.812 -54.327  1.00  0.00     0.000 A 
HETATM   20  C   UNL     1     -42.454  53.191 -54.680  1.00  0.00     0.001 A 
HETATM   21  C   UNL     1     -42.711  54.498 -55.096  1.00  0.00     0.014 A 
ENDBRANCH  13  16
BRANCH  15  22
HETATM   22  C   UNL     1     -42.290  57.604 -53.220  1.00  0.00     0.193 C 
HETATM   23  O   UNL     1     -43.246  57.003 -52.739  1.00  0.00    -0.287 OA
BRANCH  22  24
HETATM   24  C   UNL     1     -41.293  58.247 -52.324  1.00  0.00     0.015 A 
HETATM   25  C   UNL     1     -41.698  58.580 -51.024  1.00  0.00     0.015 A 
HETATM   26  C   UNL     1     -40.815  59.230 -50.161  1.00  0.00     0.001 A 
HETATM   27  C   UNL     1     -39.525  59.538 -50.588  1.00  0.00     0.000 A 
HETATM   28  C   UNL     1     -39.110  59.187 -51.874  1.00  0.00     0.001 A 
HETATM   29  C   UNL     1     -39.989  58.535 -52.742  1.00  0.00     0.015 A 
ENDBRANCH  22  24
ENDBRANCH  15  22
ENDBRANCH   5   7
BRANCH   1  30
HETATM   30  O   UNL     1     -43.666  62.898 -52.070  1.00  0.00    -0.349 OA
BRANCH  30  31
HETATM   31  C   UNL     1     -42.936  62.499 -50.903  1.00  0.00     0.171 C 
HETATM   32  C   UNL     1     -43.825  61.658 -50.006  1.00  0.00     0.034 C 
ENDBRANCH  30  31
ENDBRANCH   1  30
BRANCH   2  33
HETATM   33  O   UNL     1     -46.355  62.419 -52.647  1.00  0.00    -0.339 OA
BRANCH  33  34
HETATM   34  C   UNL     1     -47.578  61.693 -52.463  1.00  0.00     0.278 C 
BRANCH  34  35
HETATM   35  C   UNL     1     -48.765  62.442 -53.092  1.00  0.00     0.246 C 
HETATM   36  N   UNL     1     -49.923  61.679 -53.095  1.00  0.00    -0.323 N 
HETATM   37  H   UNL     1     -49.864  60.853 -52.512  1.00  0.00     0.169 HD
HETATM   38  O   UNL     1     -48.647  63.610 -53.450  1.00  0.00    -0.271 OA
BRANCH  36  39
HETATM   39  C   UNL     1     -51.208  62.074 -53.519  1.00  0.00     0.068 A 
HETATM   40  C   UNL     1     -51.698  61.935 -54.830  1.00  0.00     0.095 A 
HETATM   41  C   UNL     1     -52.976  62.427 -55.133  1.00  0.00     0.039 A 
HETATM   42  C   UNL     1     -53.773  63.007 -54.142  1.00  0.00     0.003 A 
HETATM   43  C   UNL     1     -53.313  63.081 -52.834  1.00  0.00     0.002 A 
HETATM   44  C   UNL     1     -52.041  62.606 -52.522  1.00  0.00     0.032 A 
BRANCH  40  45
HETATM   45  O   UNL     1     -50.932  61.219 -55.711  1.00  0.00    -0.354 OA
HETATM   46  C   UNL     1     -51.554  60.173 -56.442  1.00  0.00     0.210 C 
ENDBRANCH  40  45
ENDBRANCH  36  39
ENDBRANCH  34  35
ENDBRANCH  33  34
ENDBRANCH   2  33
TORSDOF 11
ENDMDL
MODEL 7
REMARK VINA RESULT:      -7.6      3.099      8.290
REMARK  11 active torsions:
REMARK  status: ('A' for Active; 'I' for Inactive)
REMARK    1  A    between atoms: C_2  and  O_3 
REMARK    2  A    between atoms: O_3  and  C_4 
REMARK    3  A    between atoms: C_5  and  O_6 
REMARK    4  A    between atoms: O_6  and  C_7 
REMARK    5  A    between atoms: C_7  and  C_8 
REMARK       I    between atoms: C_8  and  N_9 
REMARK    6  A    between atoms: N_9  and  C_10 
REMARK    7  A    between atoms: C_11  and  O_12 
REMARK    8  A    between atoms: C_21  and  C_22 
REMARK    9  A    between atoms: C_27  and  C_28 
REMARK   10  A    between atoms: C_34  and  C_35 
REMARK   11  A    between atoms: C_35  and  C_36 
ROOT
HETATM    1  C   UNL     1     -43.456  61.665 -55.682  1.00  0.00     0.102 A 
HETATM    2  C   UNL     1     -44.834  61.892 -55.614  1.00  0.00     0.102 A 
HETATM    3  C   UNL     1     -45.626  61.171 -54.720  1.00  0.00     0.040 A 
HETATM    4  C   UNL     1     -45.043  60.246 -53.858  1.00  0.00     0.012 A 
HETATM    5  C   UNL     1     -43.660  60.023 -53.888  1.00  0.00    -0.028 A 
HETATM    6  C   UNL     1     -42.870  60.767 -54.784  1.00  0.00     0.049 A 
ENDROOT
BRANCH   5   7
HETATM    7  C   UNL     1     -43.047  58.979 -52.971  1.00  0.00     0.157 C 
HETATM    8  N   UNL     1     -41.836  59.522 -52.383  1.00  0.00    -0.354 N 
HETATM    9  C   UNL     1     -40.818  58.746 -51.933  1.00  0.00     0.173 C 
HETATM   10  H   UNL     1     -41.857  60.472 -52.033  1.00  0.00     0.163 HD
HETATM   11  S   UNL     1     -39.635  59.360 -50.945  1.00  0.00    -0.041 SA
HETATM   12  N   UNL     1     -40.796  57.457 -52.365  1.00  0.00    -0.332 N 
HETATM   13  C   UNL     1     -41.700  56.916 -53.252  1.00  0.00     0.057 C 
HETATM   14  H   UNL     1     -39.985  56.903 -52.101  1.00  0.00     0.168 HD
HETATM   15  C   UNL     1     -42.793  57.626 -53.590  1.00  0.00     0.047 C 
BRANCH  13  16
HETATM   16  C   UNL     1     -41.378  55.563 -53.730  1.00  0.00    -0.009 A 
HETATM   17  C   UNL     1     -40.418  55.372 -54.731  1.00  0.00     0.014 A 
HETATM   18  C   UNL     1     -40.079  54.084 -55.145  1.00  0.00     0.001 A 
HETATM   19  C   UNL     1     -40.692  52.978 -54.558  1.00  0.00     0.000 A 
HETATM   20  C   UNL     1     -41.647  53.159 -53.559  1.00  0.00     0.001 A 
HETATM   21  C   UNL     1     -41.991  54.447 -53.144  1.00  0.00     0.014 A 
ENDBRANCH  13  16
BRANCH  15  22
HETATM   22  C   UNL     1     -43.761  57.116 -54.603  1.00  0.00     0.193 C 
HETATM   23  O   UNL     1     -44.854  56.671 -54.268  1.00  0.00    -0.287 OA
BRANCH  22  24
HETATM   24  C   UNL     1     -43.321  57.007 -56.019  1.00  0.00     0.015 A 
HETATM   25  C   UNL     1     -43.514  55.783 -56.674  1.00  0.00     0.015 A 
HETATM   26  C   UNL     1     -43.073  55.613 -57.987  1.00  0.00     0.001 A 
HETATM   27  C   UNL     1     -42.450  56.667 -58.652  1.00  0.00     0.000 A 
HETATM   28  C   UNL     1     -42.276  57.895 -58.012  1.00  0.00     0.001 A 
HETATM   29  C   UNL     1     -42.717  58.071 -56.698  1.00  0.00     0.015 A 
ENDBRANCH  22  24
ENDBRANCH  15  22
ENDBRANCH   5   7
BRANCH   1  30
HETATM   30  O   UNL     1     -42.734  62.367 -56.610  1.00  0.00    -0.349 OA
BRANCH  30  31
HETATM   31  C   UNL     1     -42.036  61.573 -57.578  1.00  0.00     0.171 C 
HETATM   32  C   UNL     1     -41.001  62.427 -58.288  1.00  0.00     0.034 C 
ENDBRANCH  30  31
ENDBRANCH   1  30
BRANCH   2  33
HETATM   33  O   UNL     1     -45.498  62.732 -56.469  1.00  0.00    -0.339 OA
BRANCH  33  34
HETATM   34  C   UNL     1     -46.662  62.129 -57.054  1.00  0.00     0.278 C 
BRANCH  34  35
HETATM   35  C   UNL     1     -46.273  61.152 -58.176  1.00  0.00     0.246 C 
HETATM   36  N   UNL     1     -47.074  60.020 -58.183  1.00  0.00    -0.323 N 
HETATM   37  H   UNL     1     -47.899  60.104 -57.601  1.00  0.00     0.169 HD
HETATM   38  O   UNL     1     -45.400  61.447 -58.986  1.00  0.00    -0.271 OA
BRANCH  36  39
HETATM   39  C   UNL     1     -47.052  58.961 -59.113  1.00  0.00     0.068 A 
HETATM   40  C   UNL     1     -47.641  59.003 -60.390  1.00  0.00     0.095 A 
HETATM   41  C   UNL     1     -47.598  57.855 -61.195  1.00  0.00     0.039 A 
HETATM   42  C   UNL     1     -46.943  56.699 -60.760  1.00  0.00     0.003 A 
HETATM   43  C   UNL     1     -46.304  56.683 -59.527  1.00  0.00     0.002 A 
HETATM   44  C   UNL     1     -46.348  57.813 -58.712  1.00  0.00     0.032 A 
BRANCH  40  45
HETATM   45  O   UNL     1     -48.127  60.209 -60.816  1.00  0.00    -0.354 OA
HETATM   46  C   UNL     1     -49.534  60.390 -60.851  1.00  0.00     0.210 C 
ENDBRANCH  40  45
ENDBRANCH  36  39
ENDBRANCH  34  35
ENDBRANCH  33  34
ENDBRANCH   2  33
TORSDOF 11
ENDMDL
MODEL 8
REMARK VINA RESULT:      -7.6      2.262      2.900
REMARK  11 active torsions:
REMARK  status: ('A' for Active; 'I' for Inactive)
REMARK    1  A    between atoms: C_2  and  O_3 
REMARK    2  A    between atoms: O_3  and  C_4 
REMARK    3  A    between atoms: C_5  and  O_6 
REMARK    4  A    between atoms: O_6  and  C_7 
REMARK    5  A    between atoms: C_7  and  C_8 
REMARK       I    between atoms: C_8  and  N_9 
REMARK    6  A    between atoms: N_9  and  C_10 
REMARK    7  A    between atoms: C_11  and  O_12 
REMARK    8  A    between atoms: C_21  and  C_22 
REMARK    9  A    between atoms: C_27  and  C_28 
REMARK   10  A    between atoms: C_34  and  C_35 
REMARK   11  A    between atoms: C_35  and  C_36 
ROOT
HETATM    1  C   UNL     1     -43.066  58.971 -54.129  1.00  0.00     0.102 A 
HETATM    2  C   UNL     1     -42.438  57.721 -54.122  1.00  0.00     0.102 A 
HETATM    3  C   UNL     1     -42.095  57.097 -55.322  1.00  0.00     0.040 A 
HETATM    4  C   UNL     1     -42.336  57.734 -56.536  1.00  0.00     0.012 A 
HETATM    5  C   UNL     1     -42.937  59.000 -56.566  1.00  0.00    -0.028 A 
HETATM    6  C   UNL     1     -43.267  59.625 -55.348  1.00  0.00     0.049 A 
ENDROOT
BRANCH   5   7
HETATM    7  C   UNL     1     -43.233  59.661 -57.900  1.00  0.00     0.157 C 
HETATM    8  N   UNL     1     -42.833  61.054 -57.835  1.00  0.00    -0.354 N 
HETATM    9  C   UNL     1     -43.374  62.018 -58.621  1.00  0.00     0.173 C 
HETATM   10  H   UNL     1     -41.940  61.277 -57.410  1.00  0.00     0.163 HD
HETATM   11  S   UNL     1     -42.652  63.503 -58.789  1.00  0.00    -0.041 SA
HETATM   12  N   UNL     1     -44.554  61.721 -59.228  1.00  0.00    -0.332 N 
HETATM   13  C   UNL     1     -45.242  60.541 -59.058  1.00  0.00     0.057 C 
HETATM   14  H   UNL     1     -45.003  62.474 -59.742  1.00  0.00     0.168 HD
HETATM   15  C   UNL     1     -44.650  59.524 -58.403  1.00  0.00     0.047 C 
BRANCH  13  16
HETATM   16  C   UNL     1     -46.586  60.505 -59.655  1.00  0.00    -0.009 A 
HETATM   17  C   UNL     1     -46.753  60.192 -61.009  1.00  0.00     0.014 A 
HETATM   18  C   UNL     1     -48.032  60.110 -61.560  1.00  0.00     0.001 A 
HETATM   19  C   UNL     1     -49.152  60.332 -60.761  1.00  0.00     0.000 A 
HETATM   20  C   UNL     1     -48.994  60.642 -59.411  1.00  0.00     0.001 A 
HETATM   21  C   UNL     1     -47.716  60.728 -58.857  1.00  0.00     0.014 A 
ENDBRANCH  13  16
BRANCH  15  22
HETATM   22  C   UNL     1     -45.381  58.253 -58.128  1.00  0.00     0.193 C 
HETATM   23  O   UNL     1     -45.998  58.092 -57.079  1.00  0.00    -0.287 OA
BRANCH  22  24
HETATM   24  C   UNL     1     -45.222  57.118 -59.074  1.00  0.00     0.015 A 
HETATM   25  C   UNL     1     -46.301  56.805 -59.912  1.00  0.00     0.015 A 
HETATM   26  C   UNL     1     -46.219  55.718 -60.783  1.00  0.00     0.001 A 
HETATM   27  C   UNL     1     -45.059  54.949 -60.828  1.00  0.00     0.000 A 
HETATM   28  C   UNL     1     -43.973  55.270 -60.011  1.00  0.00     0.001 A 
HETATM   29  C   UNL     1     -44.048  56.358 -59.139  1.00  0.00     0.015 A 
ENDBRANCH  22  24
ENDBRANCH  15  22
ENDBRANCH   5   7
BRANCH   1  30
HETATM   30  O   UNL     1     -43.424  59.516 -52.925  1.00  0.00    -0.349 OA
BRANCH  30  31
HETATM   31  C   UNL     1     -42.480  60.432 -52.357  1.00  0.00     0.171 C 
HETATM   32  C   UNL     1     -42.093  59.970 -50.964  1.00  0.00     0.034 C 
ENDBRANCH  30  31
ENDBRANCH   1  30
BRANCH   2  33
HETATM   33  O   UNL     1     -42.225  56.996 -52.980  1.00  0.00    -0.339 OA
BRANCH  33  34
HETATM   34  C   UNL     1     -43.333  56.150 -52.639  1.00  0.00     0.278 C 
BRANCH  34  35
HETATM   35  C   UNL     1     -42.879  54.691 -52.459  1.00  0.00     0.246 C 
HETATM   36  N   UNL     1     -41.673  54.436 -53.094  1.00  0.00    -0.323 N 
HETATM   37  H   UNL     1     -41.188  55.274 -53.391  1.00  0.00     0.169 HD
HETATM   38  O   UNL     1     -43.520  53.922 -51.749  1.00  0.00    -0.271 OA
BRANCH  36  39
HETATM   39  C   UNL     1     -40.930  53.239 -53.071  1.00  0.00     0.068 A 
HETATM   40  C   UNL     1     -40.106  52.827 -52.008  1.00  0.00     0.095 A 
HETATM   41  C   UNL     1     -39.371  51.639 -52.140  1.00  0.00     0.039 A 
HETATM   42  C   UNL     1     -39.487  50.849 -53.288  1.00  0.00     0.003 A 
HETATM   43  C   UNL     1     -40.353  51.224 -54.307  1.00  0.00     0.002 A 
HETATM   44  C   UNL     1     -41.080  52.408 -54.193  1.00  0.00     0.032 A 
BRANCH  40  45
HETATM   45  O   UNL     1     -40.159  53.561 -50.854  1.00  0.00    -0.354 OA
HETATM   46  C   UNL     1     -40.404  52.876 -49.635  1.00  0.00     0.210 C 
ENDBRANCH  40  45
ENDBRANCH  36  39
ENDBRANCH  34  35
ENDBRANCH  33  34
ENDBRANCH   2  33
TORSDOF 11
ENDMDL
MODEL 9
REMARK VINA RESULT:      -7.4      1.923      2.709
REMARK  11 active torsions:
REMARK  status: ('A' for Active; 'I' for Inactive)
REMARK    1  A    between atoms: C_2  and  O_3 
REMARK    2  A    between atoms: O_3  and  C_4 
REMARK    3  A    between atoms: C_5  and  O_6 
REMARK    4  A    between atoms: O_6  and  C_7 
REMARK    5  A    between atoms: C_7  and  C_8 
REMARK       I    between atoms: C_8  and  N_9 
REMARK    6  A    between atoms: N_9  and  C_10 
REMARK    7  A    between atoms: C_11  and  O_12 
REMARK    8  A    between atoms: C_21  and  C_22 
REMARK    9  A    between atoms: C_27  and  C_28 
REMARK   10  A    between atoms: C_34  and  C_35 
REMARK   11  A    between atoms: C_35  and  C_36 
ROOT
HETATM    1  C   UNL     1     -42.632  59.232 -52.133  1.00  0.00     0.102 A 
HETATM    2  C   UNL     1     -41.696  58.195 -52.209  1.00  0.00     0.102 A 
HETATM    3  C   UNL     1     -41.080  57.887 -53.423  1.00  0.00     0.040 A 
HETATM    4  C   UNL     1     -41.362  58.638 -54.561  1.00  0.00     0.012 A 
HETATM    5  C   UNL     1     -42.274  59.701 -54.501  1.00  0.00    -0.028 A 
HETATM    6  C   UNL     1     -42.879  60.010 -53.268  1.00  0.00     0.049 A 
ENDROOT
BRANCH   5   7
HETATM    7  C   UNL     1     -42.603  60.481 -55.762  1.00  0.00     0.157 C 
HETATM    8  N   UNL     1     -42.814  61.873 -55.412  1.00  0.00    -0.354 N 
HETATM    9  C   UNL     1     -43.571  62.718 -56.157  1.00  0.00     0.173 C 
HETATM   10  H   UNL     1     -42.165  62.310 -54.768  1.00  0.00     0.163 HD
HETATM   11  S   UNL     1     -43.493  64.362 -55.946  1.00  0.00    -0.041 SA
HETATM   12  N   UNL     1     -44.422  62.149 -57.052  1.00  0.00    -0.332 N 
HETATM   13  C   UNL     1     -44.592  60.791 -57.210  1.00  0.00     0.057 C 
HETATM   14  H   UNL     1     -45.051  62.777 -57.543  1.00  0.00     0.168 HD
HETATM   15  C   UNL     1     -43.748  59.947 -56.588  1.00  0.00     0.047 C 
BRANCH  13  16
HETATM   16  C   UNL     1     -45.698  60.396 -58.096  1.00  0.00    -0.009 A 
HETATM   17  C   UNL     1     -46.992  60.234 -57.587  1.00  0.00     0.014 A 
HETATM   18  C   UNL     1     -48.048  59.909 -58.439  1.00  0.00     0.001 A 
HETATM   19  C   UNL     1     -47.819  59.751 -59.804  1.00  0.00     0.000 A 
HETATM   20  C   UNL     1     -46.534  59.914 -60.320  1.00  0.00     0.001 A 
HETATM   21  C   UNL     1     -45.475  60.236 -59.469  1.00  0.00     0.014 A 
ENDBRANCH  13  16
BRANCH  15  22
HETATM   22  C   UNL     1     -43.937  58.469 -56.667  1.00  0.00     0.193 C 
HETATM   23  O   UNL     1     -44.491  57.852 -55.763  1.00  0.00    -0.287 OA
BRANCH  22  24
HETATM   24  C   UNL     1     -43.302  57.727 -57.789  1.00  0.00     0.015 A 
HETATM   25  C   UNL     1     -42.331  58.393 -58.549  1.00  0.00     0.015 A 
HETATM   26  C   UNL     1     -41.741  57.758 -59.642  1.00  0.00     0.001 A 
HETATM   27  C   UNL     1     -42.111  56.455 -59.973  1.00  0.00     0.000 A 
HETATM   28  C   UNL     1     -43.062  55.781 -59.205  1.00  0.00     0.001 A 
HETATM   29  C   UNL     1     -43.654  56.411 -58.107  1.00  0.00     0.015 A 
ENDBRANCH  22  24
ENDBRANCH  15  22
ENDBRANCH   5   7
BRANCH   1  30
HETATM   30  O   UNL     1     -43.241  59.461 -50.928  1.00  0.00    -0.349 OA
BRANCH  30  31
HETATM   31  C   UNL     1     -42.771  60.606 -50.207  1.00  0.00     0.171 C 
HETATM   32  C   UNL     1     -43.907  61.595 -50.021  1.00  0.00     0.034 C 
ENDBRANCH  30  31
ENDBRANCH   1  30
BRANCH   2  33
HETATM   33  O   UNL     1     -41.411  57.365 -51.158  1.00  0.00    -0.339 OA
BRANCH  33  34
HETATM   34  C   UNL     1     -42.490  56.474 -50.840  1.00  0.00     0.278 C 
BRANCH  34  35
HETATM   35  C   UNL     1     -42.378  55.164 -51.637  1.00  0.00     0.246 C 
HETATM   36  N   UNL     1     -41.059  54.797 -51.859  1.00  0.00    -0.323 N 
HETATM   37  H   UNL     1     -40.395  55.318 -51.299  1.00  0.00     0.169 HD
HETATM   38  O   UNL     1     -43.385  54.527 -51.935  1.00  0.00    -0.271 OA
BRANCH  36  39
HETATM   39  C   UNL     1     -40.591  53.623 -52.481  1.00  0.00     0.068 A 
HETATM   40  C   UNL     1     -40.686  53.354 -53.859  1.00  0.00     0.095 A 
HETATM   41  C   UNL     1     -40.234  52.116 -54.341  1.00  0.00     0.039 A 
HETATM   42  C   UNL     1     -39.655  51.179 -53.479  1.00  0.00     0.003 A 
HETATM   43  C   UNL     1     -39.501  51.476 -52.131  1.00  0.00     0.002 A 
HETATM   44  C   UNL     1     -39.956  52.697 -51.637  1.00  0.00     0.032 A 
BRANCH  40  45
HETATM   45  O   UNL     1     -41.115  54.371 -54.667  1.00  0.00    -0.354 OA
HETATM   46  C   UNL     1     -42.383  54.239 -55.294  1.00  0.00     0.210 C 
ENDBRANCH  40  45
ENDBRANCH  36  39
ENDBRANCH  34  35
ENDBRANCH  33  34
ENDBRANCH   2  33
TORSDOF 11
ENDMDL
MODEL 10
REMARK VINA RESULT:      -7.4      3.095      8.055
REMARK  11 active torsions:
REMARK  status: ('A' for Active; 'I' for Inactive)
REMARK    1  A    between atoms: C_2  and  O_3 
REMARK    2  A    between atoms: O_3  and  C_4 
REMARK    3  A    between atoms: C_5  and  O_6 
REMARK    4  A    between atoms: O_6  and  C_7 
REMARK    5  A    between atoms: C_7  and  C_8 
REMARK       I    between atoms: C_8  and  N_9 
REMARK    6  A    between atoms: N_9  and  C_10 
REMARK    7  A    between atoms: C_11  and  O_12 
REMARK    8  A    between atoms: C_21  and  C_22 
REMARK    9  A    between atoms: C_27  and  C_28 
REMARK   10  A    between atoms: C_34  and  C_35 
REMARK   11  A    between atoms: C_35  and  C_36 
ROOT
HETATM    1  C   UNL     1     -43.408  60.844 -56.611  1.00  0.00     0.102 A 
HETATM    2  C   UNL     1     -44.633  61.219 -57.171  1.00  0.00     0.102 A 
HETATM    3  C   UNL     1     -45.813  61.095 -56.438  1.00  0.00     0.040 A 
HETATM    4  C   UNL     1     -45.775  60.635 -55.124  1.00  0.00     0.012 A 
HETATM    5  C   UNL     1     -44.554  60.281 -54.531  1.00  0.00    -0.028 A 
HETATM    6  C   UNL     1     -43.369  60.424 -55.278  1.00  0.00     0.049 A 
ENDROOT
BRANCH   5   7
HETATM    7  C   UNL     1     -44.536  59.740 -53.113  1.00  0.00     0.157 C 
HETATM    8  N   UNL     1     -43.722  60.611 -52.287  1.00  0.00    -0.354 N 
HETATM    9  C   UNL     1     -43.106  60.194 -51.152  1.00  0.00     0.173 C 
HETATM   10  H   UNL     1     -43.838  61.613 -52.385  1.00  0.00     0.163 HD
HETATM   11  S   UNL     1     -42.502  61.277 -50.049  1.00  0.00    -0.041 SA
HETATM   12  N   UNL     1     -42.972  58.851 -50.987  1.00  0.00    -0.332 N 
HETATM   13  C   UNL     1     -43.375  57.910 -51.908  1.00  0.00     0.057 C 
HETATM   14  H   UNL     1     -42.432  58.544 -50.184  1.00  0.00     0.168 HD
HETATM   15  C   UNL     1     -44.116  58.298 -52.963  1.00  0.00     0.047 C 
BRANCH  13  16
HETATM   16  C   UNL     1     -42.964  56.528 -51.614  1.00  0.00    -0.009 A 
HETATM   17  C   UNL     1     -43.902  55.586 -51.175  1.00  0.00     0.014 A 
HETATM   18  C   UNL     1     -43.519  54.264 -50.947  1.00  0.00     0.001 A 
HETATM   19  C   UNL     1     -42.199  53.874 -51.161  1.00  0.00     0.000 A 
HETATM   20  C   UNL     1     -41.259  54.805 -51.601  1.00  0.00     0.001 A 
HETATM   21  C   UNL     1     -41.639  56.129 -51.828  1.00  0.00     0.014 A 
ENDBRANCH  13  16
BRANCH  15  22
HETATM   22  C   UNL     1     -44.512  57.329 -54.026  1.00  0.00     0.193 C 
HETATM   23  O   UNL     1     -45.690  57.169 -54.331  1.00  0.00    -0.287 OA
BRANCH  22  24
HETATM   24  C   UNL     1     -43.471  56.439 -54.604  1.00  0.00     0.015 A 
HETATM   25  C   UNL     1     -43.724  55.061 -54.626  1.00  0.00     0.015 A 
HETATM   26  C   UNL     1     -42.758  54.179 -55.113  1.00  0.00     0.001 A 
HETATM   27  C   UNL     1     -41.544  54.670 -55.588  1.00  0.00     0.000 A 
HETATM   28  C   UNL     1     -41.296  56.044 -55.589  1.00  0.00     0.001 A 
HETATM   29  C   UNL     1     -42.260  56.932 -55.105  1.00  0.00     0.015 A 
ENDBRANCH  22  24
ENDBRANCH  15  22
ENDBRANCH   5   7
BRANCH   1  30
HETATM   30  O   UNL     1     -42.287  60.942 -57.392  1.00  0.00    -0.349 OA
BRANCH  30  31
HETATM   31  C   UNL     1     -41.826  59.713 -57.968  1.00  0.00     0.171 C 
HETATM   32  C   UNL     1     -41.770  59.845 -59.479  1.00  0.00     0.034 C 
ENDBRANCH  30  31
ENDBRANCH   1  30
BRANCH   2  33
HETATM   33  O   UNL     1     -44.770  61.616 -58.475  1.00  0.00    -0.339 OA
BRANCH  33  34
HETATM   34  C   UNL     1     -45.830  60.932 -59.160  1.00  0.00     0.278 C 
BRANCH  34  35
HETATM   35  C   UNL     1     -45.314  59.652 -59.837  1.00  0.00     0.246 C 
HETATM   36  N   UNL     1     -45.414  58.545 -59.008  1.00  0.00    -0.323 N 
HETATM   37  H   UNL     1     -45.986  58.704 -58.188  1.00  0.00     0.169 HD
HETATM   38  O   UNL     1     -44.950  59.669 -61.010  1.00  0.00    -0.271 OA
BRANCH  36  39
HETATM   39  C   UNL     1     -45.110  57.206 -59.327  1.00  0.00     0.068 A 
HETATM   40  C   UNL     1     -46.012  56.295 -59.907  1.00  0.00     0.095 A 
HETATM   41  C   UNL     1     -45.599  54.971 -60.117  1.00  0.00     0.039 A 
HETATM   42  C   UNL     1     -44.298  54.568 -59.799  1.00  0.00     0.003 A 
HETATM   43  C   UNL     1     -43.389  55.487 -59.290  1.00  0.00     0.002 A 
HETATM   44  C   UNL     1     -43.790  56.802 -59.066  1.00  0.00     0.032 A 
BRANCH  40  45
HETATM   45  O   UNL     1     -47.212  56.792 -60.338  1.00  0.00    -0.354 OA
HETATM   46  C   UNL     1     -47.608  56.522 -61.674  1.00  0.00     0.210 C 
ENDBRANCH  40  45
ENDBRANCH  36  39
ENDBRANCH  34  35
ENDBRANCH  33  34
ENDBRANCH   2  33
TORSDOF 11
ENDMDL
