MODEL 1
REMARK VINA RESULT:      -8.5      0.000      0.000
REMARK  4 active torsions:
REMARK  status: ('A' for Active; 'I' for Inactive)
REMARK    1  A    between atoms: N_4  and  C_5 
REMARK    2  A    between atoms: C_13  and  C_14 
REMARK    3  A    between atoms: N_15  and  C_17 
REMARK    4  A    between atoms: C_17  and  C_18 
ROOT
HETATM    1  C   UNL     1     -40.691  59.395 -51.592  1.00  0.00     0.095 C 
HETATM    2  C   UNL     1     -41.398  58.115 -51.810  1.00  0.00     0.144 A 
HETATM    3  N   UNL     1     -42.498  58.000 -52.559  1.00  0.00    -0.156 NA
HETATM    4  N   UNL     1     -42.754  56.683 -52.496  1.00  0.00    -0.247 N 
HETATM    5  C   UNL     1     -41.870  56.051 -51.649  1.00  0.00     0.156 A 
HETATM    6  N   UNL     1     -41.006  56.950 -51.219  1.00  0.00    -0.215 NA
ENDROOT
BRANCH   5   7
HETATM    7  C   UNL     1     -41.930  54.615 -51.199  1.00  0.00     0.259 C 
HETATM    8  N   UNL     1     -40.651  53.788 -51.344  1.00  0.00    -0.056 N 
HETATM    9  H   UNL     1     -40.878  52.874 -50.933  1.00  0.00     0.281 HD
HETATM   10  C   UNL     1     -39.504  54.287 -50.496  1.00  0.00     0.236 C 
HETATM   11  C   UNL     1     -39.916  54.246 -49.030  1.00  0.00     0.028 C 
HETATM   12  C   UNL     1     -41.219  54.989 -48.762  1.00  0.00     0.004 C 
HETATM   13  C   UNL     1     -42.336  54.544 -49.712  1.00  0.00     0.041 C 
BRANCH   8  14
HETATM   14  C   UNL     1     -40.261  53.418 -52.759  1.00  0.00     0.274 C 
BRANCH  14  15
HETATM   15  C   UNL     1     -39.996  51.971 -53.060  1.00  0.00    -0.033 A 
HETATM   16  C   UNL     1     -39.598  51.091 -52.041  1.00  0.00     0.009 A 
HETATM   17  C   UNL     1     -39.370  49.742 -52.314  1.00  0.00     0.001 A 
HETATM   18  C   UNL     1     -39.546  49.252 -53.605  1.00  0.00     0.000 A 
HETATM   19  C   UNL     1     -39.960  50.107 -54.623  1.00  0.00     0.001 A 
HETATM   20  C   UNL     1     -40.190  51.458 -54.353  1.00  0.00     0.009 A 
ENDBRANCH  14  15
ENDBRANCH   8  14
ENDBRANCH   5   7
BRANCH   4  21
HETATM   21  C   UNL     1     -43.882  56.162 -53.261  1.00  0.00     0.115 C 
HETATM   22  C   UNL     1     -43.545  54.870 -54.032  1.00  0.00     0.055 C 
HETATM   23  C   UNL     1     -42.777  55.094 -55.333  1.00  0.00     0.236 C 
HETATM   24  N   UNL     1     -43.493  56.117 -56.180  1.00  0.00    -0.075 N 
HETATM   25  H   UNL     1     -44.423  55.748 -56.422  1.00  0.00     0.279 HD
HETATM   26  C   UNL     1     -42.788  56.309 -57.506  1.00  0.00     0.269 C 
HETATM   27  C   UNL     1     -43.661  57.432 -55.467  1.00  0.00     0.236 C 
HETATM   28  C   UNL     1     -44.478  57.222 -54.196  1.00  0.00     0.055 C 
ENDBRANCH   4  21
TORSDOF 4
ENDMDL
MODEL 2
REMARK VINA RESULT:      -7.8      1.596      4.434
REMARK  4 active torsions:
REMARK  status: ('A' for Active; 'I' for Inactive)
REMARK    1  A    between atoms: N_4  and  C_5 
REMARK    2  A    between atoms: C_13  and  C_14 
REMARK    3  A    between atoms: N_15  and  C_17 
REMARK    4  A    between atoms: C_17  and  C_18 
ROOT
HETATM    1  C   UNL     1     -41.726  54.715 -49.348  1.00  0.00     0.095 C 
HETATM    2  C   UNL     1     -41.455  55.476 -50.586  1.00  0.00     0.144 A 
HETATM    3  N   UNL     1     -41.198  56.787 -50.605  1.00  0.00    -0.156 NA
HETATM    4  N   UNL     1     -40.986  57.021 -51.911  1.00  0.00    -0.247 N 
HETATM    5  C   UNL     1     -41.206  55.883 -52.656  1.00  0.00     0.156 A 
HETATM    6  N   UNL     1     -41.495  54.902 -51.824  1.00  0.00    -0.215 NA
ENDROOT
BRANCH   5   7
HETATM    7  C   UNL     1     -41.223  55.785 -54.159  1.00  0.00     0.259 C 
HETATM    8  N   UNL     1     -41.185  54.381 -54.764  1.00  0.00    -0.056 N 
HETATM    9  H   UNL     1     -41.265  54.526 -55.777  1.00  0.00     0.281 HD
HETATM   10  C   UNL     1     -42.395  53.539 -54.425  1.00  0.00     0.236 C 
HETATM   11  C   UNL     1     -43.645  54.234 -54.951  1.00  0.00     0.028 C 
HETATM   12  C   UNL     1     -43.768  55.673 -54.466  1.00  0.00     0.004 C 
HETATM   13  C   UNL     1     -42.487  56.473 -54.718  1.00  0.00     0.041 C 
BRANCH   8  14
HETATM   14  C   UNL     1     -39.866  53.647 -54.646  1.00  0.00     0.274 C 
BRANCH  14  15
HETATM   15  C   UNL     1     -39.850  52.349 -53.889  1.00  0.00    -0.033 A 
HETATM   16  C   UNL     1     -40.014  51.128 -54.562  1.00  0.00     0.009 A 
HETATM   17  C   UNL     1     -39.979  49.921 -53.864  1.00  0.00     0.001 A 
HETATM   18  C   UNL     1     -39.770  49.916 -52.489  1.00  0.00     0.000 A 
HETATM   19  C   UNL     1     -39.585  51.117 -51.809  1.00  0.00     0.001 A 
HETATM   20  C   UNL     1     -39.618  52.328 -52.504  1.00  0.00     0.009 A 
ENDBRANCH  14  15
ENDBRANCH   8  14
ENDBRANCH   5   7
BRANCH   4  21
HETATM   21  C   UNL     1     -40.612  58.371 -52.317  1.00  0.00     0.115 C 
HETATM   22  C   UNL     1     -40.026  59.210 -51.162  1.00  0.00     0.055 C 
HETATM   23  C   UNL     1     -41.072  59.795 -50.215  1.00  0.00     0.236 C 
HETATM   24  N   UNL     1     -42.124  60.532 -51.006  1.00  0.00    -0.075 N 
HETATM   25  H   UNL     1     -41.673  61.314 -51.500  1.00  0.00     0.279 HD
HETATM   26  C   UNL     1     -43.138  61.178 -50.086  1.00  0.00     0.269 C 
HETATM   27  C   UNL     1     -42.805  59.646 -52.015  1.00  0.00     0.236 C 
HETATM   28  C   UNL     1     -41.772  59.107 -52.999  1.00  0.00     0.055 C 
ENDBRANCH   4  21
TORSDOF 4
ENDMDL
MODEL 3
REMARK VINA RESULT:      -7.7      1.883      3.033
REMARK  4 active torsions:
REMARK  status: ('A' for Active; 'I' for Inactive)
REMARK    1  A    between atoms: N_4  and  C_5 
REMARK    2  A    between atoms: C_13  and  C_14 
REMARK    3  A    between atoms: N_15  and  C_17 
REMARK    4  A    between atoms: C_17  and  C_18 
ROOT
HETATM    1  C   UNL     1     -39.645  59.392 -50.900  1.00  0.00     0.095 C 
HETATM    2  C   UNL     1     -40.478  58.689 -51.898  1.00  0.00     0.144 A 
HETATM    3  N   UNL     1     -40.928  59.263 -53.018  1.00  0.00    -0.156 NA
HETATM    4  N   UNL     1     -41.592  58.256 -53.611  1.00  0.00    -0.247 N 
HETATM    5  C   UNL     1     -41.607  57.137 -52.808  1.00  0.00     0.156 A 
HETATM    6  N   UNL     1     -40.899  57.402 -51.727  1.00  0.00    -0.215 NA
ENDROOT
BRANCH   5   7
HETATM    7  C   UNL     1     -42.378  55.867 -53.054  1.00  0.00     0.259 C 
HETATM    8  N   UNL     1     -41.770  54.570 -52.521  1.00  0.00    -0.056 N 
HETATM    9  H   UNL     1     -42.464  53.844 -52.732  1.00  0.00     0.281 HD
HETATM   10  C   UNL     1     -41.653  54.526 -51.014  1.00  0.00     0.236 C 
HETATM   11  C   UNL     1     -43.043  54.667 -50.405  1.00  0.00     0.028 C 
HETATM   12  C   UNL     1     -43.785  55.899 -50.908  1.00  0.00     0.004 C 
HETATM   13  C   UNL     1     -43.789  55.979 -52.437  1.00  0.00     0.041 C 
BRANCH   8  14
HETATM   14  C   UNL     1     -40.543  54.067 -53.252  1.00  0.00     0.274 C 
BRANCH  14  15
HETATM   15  C   UNL     1     -40.258  52.593 -53.217  1.00  0.00    -0.033 A 
HETATM   16  C   UNL     1     -40.436  51.804 -54.364  1.00  0.00     0.009 A 
HETATM   17  C   UNL     1     -40.152  50.438 -54.339  1.00  0.00     0.001 A 
HETATM   18  C   UNL     1     -39.680  49.845 -53.173  1.00  0.00     0.000 A 
HETATM   19  C   UNL     1     -39.479  50.617 -52.032  1.00  0.00     0.001 A 
HETATM   20  C   UNL     1     -39.760  51.985 -52.053  1.00  0.00     0.009 A 
ENDBRANCH  14  15
ENDBRANCH   8  14
ENDBRANCH   5   7
BRANCH   4  21
HETATM   21  C   UNL     1     -42.186  58.501 -54.921  1.00  0.00     0.115 C 
HETATM   22  C   UNL     1     -41.950  59.936 -55.434  1.00  0.00     0.055 C 
HETATM   23  C   UNL     1     -42.882  60.983 -54.827  1.00  0.00     0.236 C 
HETATM   24  N   UNL     1     -44.316  60.534 -54.965  1.00  0.00    -0.075 N 
HETATM   25  H   UNL     1     -44.539  60.456 -55.966  1.00  0.00     0.279 HD
HETATM   26  C   UNL     1     -45.264  61.585 -54.430  1.00  0.00     0.269 C 
HETATM   27  C   UNL     1     -44.563  59.203 -54.305  1.00  0.00     0.236 C 
HETATM   28  C   UNL     1     -43.677  58.143 -54.950  1.00  0.00     0.055 C 
ENDBRANCH   4  21
TORSDOF 4
ENDMDL
MODEL 4
REMARK VINA RESULT:      -7.3      2.311      3.867
REMARK  4 active torsions:
REMARK  status: ('A' for Active; 'I' for Inactive)
REMARK    1  A    between atoms: N_4  and  C_5 
REMARK    2  A    between atoms: C_13  and  C_14 
REMARK    3  A    between atoms: N_15  and  C_17 
REMARK    4  A    between atoms: C_17  and  C_18 
ROOT
HETATM    1  C   UNL     1     -43.255  62.413 -55.066  1.00  0.00     0.095 C 
HETATM    2  C   UNL     1     -43.410  60.993 -54.687  1.00  0.00     0.144 A 
HETATM    3  N   UNL     1     -44.331  60.185 -55.219  1.00  0.00    -0.156 NA
HETATM    4  N   UNL     1     -44.074  59.015 -54.612  1.00  0.00    -0.247 N 
HETATM    5  C   UNL     1     -43.077  59.158 -53.671  1.00  0.00     0.156 A 
HETATM    6  N   UNL     1     -42.648  60.404 -53.720  1.00  0.00    -0.215 NA
ENDROOT
BRANCH   5   7
HETATM    7  C   UNL     1     -42.621  58.117 -52.683  1.00  0.00     0.259 C 
HETATM    8  N   UNL     1     -41.145  57.719 -52.725  1.00  0.00    -0.056 N 
HETATM    9  H   UNL     1     -41.026  57.058 -51.948  1.00  0.00     0.281 HD
HETATM   10  C   UNL     1     -40.200  58.848 -52.382  1.00  0.00     0.236 C 
HETATM   11  C   UNL     1     -40.504  59.339 -50.973  1.00  0.00     0.028 C 
HETATM   12  C   UNL     1     -41.969  59.713 -50.782  1.00  0.00     0.004 C 
HETATM   13  C   UNL     1     -42.909  58.595 -51.244  1.00  0.00     0.041 C 
BRANCH   8  14
HETATM   14  C   UNL     1     -40.718  56.894 -53.920  1.00  0.00     0.274 C 
BRANCH  14  15
HETATM   15  C   UNL     1     -40.706  55.399 -53.775  1.00  0.00    -0.033 A 
HETATM   16  C   UNL     1     -40.292  54.581 -54.838  1.00  0.00     0.009 A 
HETATM   17  C   UNL     1     -40.261  53.194 -54.698  1.00  0.00     0.001 A 
HETATM   18  C   UNL     1     -40.633  52.605 -53.494  1.00  0.00     0.000 A 
HETATM   19  C   UNL     1     -41.027  53.403 -52.422  1.00  0.00     0.001 A 
HETATM   20  C   UNL     1     -41.058  54.792 -52.558  1.00  0.00     0.009 A 
ENDBRANCH  14  15
ENDBRANCH   8  14
ENDBRANCH   5   7
BRANCH   4  21
HETATM   21  C   UNL     1     -44.867  57.851 -54.995  1.00  0.00     0.115 C 
HETATM   22  C   UNL     1     -44.017  56.581 -55.199  1.00  0.00     0.055 C 
HETATM   23  C   UNL     1     -43.292  56.518 -56.543  1.00  0.00     0.236 C 
HETATM   24  N   UNL     1     -44.271  56.760 -57.665  1.00  0.00    -0.075 N 
HETATM   25  H   UNL     1     -44.976  56.010 -57.651  1.00  0.00     0.279 HD
HETATM   26  C   UNL     1     -43.590  56.637 -59.011  1.00  0.00     0.269 C 
HETATM   27  C   UNL     1     -44.969  58.088 -57.536  1.00  0.00     0.236 C 
HETATM   28  C   UNL     1     -45.742  58.132 -56.222  1.00  0.00     0.055 C 
ENDBRANCH   4  21
TORSDOF 4
ENDMDL
MODEL 5
REMARK VINA RESULT:      -7.2      2.560      6.120
REMARK  4 active torsions:
REMARK  status: ('A' for Active; 'I' for Inactive)
REMARK    1  A    between atoms: N_4  and  C_5 
REMARK    2  A    between atoms: C_13  and  C_14 
REMARK    3  A    between atoms: N_15  and  C_17 
REMARK    4  A    between atoms: C_17  and  C_18 
ROOT
HETATM    1  C   UNL     1     -43.603  55.383 -58.761  1.00  0.00     0.095 C 
HETATM    2  C   UNL     1     -43.216  56.008 -57.479  1.00  0.00     0.144 A 
HETATM    3  N   UNL     1     -43.601  57.234 -57.111  1.00  0.00    -0.156 NA
HETATM    4  N   UNL     1     -43.052  57.355 -55.891  1.00  0.00    -0.247 N 
HETATM    5  C   UNL     1     -42.282  56.253 -55.587  1.00  0.00     0.156 A 
HETATM    6  N   UNL     1     -42.388  55.396 -56.584  1.00  0.00    -0.215 NA
ENDROOT
BRANCH   5   7
HETATM    7  C   UNL     1     -41.388  56.088 -54.387  1.00  0.00     0.259 C 
HETATM    8  N   UNL     1     -42.025  55.518 -53.119  1.00  0.00    -0.056 N 
HETATM    9  H   UNL     1     -41.251  55.428 -52.450  1.00  0.00     0.281 HD
HETATM   10  C   UNL     1     -42.530  54.101 -53.276  1.00  0.00     0.236 C 
HETATM   11  C   UNL     1     -41.362  53.197 -53.651  1.00  0.00     0.028 C 
HETATM   12  C   UNL     1     -40.600  53.695 -54.873  1.00  0.00     0.004 C 
HETATM   13  C   UNL     1     -40.199  55.167 -54.737  1.00  0.00     0.041 C 
BRANCH   8  14
HETATM   14  C   UNL     1     -42.980  56.438 -52.389  1.00  0.00     0.274 C 
BRANCH  14  15
HETATM   15  C   UNL     1     -42.401  57.620 -51.666  1.00  0.00    -0.033 A 
HETATM   16  C   UNL     1     -41.097  57.572 -51.148  1.00  0.00     0.009 A 
HETATM   17  C   UNL     1     -40.550  58.677 -50.494  1.00  0.00     0.001 A 
HETATM   18  C   UNL     1     -41.294  59.845 -50.356  1.00  0.00     0.000 A 
HETATM   19  C   UNL     1     -42.581  59.916 -50.881  1.00  0.00     0.001 A 
HETATM   20  C   UNL     1     -43.131  58.813 -51.538  1.00  0.00     0.009 A 
ENDBRANCH  14  15
ENDBRANCH   8  14
ENDBRANCH   5   7
BRANCH   4  21
HETATM   21  C   UNL     1     -43.313  58.576 -55.136  1.00  0.00     0.115 C 
HETATM   22  C   UNL     1     -44.630  59.268 -55.542  1.00  0.00     0.055 C 
HETATM   23  C   UNL     1     -44.538  60.093 -56.825  1.00  0.00     0.236 C 
HETATM   24  N   UNL     1     -43.371  61.046 -56.739  1.00  0.00    -0.075 N 
HETATM   25  H   UNL     1     -43.537  61.695 -55.958  1.00  0.00     0.279 HD
HETATM   26  C   UNL     1     -43.298  61.922 -57.972  1.00  0.00     0.269 C 
HETATM   27  C   UNL     1     -42.066  60.330 -56.511  1.00  0.00     0.236 C 
HETATM   28  C   UNL     1     -42.133  59.553 -55.201  1.00  0.00     0.055 C 
ENDBRANCH   4  21
TORSDOF 4
ENDMDL
MODEL 6
REMARK VINA RESULT:      -7.2      2.008      4.078
REMARK  4 active torsions:
REMARK  status: ('A' for Active; 'I' for Inactive)
REMARK    1  A    between atoms: N_4  and  C_5 
REMARK    2  A    between atoms: C_13  and  C_14 
REMARK    3  A    between atoms: N_15  and  C_17 
REMARK    4  A    between atoms: C_17  and  C_18 
ROOT
HETATM    1  C   UNL     1     -44.898  56.363 -50.575  1.00  0.00     0.095 C 
HETATM    2  C   UNL     1     -43.704  56.651 -51.397  1.00  0.00     0.144 A 
HETATM    3  N   UNL     1     -43.130  57.855 -51.467  1.00  0.00    -0.156 NA
HETATM    4  N   UNL     1     -42.088  57.631 -52.284  1.00  0.00    -0.247 N 
HETATM    5  C   UNL     1     -42.104  56.337 -52.758  1.00  0.00     0.156 A 
HETATM    6  N   UNL     1     -43.119  55.711 -52.195  1.00  0.00    -0.215 NA
ENDROOT
BRANCH   5   7
HETATM    7  C   UNL     1     -41.198  55.757 -53.812  1.00  0.00     0.259 C 
HETATM    8  N   UNL     1     -41.038  54.236 -53.830  1.00  0.00    -0.056 N 
HETATM    9  H   UNL     1     -40.442  54.042 -54.643  1.00  0.00     0.281 HD
HETATM   10  C   UNL     1     -42.319  53.494 -54.137  1.00  0.00     0.236 C 
HETATM   11  C   UNL     1     -42.822  53.920 -55.510  1.00  0.00     0.028 C 
HETATM   12  C   UNL     1     -42.966  55.432 -55.642  1.00  0.00     0.004 C 
HETATM   13  C   UNL     1     -41.692  56.167 -55.216  1.00  0.00     0.041 C 
BRANCH   8  14
HETATM   14  C   UNL     1     -40.235  53.643 -52.691  1.00  0.00     0.274 C 
BRANCH  14  15
HETATM   15  C   UNL     1     -39.959  52.168 -52.720  1.00  0.00    -0.033 A 
HETATM   16  C   UNL     1     -39.803  51.447 -51.525  1.00  0.00     0.009 A 
HETATM   17  C   UNL     1     -39.567  50.073 -51.549  1.00  0.00     0.001 A 
HETATM   18  C   UNL     1     -39.493  49.398 -52.763  1.00  0.00     0.000 A 
HETATM   19  C   UNL     1     -39.666  50.094 -53.957  1.00  0.00     0.001 A 
HETATM   20  C   UNL     1     -39.904  51.470 -53.937  1.00  0.00     0.009 A 
ENDBRANCH  14  15
ENDBRANCH   8  14
ENDBRANCH   5   7
BRANCH   4  21
HETATM   21  C   UNL     1     -41.174  58.736 -52.554  1.00  0.00     0.115 C 
HETATM   22  C   UNL     1     -41.289  59.881 -51.527  1.00  0.00     0.055 C 
HETATM   23  C   UNL     1     -42.474  60.817 -51.758  1.00  0.00     0.236 C 
HETATM   24  N   UNL     1     -42.472  61.303 -53.187  1.00  0.00    -0.075 N 
HETATM   25  H   UNL     1     -41.609  61.840 -53.347  1.00  0.00     0.279 HD
HETATM   26  C   UNL     1     -43.599  62.285 -53.424  1.00  0.00     0.269 C 
HETATM   27  C   UNL     1     -42.532  60.169 -54.175  1.00  0.00     0.236 C 
HETATM   28  C   UNL     1     -41.319  59.264 -53.986  1.00  0.00     0.055 C 
ENDBRANCH   4  21
TORSDOF 4
ENDMDL
MODEL 7
REMARK VINA RESULT:      -7.2      3.179      6.529
REMARK  4 active torsions:
REMARK  status: ('A' for Active; 'I' for Inactive)
REMARK    1  A    between atoms: N_4  and  C_5 
REMARK    2  A    between atoms: C_13  and  C_14 
REMARK    3  A    between atoms: N_15  and  C_17 
REMARK    4  A    between atoms: C_17  and  C_18 
ROOT
HETATM    1  C   UNL     1     -47.361  58.709 -57.973  1.00  0.00     0.095 C 
HETATM    2  C   UNL     1     -46.021  58.675 -57.351  1.00  0.00     0.144 A 
HETATM    3  N   UNL     1     -45.642  59.498 -56.370  1.00  0.00    -0.156 NA
HETATM    4  N   UNL     1     -44.392  59.082 -56.109  1.00  0.00    -0.247 N 
HETATM    5  C   UNL     1     -44.012  58.090 -56.987  1.00  0.00     0.156 A 
HETATM    6  N   UNL     1     -45.039  57.823 -57.769  1.00  0.00    -0.215 NA
ENDROOT
BRANCH   5   7
HETATM    7  C   UNL     1     -42.639  57.484 -57.114  1.00  0.00     0.259 C 
HETATM    8  N   UNL     1     -42.551  56.085 -57.728  1.00  0.00    -0.056 N 
HETATM    9  H   UNL     1     -41.546  55.882 -57.782  1.00  0.00     0.281 HD
HETATM   10  C   UNL     1     -43.008  56.022 -59.168  1.00  0.00     0.236 C 
HETATM   11  C   UNL     1     -42.136  56.948 -60.006  1.00  0.00     0.028 C 
HETATM   12  C   UNL     1     -42.089  58.370 -59.459  1.00  0.00     0.004 C 
HETATM   13  C   UNL     1     -41.736  58.398 -57.969  1.00  0.00     0.041 C 
BRANCH   8  14
HETATM   14  C   UNL     1     -43.065  54.953 -56.864  1.00  0.00     0.274 C 
BRANCH  14  15
HETATM   15  C   UNL     1     -42.344  54.666 -55.578  1.00  0.00    -0.033 A 
HETATM   16  C   UNL     1     -43.059  54.489 -54.383  1.00  0.00     0.009 A 
HETATM   17  C   UNL     1     -42.393  54.203 -53.191  1.00  0.00     0.001 A 
HETATM   18  C   UNL     1     -41.007  54.081 -53.179  1.00  0.00     0.000 A 
HETATM   19  C   UNL     1     -40.284  54.234 -54.359  1.00  0.00     0.001 A 
HETATM   20  C   UNL     1     -40.948  54.519 -55.554  1.00  0.00     0.009 A 
ENDBRANCH  14  15
ENDBRANCH   8  14
ENDBRANCH   5   7
BRANCH   4  21
HETATM   21  C   UNL     1     -43.662  59.729 -55.025  1.00  0.00     0.115 C 
HETATM   22  C   UNL     1     -42.782  58.752 -54.219  1.00  0.00     0.055 C 
HETATM   23  C   UNL     1     -43.545  57.915 -53.194  1.00  0.00     0.236 C 
HETATM   24  N   UNL     1     -44.381  58.816 -52.319  1.00  0.00    -0.075 N 
HETATM   25  H   UNL     1     -43.751  59.448 -51.805  1.00  0.00     0.279 HD
HETATM   26  C   UNL     1     -45.096  58.018 -51.250  1.00  0.00     0.269 C 
HETATM   27  C   UNL     1     -45.356  59.642 -53.115  1.00  0.00     0.236 C 
HETATM   28  C   UNL     1     -44.594  60.522 -54.100  1.00  0.00     0.055 C 
ENDBRANCH   4  21
TORSDOF 4
ENDMDL
MODEL 8
REMARK VINA RESULT:      -7.1      2.429      5.474
REMARK  4 active torsions:
REMARK  status: ('A' for Active; 'I' for Inactive)
REMARK    1  A    between atoms: N_4  and  C_5 
REMARK    2  A    between atoms: C_13  and  C_14 
REMARK    3  A    between atoms: N_15  and  C_17 
REMARK    4  A    between atoms: C_17  and  C_18 
ROOT
HETATM    1  C   UNL     1     -45.485  59.788 -55.766  1.00  0.00     0.095 C 
HETATM    2  C   UNL     1     -44.728  58.941 -54.821  1.00  0.00     0.144 A 
HETATM    3  N   UNL     1     -44.761  59.105 -53.495  1.00  0.00    -0.156 NA
HETATM    4  N   UNL     1     -43.968  58.111 -53.062  1.00  0.00    -0.247 N 
HETATM    5  C   UNL     1     -43.406  57.432 -54.121  1.00  0.00     0.156 A 
HETATM    6  N   UNL     1     -43.889  57.947 -55.235  1.00  0.00    -0.215 NA
ENDROOT
BRANCH   5   7
HETATM    7  C   UNL     1     -42.349  56.363 -54.042  1.00  0.00     0.259 C 
HETATM    8  N   UNL     1     -42.793  54.981 -53.561  1.00  0.00    -0.056 N 
HETATM    9  H   UNL     1     -41.955  54.392 -53.636  1.00  0.00     0.281 HD
HETATM   10  C   UNL     1     -43.788  54.307 -54.479  1.00  0.00     0.236 C 
HETATM   11  C   UNL     1     -43.156  54.135 -55.854  1.00  0.00     0.028 C 
HETATM   12  C   UNL     1     -42.614  55.441 -56.422  1.00  0.00     0.004 C 
HETATM   13  C   UNL     1     -41.699  56.161 -55.428  1.00  0.00     0.041 C 
BRANCH   8  14
HETATM   14  C   UNL     1     -43.134  54.872 -52.090  1.00  0.00     0.274 C 
BRANCH  14  15
HETATM   15  C   UNL     1     -42.019  54.573 -51.130  1.00  0.00    -0.033 A 
HETATM   16  C   UNL     1     -40.900  53.831 -51.543  1.00  0.00     0.009 A 
HETATM   17  C   UNL     1     -39.854  53.569 -50.659  1.00  0.00     0.001 A 
HETATM   18  C   UNL     1     -39.905  54.051 -49.355  1.00  0.00     0.000 A 
HETATM   19  C   UNL     1     -40.998  54.805 -48.934  1.00  0.00     0.001 A 
HETATM   20  C   UNL     1     -42.047  55.070 -49.817  1.00  0.00     0.009 A 
ENDBRANCH  14  15
ENDBRANCH   8  14
ENDBRANCH   5   7
BRANCH   4  21
HETATM   21  C   UNL     1     -43.807  57.936 -51.622  1.00  0.00     0.115 C 
HETATM   22  C   UNL     1     -45.038  58.396 -50.815  1.00  0.00     0.055 C 
HETATM   23  C   UNL     1     -45.129  59.907 -50.612  1.00  0.00     0.236 C 
HETATM   24  N   UNL     1     -43.828  60.428 -50.053  1.00  0.00    -0.075 N 
HETATM   25  H   UNL     1     -43.671  59.994 -49.132  1.00  0.00     0.279 HD
HETATM   26  C   UNL     1     -43.914  61.914 -49.779  1.00  0.00     0.269 C 
HETATM   27  C   UNL     1     -42.657  60.114 -50.945  1.00  0.00     0.236 C 
HETATM   28  C   UNL     1     -42.527  58.603 -51.103  1.00  0.00     0.055 C 
ENDBRANCH   4  21
TORSDOF 4
ENDMDL
MODEL 9
REMARK VINA RESULT:      -7.1     14.231     17.027
REMARK  4 active torsions:
REMARK  status: ('A' for Active; 'I' for Inactive)
REMARK    1  A    between atoms: N_4  and  C_5 
REMARK    2  A    between atoms: C_13  and  C_14 
REMARK    3  A    between atoms: N_15  and  C_17 
REMARK    4  A    between atoms: C_17  and  C_18 
ROOT
HETATM    1  C   UNL     1     -37.563  43.383 -60.722  1.00  0.00     0.095 C 
HETATM    2  C   UNL     1     -37.242  42.112 -60.040  1.00  0.00     0.144 A 
HETATM    3  N   UNL     1     -37.402  40.911 -60.604  1.00  0.00    -0.156 NA
HETATM    4  N   UNL     1     -36.958  40.081 -59.646  1.00  0.00    -0.247 N 
HETATM    5  C   UNL     1     -36.628  40.778 -58.505  1.00  0.00     0.156 A 
HETATM    6  N   UNL     1     -36.798  42.063 -58.750  1.00  0.00    -0.215 NA
ENDROOT
BRANCH   5   7
HETATM    7  C   UNL     1     -36.244  40.189 -57.173  1.00  0.00     0.259 C 
HETATM    8  N   UNL     1     -35.375  41.050 -56.257  1.00  0.00    -0.056 N 
HETATM    9  H   UNL     1     -35.278  40.505 -55.392  1.00  0.00     0.281 HD
HETATM   10  C   UNL     1     -36.048  42.326 -55.802  1.00  0.00     0.236 C 
HETATM   11  C   UNL     1     -37.315  41.972 -55.035  1.00  0.00     0.028 C 
HETATM   12  C   UNL     1     -38.246  41.058 -55.823  1.00  0.00     0.004 C 
HETATM   13  C   UNL     1     -37.513  39.830 -56.370  1.00  0.00     0.041 C 
BRANCH   8  14
HETATM   14  C   UNL     1     -33.935  41.229 -56.689  1.00  0.00     0.274 C 
BRANCH  14  15
HETATM   15  C   UNL     1     -32.891  40.379 -56.025  1.00  0.00    -0.033 A 
HETATM   16  C   UNL     1     -31.753  39.961 -56.734  1.00  0.00     0.009 A 
HETATM   17  C   UNL     1     -30.772  39.188 -56.113  1.00  0.00     0.001 A 
HETATM   18  C   UNL     1     -30.909  38.830 -54.776  1.00  0.00     0.000 A 
HETATM   19  C   UNL     1     -32.021  39.252 -54.053  1.00  0.00     0.001 A 
HETATM   20  C   UNL     1     -33.005  40.027 -54.671  1.00  0.00     0.009 A 
ENDBRANCH  14  15
ENDBRANCH   8  14
ENDBRANCH   5   7
BRANCH   4  21
HETATM   21  C   UNL     1     -36.928  38.651 -59.935  1.00  0.00     0.115 C 
HETATM   22  C   UNL     1     -36.662  38.338 -61.421  1.00  0.00     0.055 C 
HETATM   23  C   UNL     1     -37.885  38.485 -62.324  1.00  0.00     0.236 C 
HETATM   24  N   UNL     1     -39.040  37.699 -61.753  1.00  0.00    -0.075 N 
HETATM   25  H   UNL     1     -38.779  36.704 -61.733  1.00  0.00     0.279 HD
HETATM   26  C   UNL     1     -40.246  37.773 -62.664  1.00  0.00     0.269 C 
HETATM   27  C   UNL     1     -39.394  38.139 -60.357  1.00  0.00     0.236 C 
HETATM   28  C   UNL     1     -38.193  37.939 -59.440  1.00  0.00     0.055 C 
ENDBRANCH   4  21
TORSDOF 4
ENDMDL
MODEL 10
REMARK VINA RESULT:      -7.1      2.404      3.885
REMARK  4 active torsions:
REMARK  status: ('A' for Active; 'I' for Inactive)
REMARK    1  A    between atoms: N_4  and  C_5 
REMARK    2  A    between atoms: C_13  and  C_14 
REMARK    3  A    between atoms: N_15  and  C_17 
REMARK    4  A    between atoms: C_17  and  C_18 
ROOT
HETATM    1  C   UNL     1     -39.265  59.494 -50.544  1.00  0.00     0.095 C 
HETATM    2  C   UNL     1     -40.499  59.071 -51.238  1.00  0.00     0.144 A 
HETATM    3  N   UNL     1     -41.543  59.878 -51.445  1.00  0.00    -0.156 NA
HETATM    4  N   UNL     1     -42.391  59.088 -52.124  1.00  0.00    -0.247 N 
HETATM    5  C   UNL     1     -41.888  57.809 -52.234  1.00  0.00     0.156 A 
HETATM    6  N   UNL     1     -40.690  57.794 -51.683  1.00  0.00    -0.215 NA
ENDROOT
BRANCH   5   7
HETATM    7  C   UNL     1     -42.609  56.608 -52.785  1.00  0.00     0.259 C 
HETATM    8  N   UNL     1     -42.056  55.232 -52.408  1.00  0.00    -0.056 N 
HETATM    9  H   UNL     1     -42.711  54.559 -52.824  1.00  0.00     0.281 HD
HETATM   10  C   UNL     1     -42.127  54.933 -50.927  1.00  0.00     0.236 C 
HETATM   11  C   UNL     1     -43.583  54.982 -50.481  1.00  0.00     0.028 C 
HETATM   12  C   UNL     1     -44.271  56.290 -50.856  1.00  0.00     0.004 C 
HETATM   13  C   UNL     1     -44.086  56.628 -52.339  1.00  0.00     0.041 C 
BRANCH   8  14
HETATM   14  C   UNL     1     -40.742  54.849 -53.055  1.00  0.00     0.274 C 
BRANCH  14  15
HETATM   15  C   UNL     1     -40.390  53.390 -53.120  1.00  0.00    -0.033 A 
HETATM   16  C   UNL     1     -39.815  52.745 -52.013  1.00  0.00     0.009 A 
HETATM   17  C   UNL     1     -39.506  51.386 -52.064  1.00  0.00     0.001 A 
HETATM   18  C   UNL     1     -39.774  50.652 -53.214  1.00  0.00     0.000 A 
HETATM   19  C   UNL     1     -40.362  51.271 -54.314  1.00  0.00     0.001 A 
HETATM   20  C   UNL     1     -40.674  52.632 -54.266  1.00  0.00     0.009 A 
ENDBRANCH  14  15
ENDBRANCH   8  14
ENDBRANCH   5   7
BRANCH   4  21
HETATM   21  C   UNL     1     -43.651  59.662 -52.583  1.00  0.00     0.115 C 
HETATM   22  C   UNL     1     -43.501  60.500 -53.869  1.00  0.00     0.055 C 
HETATM   23  C   UNL     1     -42.953  61.908 -53.642  1.00  0.00     0.236 C 
HETATM   24  N   UNL     1     -43.757  62.605 -52.573  1.00  0.00    -0.075 N 
HETATM   25  H   UNL     1     -44.729  62.694 -52.902  1.00  0.00     0.279 HD
HETATM   26  C   UNL     1     -43.276  64.027 -52.376  1.00  0.00     0.269 C 
HETATM   27  C   UNL     1     -43.749  61.851 -51.270  1.00  0.00     0.236 C 
HETATM   28  C   UNL     1     -44.350  60.465 -51.480  1.00  0.00     0.055 C 
ENDBRANCH   4  21
TORSDOF 4
ENDMDL
