MODEL 1
REMARK VINA RESULT:      -8.8      0.000      0.000
REMARK  3 active torsions:
REMARK  status: ('A' for Active; 'I' for Inactive)
REMARK    1  A    between atoms: C_8  and  C_9 
REMARK    2  A    between atoms: C_9  and  N_10 
REMARK    3  A    between atoms: C_14  and  C_15 
ROOT
HETATM    1  N   UNL     1     -42.046  54.988 -53.125  1.00  0.00    -0.066 N 
HETATM    2  H   UNL     1     -42.622  54.406 -52.504  1.00  0.00     0.280 HD
HETATM    3  C   UNL     1     -42.489  56.425 -52.959  1.00  0.00     0.236 C 
HETATM    4  C   UNL     1     -43.917  56.602 -53.452  1.00  0.00     0.037 C 
HETATM    5  C   UNL     1     -44.076  56.185 -54.918  1.00  0.00     0.024 C 
HETATM    6  C   UNL     1     -43.688  54.693 -54.980  1.00  0.00     0.037 C 
HETATM    7  C   UNL     1     -42.248  54.466 -54.532  1.00  0.00     0.236 C 
ENDROOT
BRANCH   1   8
HETATM    8  C   UNL     1     -40.615  54.833 -52.642  1.00  0.00     0.293 C 
BRANCH   8   9
HETATM    9  C   UNL     1     -40.448  53.745 -51.663  1.00  0.00     0.061 A 
HETATM   10  N   UNL     1     -40.148  52.430 -51.985  1.00  0.00    -0.307 N 
HETATM   11  C   UNL     1     -39.950  51.817 -53.226  1.00  0.00     0.105 A 
HETATM   12  C   UNL     1     -40.093  51.735 -50.779  1.00  0.00     0.133 A 
HETATM   13  C   UNL     1     -39.691  50.495 -53.285  1.00  0.00    -0.046 A 
HETATM   14  C   UNL     1     -39.465  49.743 -54.561  1.00  0.00     0.049 C 
HETATM   15  C   UNL     1     -39.623  49.747 -52.032  1.00  0.00     0.012 A 
HETATM   16  C   UNL     1     -39.813  50.342 -50.839  1.00  0.00     0.051 A 
HETATM   17  N   UNL     1     -40.322  52.528 -49.757  1.00  0.00    -0.241 NA
HETATM   18  C   UNL     1     -40.512  53.770 -50.285  1.00  0.00     0.146 A 
ENDBRANCH   8   9
ENDBRANCH   1   8
BRANCH   5  19
HETATM   19  C   UNL     1     -43.307  57.025 -55.930  1.00  0.00    -0.024 A 
HETATM   20  C   UNL     1     -43.018  56.770 -57.324  1.00  0.00     0.018 A 
HETATM   21  C   UNL     1     -42.336  57.884 -57.809  1.00  0.00     0.138 A 
HETATM   22  C   UNL     1     -43.245  55.741 -58.260  1.00  0.00     0.017 A 
HETATM   23  N   UNL     1     -41.914  58.121 -59.063  1.00  0.00    -0.242 NA
HETATM   24  N   UNL     1     -42.119  58.741 -56.774  1.00  0.00    -0.350 N 
HETATM   25  C   UNL     1     -42.173  57.111 -59.914  1.00  0.00     0.119 A 
HETATM   26  C   UNL     1     -42.811  55.929 -59.576  1.00  0.00     0.020 A 
HETATM   27  H   UNL     1     -41.594  59.600 -56.863  1.00  0.00     0.166 HD
HETATM   28  C   UNL     1     -42.683  58.233 -55.636  1.00  0.00     0.098 A 
ENDBRANCH   5  19
TORSDOF 3
ENDMDL
MODEL 2
REMARK VINA RESULT:      -8.5      3.402      7.812
REMARK  3 active torsions:
REMARK  status: ('A' for Active; 'I' for Inactive)
REMARK    1  A    between atoms: C_8  and  C_9 
REMARK    2  A    between atoms: C_9  and  N_10 
REMARK    3  A    between atoms: C_14  and  C_15 
ROOT
HETATM    1  N   UNL     1     -41.531  57.094 -50.224  1.00  0.00    -0.066 N 
HETATM    2  H   UNL     1     -41.938  57.364 -49.319  1.00  0.00     0.280 HD
HETATM    3  C   UNL     1     -42.656  57.002 -51.231  1.00  0.00     0.236 C 
HETATM    4  C   UNL     1     -43.607  55.873 -50.865  1.00  0.00     0.037 C 
HETATM    5  C   UNL     1     -42.890  54.521 -50.775  1.00  0.00     0.024 C 
HETATM    6  C   UNL     1     -41.824  54.679 -49.672  1.00  0.00     0.037 C 
HETATM    7  C   UNL     1     -40.819  55.774 -50.011  1.00  0.00     0.236 C 
ENDROOT
BRANCH   1   8
HETATM    8  C   UNL     1     -40.584  58.215 -50.613  1.00  0.00     0.293 C 
BRANCH   8   9
HETATM    9  C   UNL     1     -40.988  58.913 -51.846  1.00  0.00     0.061 A 
HETATM   10  N   UNL     1     -41.849  59.999 -51.895  1.00  0.00    -0.307 N 
HETATM   11  C   UNL     1     -42.530  60.670 -50.875  1.00  0.00     0.105 A 
HETATM   12  C   UNL     1     -41.972  60.340 -53.240  1.00  0.00     0.133 A 
HETATM   13  C   UNL     1     -43.346  61.698 -51.180  1.00  0.00    -0.046 A 
HETATM   14  C   UNL     1     -44.120  62.483 -50.165  1.00  0.00     0.049 C 
HETATM   15  C   UNL     1     -43.484  62.079 -52.584  1.00  0.00     0.012 A 
HETATM   16  C   UNL     1     -42.826  61.429 -53.563  1.00  0.00     0.051 A 
HETATM   17  N   UNL     1     -41.243  59.557 -54.003  1.00  0.00    -0.241 NA
HETATM   18  C   UNL     1     -40.611  58.696 -53.156  1.00  0.00     0.146 A 
ENDBRANCH   8   9
ENDBRANCH   1   8
BRANCH   5  19
HETATM   19  C   UNL     1     -42.300  54.000 -52.080  1.00  0.00    -0.024 A 
HETATM   20  C   UNL     1     -41.194  53.097 -52.306  1.00  0.00     0.018 A 
HETATM   21  C   UNL     1     -41.105  52.897 -53.682  1.00  0.00     0.138 A 
HETATM   22  C   UNL     1     -40.243  52.405 -51.529  1.00  0.00     0.017 A 
HETATM   23  N   UNL     1     -40.264  52.093 -54.354  1.00  0.00    -0.242 NA
HETATM   24  N   UNL     1     -42.025  53.694 -54.293  1.00  0.00    -0.350 N 
HETATM   25  C   UNL     1     -39.391  51.447 -53.559  1.00  0.00     0.119 A 
HETATM   26  C   UNL     1     -39.332  51.566 -52.180  1.00  0.00     0.020 A 
HETATM   27  H   UNL     1     -42.118  53.768 -55.297  1.00  0.00     0.166 HD
HETATM   28  C   UNL     1     -42.741  54.374 -53.346  1.00  0.00     0.098 A 
ENDBRANCH   5  19
TORSDOF 3
ENDMDL
MODEL 3
REMARK VINA RESULT:      -8.5      2.597      7.284
REMARK  3 active torsions:
REMARK  status: ('A' for Active; 'I' for Inactive)
REMARK    1  A    between atoms: C_8  and  C_9 
REMARK    2  A    between atoms: C_9  and  N_10 
REMARK    3  A    between atoms: C_14  and  C_15 
ROOT
HETATM    1  N   UNL     1     -41.761  55.474 -55.832  1.00  0.00    -0.066 N 
HETATM    2  H   UNL     1     -41.446  55.064 -56.721  1.00  0.00     0.280 HD
HETATM    3  C   UNL     1     -40.602  55.427 -54.862  1.00  0.00     0.236 C 
HETATM    4  C   UNL     1     -40.239  53.987 -54.533  1.00  0.00     0.037 C 
HETATM    5  C   UNL     1     -41.426  53.213 -53.949  1.00  0.00     0.024 C 
HETATM    6  C   UNL     1     -42.524  53.237 -55.032  1.00  0.00     0.037 C 
HETATM    7  C   UNL     1     -42.952  54.661 -55.369  1.00  0.00     0.236 C 
ENDROOT
BRANCH   1   8
HETATM    8  C   UNL     1     -42.119  56.918 -56.136  1.00  0.00     0.293 C 
BRANCH   8   9
HETATM    9  C   UNL     1     -43.242  57.420 -55.326  1.00  0.00     0.061 A 
HETATM   10  N   UNL     1     -43.170  57.721 -53.974  1.00  0.00    -0.307 N 
HETATM   11  C   UNL     1     -42.105  57.625 -53.073  1.00  0.00     0.105 A 
HETATM   12  C   UNL     1     -44.443  58.146 -53.600  1.00  0.00     0.133 A 
HETATM   13  C   UNL     1     -42.292  57.957 -51.780  1.00  0.00    -0.046 A 
HETATM   14  C   UNL     1     -41.219  57.891 -50.737  1.00  0.00     0.049 C 
HETATM   15  C   UNL     1     -43.617  58.412 -51.367  1.00  0.00     0.012 A 
HETATM   16  C   UNL     1     -44.640  58.503 -52.238  1.00  0.00     0.051 A 
HETATM   17  N   UNL     1     -45.270  58.140 -54.621  1.00  0.00    -0.241 NA
HETATM   18  C   UNL     1     -44.537  57.724 -55.692  1.00  0.00     0.146 A 
ENDBRANCH   8   9
ENDBRANCH   1   8
BRANCH   5  19
HETATM   19  C   UNL     1     -41.934  53.706 -52.599  1.00  0.00    -0.024 A 
HETATM   20  C   UNL     1     -41.235  53.867 -51.344  1.00  0.00     0.018 A 
HETATM   21  C   UNL     1     -42.143  54.411 -50.438  1.00  0.00     0.138 A 
HETATM   22  C   UNL     1     -39.940  53.632 -50.839  1.00  0.00     0.017 A 
HETATM   23  N   UNL     1     -41.928  54.783 -49.165  1.00  0.00    -0.242 NA
HETATM   24  N   UNL     1     -43.359  54.495 -51.045  1.00  0.00    -0.350 N 
HETATM   25  C   UNL     1     -40.670  54.549 -48.745  1.00  0.00     0.119 A 
HETATM   26  C   UNL     1     -39.666  53.985 -49.514  1.00  0.00     0.020 A 
HETATM   27  H   UNL     1     -44.196  54.809 -50.573  1.00  0.00     0.166 HD
HETATM   28  C   UNL     1     -43.253  54.062 -52.339  1.00  0.00     0.098 A 
ENDBRANCH   5  19
TORSDOF 3
ENDMDL
MODEL 4
REMARK VINA RESULT:      -8.4      2.217      8.592
REMARK  3 active torsions:
REMARK  status: ('A' for Active; 'I' for Inactive)
REMARK    1  A    between atoms: C_8  and  C_9 
REMARK    2  A    between atoms: C_9  and  N_10 
REMARK    3  A    between atoms: C_14  and  C_15 
ROOT
HETATM    1  N   UNL     1     -42.065  55.254 -56.036  1.00  0.00    -0.066 N 
HETATM    2  H   UNL     1     -41.655  54.869 -56.897  1.00  0.00     0.280 HD
HETATM    3  C   UNL     1     -40.931  55.599 -55.096  1.00  0.00     0.236 C 
HETATM    4  C   UNL     1     -40.196  54.340 -54.662  1.00  0.00     0.037 C 
HETATM    5  C   UNL     1     -41.131  53.331 -53.986  1.00  0.00     0.024 C 
HETATM    6  C   UNL     1     -42.200  52.971 -55.039  1.00  0.00     0.037 C 
HETATM    7  C   UNL     1     -42.994  54.197 -55.478  1.00  0.00     0.236 C 
ENDROOT
BRANCH   1   8
HETATM    8  C   UNL     1     -42.795  56.521 -56.446  1.00  0.00     0.293 C 
BRANCH   8   9
HETATM    9  C   UNL     1     -42.728  56.786 -57.893  1.00  0.00     0.061 A 
HETATM   10  N   UNL     1     -42.380  58.002 -58.460  1.00  0.00    -0.307 N 
HETATM   11  C   UNL     1     -42.037  59.221 -57.865  1.00  0.00     0.105 A 
HETATM   12  C   UNL     1     -42.454  57.827 -59.839  1.00  0.00     0.133 A 
HETATM   13  C   UNL     1     -41.759  60.288 -58.640  1.00  0.00    -0.046 A 
HETATM   14  C   UNL     1     -41.381  61.635 -58.105  1.00  0.00     0.049 C 
HETATM   15  C   UNL     1     -41.824  60.125 -60.091  1.00  0.00     0.012 A 
HETATM   16  C   UNL     1     -42.154  58.950 -60.659  1.00  0.00     0.051 A 
HETATM   17  N   UNL     1     -42.805  56.600 -60.149  1.00  0.00    -0.241 NA
HETATM   18  C   UNL     1     -42.948  55.943 -58.964  1.00  0.00     0.146 A 
ENDBRANCH   8   9
ENDBRANCH   1   8
BRANCH   5  19
HETATM   19  C   UNL     1     -41.747  53.783 -52.668  1.00  0.00    -0.024 A 
HETATM   20  C   UNL     1     -41.146  53.928 -51.361  1.00  0.00     0.018 A 
HETATM   21  C   UNL     1     -42.129  54.434 -50.513  1.00  0.00     0.138 A 
HETATM   22  C   UNL     1     -39.888  53.704 -50.766  1.00  0.00     0.017 A 
HETATM   23  N   UNL     1     -42.016  54.781 -49.220  1.00  0.00    -0.242 NA
HETATM   24  N   UNL     1     -43.298  54.511 -51.208  1.00  0.00    -0.350 N 
HETATM   25  C   UNL     1     -40.789  54.559 -48.713  1.00  0.00     0.119 A 
HETATM   26  C   UNL     1     -39.719  54.032 -49.417  1.00  0.00     0.020 A 
HETATM   27  H   UNL     1     -44.174  54.799 -50.793  1.00  0.00     0.166 HD
HETATM   28  C   UNL     1     -43.089  54.110 -52.499  1.00  0.00     0.098 A 
ENDBRANCH   5  19
TORSDOF 3
ENDMDL
MODEL 5
REMARK VINA RESULT:      -8.4      2.298      3.083
REMARK  3 active torsions:
REMARK  status: ('A' for Active; 'I' for Inactive)
REMARK    1  A    between atoms: C_8  and  C_9 
REMARK    2  A    between atoms: C_9  and  N_10 
REMARK    3  A    between atoms: C_14  and  C_15 
ROOT
HETATM    1  N   UNL     1     -42.953  56.282 -54.913  1.00  0.00    -0.066 N 
HETATM    2  H   UNL     1     -42.172  56.697 -54.389  1.00  0.00     0.280 HD
HETATM    3  C   UNL     1     -42.554  56.223 -56.371  1.00  0.00     0.236 C 
HETATM    4  C   UNL     1     -42.391  57.625 -56.937  1.00  0.00     0.037 C 
HETATM    5  C   UNL     1     -43.670  58.458 -56.790  1.00  0.00     0.024 C 
HETATM    6  C   UNL     1     -43.953  58.538 -55.276  1.00  0.00     0.037 C 
HETATM    7  C   UNL     1     -44.164  57.156 -54.667  1.00  0.00     0.236 C 
ENDROOT
BRANCH   1   8
HETATM    8  C   UNL     1     -43.125  54.874 -54.370  1.00  0.00     0.293 C 
BRANCH   8   9
HETATM    9  C   UNL     1     -42.259  54.589 -53.214  1.00  0.00     0.061 A 
HETATM   10  N   UNL     1     -41.383  53.517 -53.126  1.00  0.00    -0.307 N 
HETATM   11  C   UNL     1     -41.111  52.485 -54.029  1.00  0.00     0.105 A 
HETATM   12  C   UNL     1     -40.775  53.610 -51.877  1.00  0.00     0.133 A 
HETATM   13  C   UNL     1     -40.223  51.526 -53.701  1.00  0.00    -0.046 A 
HETATM   14  C   UNL     1     -39.860  50.379 -54.595  1.00  0.00     0.049 C 
HETATM   15  C   UNL     1     -39.568  51.607 -52.398  1.00  0.00     0.012 A 
HETATM   16  C   UNL     1     -39.833  52.603 -51.531  1.00  0.00     0.051 A 
HETATM   17  N   UNL     1     -41.202  54.659 -51.211  1.00  0.00    -0.241 NA
HETATM   18  C   UNL     1     -42.092  55.284 -52.033  1.00  0.00     0.146 A 
ENDBRANCH   8   9
ENDBRANCH   1   8
BRANCH   5  19
HETATM   19  C   UNL     1     -44.875  57.959 -57.578  1.00  0.00    -0.024 A 
HETATM   20  C   UNL     1     -44.933  57.172 -58.790  1.00  0.00     0.018 A 
HETATM   21  C   UNL     1     -46.280  56.935 -59.057  1.00  0.00     0.138 A 
HETATM   22  C   UNL     1     -44.024  56.613 -59.710  1.00  0.00     0.017 A 
HETATM   23  N   UNL     1     -46.816  56.204 -60.049  1.00  0.00    -0.242 NA
HETATM   24  N   UNL     1     -47.026  57.607 -58.138  1.00  0.00    -0.350 N 
HETATM   25  C   UNL     1     -45.898  55.683 -60.885  1.00  0.00     0.119 A 
HETATM   26  C   UNL     1     -44.529  55.855 -60.772  1.00  0.00     0.020 A 
HETATM   27  H   UNL     1     -48.037  57.636 -58.155  1.00  0.00     0.166 HD
HETATM   28  C   UNL     1     -46.198  58.238 -57.251  1.00  0.00     0.098 A 
ENDBRANCH   5  19
TORSDOF 3
ENDMDL
MODEL 6
REMARK VINA RESULT:      -8.3      3.046      7.646
REMARK  3 active torsions:
REMARK  status: ('A' for Active; 'I' for Inactive)
REMARK    1  A    between atoms: C_8  and  C_9 
REMARK    2  A    between atoms: C_9  and  N_10 
REMARK    3  A    between atoms: C_14  and  C_15 
ROOT
HETATM    1  N   UNL     1     -41.742  57.333 -50.436  1.00  0.00    -0.066 N 
HETATM    2  H   UNL     1     -42.111  57.630 -49.523  1.00  0.00     0.280 HD
HETATM    3  C   UNL     1     -42.920  57.043 -51.340  1.00  0.00     0.236 C 
HETATM    4  C   UNL     1     -43.711  55.853 -50.820  1.00  0.00     0.037 C 
HETATM    5  C   UNL     1     -42.843  54.595 -50.692  1.00  0.00     0.024 C 
HETATM    6  C   UNL     1     -41.724  54.951 -49.692  1.00  0.00     0.037 C 
HETATM    7  C   UNL     1     -40.875  56.117 -50.188  1.00  0.00     0.236 C 
ENDROOT
BRANCH   1   8
HETATM    8  C   UNL     1     -40.957  58.513 -50.978  1.00  0.00     0.293 C 
BRANCH   8   9
HETATM    9  C   UNL     1     -41.790  59.704 -51.216  1.00  0.00     0.061 A 
HETATM   10  N   UNL     1     -42.164  60.173 -52.466  1.00  0.00    -0.307 N 
HETATM   11  C   UNL     1     -41.867  59.694 -53.746  1.00  0.00     0.105 A 
HETATM   12  C   UNL     1     -42.929  61.315 -52.244  1.00  0.00     0.133 A 
HETATM   13  C   UNL     1     -42.332  60.348 -54.829  1.00  0.00    -0.046 A 
HETATM   14  C   UNL     1     -42.072  59.919 -56.241  1.00  0.00     0.049 C 
HETATM   15  C   UNL     1     -43.142  61.545 -54.619  1.00  0.00     0.012 A 
HETATM   16  C   UNL     1     -43.426  62.002 -53.384  1.00  0.00     0.051 A 
HETATM   17  N   UNL     1     -43.058  61.564 -50.960  1.00  0.00    -0.241 NA
HETATM   18  C   UNL     1     -42.388  60.566 -50.318  1.00  0.00     0.146 A 
ENDBRANCH   8   9
ENDBRANCH   1   8
BRANCH   5  19
HETATM   19  C   UNL     1     -42.294  54.038 -52.000  1.00  0.00    -0.024 A 
HETATM   20  C   UNL     1     -41.188  53.137 -52.236  1.00  0.00     0.018 A 
HETATM   21  C   UNL     1     -41.146  52.894 -53.608  1.00  0.00     0.138 A 
HETATM   22  C   UNL     1     -40.205  52.478 -51.472  1.00  0.00     0.017 A 
HETATM   23  N   UNL     1     -40.322  52.076 -54.283  1.00  0.00    -0.242 NA
HETATM   24  N   UNL     1     -42.094  53.664 -54.211  1.00  0.00    -0.350 N 
HETATM   25  C   UNL     1     -39.416  51.463 -53.499  1.00  0.00     0.119 A 
HETATM   26  C   UNL     1     -39.309  51.626 -52.127  1.00  0.00     0.020 A 
HETATM   27  H   UNL     1     -42.223  53.704 -55.213  1.00  0.00     0.166 HD
HETATM   28  C   UNL     1     -42.782  54.367 -53.261  1.00  0.00     0.098 A 
ENDBRANCH   5  19
TORSDOF 3
ENDMDL
MODEL 7
REMARK VINA RESULT:      -8.1      2.264      8.095
REMARK  3 active torsions:
REMARK  status: ('A' for Active; 'I' for Inactive)
REMARK    1  A    between atoms: C_8  and  C_9 
REMARK    2  A    between atoms: C_9  and  N_10 
REMARK    3  A    between atoms: C_14  and  C_15 
ROOT
HETATM    1  N   UNL     1     -42.245  56.320 -55.256  1.00  0.00    -0.066 N 
HETATM    2  H   UNL     1     -42.010  56.105 -56.233  1.00  0.00     0.280 HD
HETATM    3  C   UNL     1     -40.991  56.145 -54.427  1.00  0.00     0.236 C 
HETATM    4  C   UNL     1     -40.554  54.688 -54.424  1.00  0.00     0.037 C 
HETATM    5  C   UNL     1     -41.652  53.758 -53.893  1.00  0.00     0.024 C 
HETATM    6  C   UNL     1     -42.855  53.937 -54.841  1.00  0.00     0.037 C 
HETATM    7  C   UNL     1     -43.357  55.376 -54.850  1.00  0.00     0.236 C 
ENDROOT
BRANCH   1   8
HETATM    8  C   UNL     1     -42.674  57.776 -55.236  1.00  0.00     0.293 C 
BRANCH   8   9
HETATM    9  C   UNL     1     -42.425  58.471 -56.510  1.00  0.00     0.061 A 
HETATM   10  N   UNL     1     -42.699  57.947 -57.764  1.00  0.00    -0.307 N 
HETATM   11  C   UNL     1     -43.230  56.710 -58.140  1.00  0.00     0.105 A 
HETATM   12  C   UNL     1     -42.305  58.914 -58.687  1.00  0.00     0.133 A 
HETATM   13  C   UNL     1     -43.380  56.415 -59.446  1.00  0.00    -0.046 A 
HETATM   14  C   UNL     1     -43.938  55.121 -59.954  1.00  0.00     0.049 C 
HETATM   15  C   UNL     1     -42.980  57.417 -60.432  1.00  0.00     0.012 A 
HETATM   16  C   UNL     1     -42.469  58.608 -60.065  1.00  0.00     0.051 A 
HETATM   17  N   UNL     1     -41.830  59.983 -58.089  1.00  0.00    -0.241 NA
HETATM   18  C   UNL     1     -41.925  59.735 -56.752  1.00  0.00     0.146 A 
ENDBRANCH   8   9
ENDBRANCH   1   8
BRANCH   5  19
HETATM   19  C   UNL     1     -42.033  53.957 -52.431  1.00  0.00    -0.024 A 
HETATM   20  C   UNL     1     -41.200  54.006 -51.250  1.00  0.00     0.018 A 
HETATM   21  C   UNL     1     -42.039  54.273 -50.170  1.00  0.00     0.138 A 
HETATM   22  C   UNL     1     -39.833  53.865 -50.937  1.00  0.00     0.017 A 
HETATM   23  N   UNL     1     -41.705  54.461 -48.882  1.00  0.00    -0.242 NA
HETATM   24  N   UNL     1     -43.325  54.293 -50.618  1.00  0.00    -0.350 N 
HETATM   25  C   UNL     1     -40.385  54.330 -48.648  1.00  0.00     0.119 A 
HETATM   26  C   UNL     1     -39.431  54.035 -49.608  1.00  0.00     0.020 A 
HETATM   27  H   UNL     1     -44.124  54.414 -50.011  1.00  0.00     0.166 HD
HETATM   28  C   UNL     1     -43.339  54.091 -51.971  1.00  0.00     0.098 A 
ENDBRANCH   5  19
TORSDOF 3
ENDMDL
MODEL 8
REMARK VINA RESULT:      -8.0      2.894      7.309
REMARK  3 active torsions:
REMARK  status: ('A' for Active; 'I' for Inactive)
REMARK    1  A    between atoms: C_8  and  C_9 
REMARK    2  A    between atoms: C_9  and  N_10 
REMARK    3  A    between atoms: C_14  and  C_15 
ROOT
HETATM    1  N   UNL     1     -42.790  57.571 -55.250  1.00  0.00    -0.066 N 
HETATM    2  H   UNL     1     -43.465  57.794 -55.993  1.00  0.00     0.280 HD
HETATM    3  C   UNL     1     -41.902  56.452 -55.750  1.00  0.00     0.236 C 
HETATM    4  C   UNL     1     -42.710  55.180 -55.952  1.00  0.00     0.037 C 
HETATM    5  C   UNL     1     -43.418  54.736 -54.667  1.00  0.00     0.024 C 
HETATM    6  C   UNL     1     -44.360  55.893 -54.279  1.00  0.00     0.037 C 
HETATM    7  C   UNL     1     -43.592  57.185 -54.025  1.00  0.00     0.236 C 
ENDROOT
BRANCH   1   8
HETATM    8  C   UNL     1     -41.963  58.827 -55.040  1.00  0.00     0.293 C 
BRANCH   8   9
HETATM    9  C   UNL     1     -41.451  58.960 -53.665  1.00  0.00     0.061 A 
HETATM   10  N   UNL     1     -42.025  59.747 -52.679  1.00  0.00    -0.307 N 
HETATM   11  C   UNL     1     -43.150  60.577 -52.713  1.00  0.00     0.105 A 
HETATM   12  C   UNL     1     -41.228  59.599 -51.546  1.00  0.00     0.133 A 
HETATM   13  C   UNL     1     -43.501  61.273 -51.614  1.00  0.00    -0.046 A 
HETATM   14  C   UNL     1     -44.685  62.188 -51.546  1.00  0.00     0.049 C 
HETATM   15  C   UNL     1     -42.683  61.128 -50.413  1.00  0.00     0.012 A 
HETATM   16  C   UNL     1     -41.601  60.327 -50.384  1.00  0.00     0.051 A 
HETATM   17  N   UNL     1     -40.229  58.775 -51.767  1.00  0.00    -0.241 NA
HETATM   18  C   UNL     1     -40.371  58.354 -53.055  1.00  0.00     0.146 A 
ENDBRANCH   8   9
ENDBRANCH   1   8
BRANCH   5  19
HETATM   19  C   UNL     1     -42.503  54.326 -53.520  1.00  0.00    -0.024 A 
HETATM   20  C   UNL     1     -41.490  53.296 -53.459  1.00  0.00     0.018 A 
HETATM   21  C   UNL     1     -40.900  53.377 -52.200  1.00  0.00     0.138 A 
HETATM   22  C   UNL     1     -40.976  52.294 -54.307  1.00  0.00     0.017 A 
HETATM   23  N   UNL     1     -39.875  52.657 -51.712  1.00  0.00    -0.242 NA
HETATM   24  N   UNL     1     -41.559  54.324 -51.476  1.00  0.00    -0.350 N 
HETATM   25  C   UNL     1     -39.417  51.728 -52.572  1.00  0.00     0.119 A 
HETATM   26  C   UNL     1     -39.919  51.504 -53.844  1.00  0.00     0.020 A 
HETATM   27  H   UNL     1     -41.350  54.530 -50.509  1.00  0.00     0.166 HD
HETATM   28  C   UNL     1     -42.533  54.893 -52.249  1.00  0.00     0.098 A 
ENDBRANCH   5  19
TORSDOF 3
ENDMDL
MODEL 9
REMARK VINA RESULT:      -8.0      2.523      7.922
REMARK  3 active torsions:
REMARK  status: ('A' for Active; 'I' for Inactive)
REMARK    1  A    between atoms: C_8  and  C_9 
REMARK    2  A    between atoms: C_9  and  N_10 
REMARK    3  A    between atoms: C_14  and  C_15 
ROOT
HETATM    1  N   UNL     1     -43.008  56.075 -53.783  1.00  0.00    -0.066 N 
HETATM    2  H   UNL     1     -43.192  56.625 -54.632  1.00  0.00     0.280 HD
HETATM    3  C   UNL     1     -41.590  56.362 -53.341  1.00  0.00     0.236 C 
HETATM    4  C   UNL     1     -40.597  55.852 -54.373  1.00  0.00     0.037 C 
HETATM    5  C   UNL     1     -40.756  54.350 -54.635  1.00  0.00     0.024 C 
HETATM    6  C   UNL     1     -42.193  54.161 -55.161  1.00  0.00     0.037 C 
HETATM    7  C   UNL     1     -43.232  54.621 -54.143  1.00  0.00     0.236 C 
ENDROOT
BRANCH   1   8
HETATM    8  C   UNL     1     -43.985  56.576 -52.734  1.00  0.00     0.293 C 
BRANCH   8   9
HETATM    9  C   UNL     1     -44.288  58.011 -52.864  1.00  0.00     0.061 A 
HETATM   10  N   UNL     1     -44.822  58.608 -53.996  1.00  0.00    -0.307 N 
HETATM   11  C   UNL     1     -45.179  58.063 -55.233  1.00  0.00     0.105 A 
HETATM   12  C   UNL     1     -44.938  59.966 -53.705  1.00  0.00     0.133 A 
HETATM   13  C   UNL     1     -45.662  58.864 -56.203  1.00  0.00    -0.046 A 
HETATM   14  C   UNL     1     -46.073  58.381 -57.560  1.00  0.00     0.049 C 
HETATM   15  C   UNL     1     -45.798  60.290 -55.918  1.00  0.00     0.012 A 
HETATM   16  C   UNL     1     -45.453  60.811 -54.725  1.00  0.00     0.051 A 
HETATM   17  N   UNL     1     -44.530  60.232 -52.485  1.00  0.00    -0.241 NA
HETATM   18  C   UNL     1     -44.156  59.036 -51.948  1.00  0.00     0.146 A 
ENDBRANCH   8   9
ENDBRANCH   1   8
BRANCH   5  19
HETATM   19  C   UNL     1     -40.448  53.440 -53.453  1.00  0.00    -0.024 A 
HETATM   20  C   UNL     1     -40.181  52.019 -53.417  1.00  0.00     0.018 A 
HETATM   21  C   UNL     1     -39.898  51.690 -52.092  1.00  0.00     0.138 A 
HETATM   22  C   UNL     1     -40.132  50.948 -54.332  1.00  0.00     0.017 A 
HETATM   23  N   UNL     1     -39.538  50.498 -51.589  1.00  0.00    -0.242 NA
HETATM   24  N   UNL     1     -40.071  52.803 -51.327  1.00  0.00    -0.350 N 
HETATM   25  C   UNL     1     -39.493  49.519 -52.513  1.00  0.00     0.119 A 
HETATM   26  C   UNL     1     -39.778  49.681 -53.859  1.00  0.00     0.020 A 
HETATM   27  H   UNL     1     -39.977  52.805 -50.320  1.00  0.00     0.166 HD
HETATM   28  C   UNL     1     -40.415  53.858 -52.126  1.00  0.00     0.098 A 
ENDBRANCH   5  19
TORSDOF 3
ENDMDL
MODEL 10
REMARK VINA RESULT:      -7.9      2.762      4.786
REMARK  3 active torsions:
REMARK  status: ('A' for Active; 'I' for Inactive)
REMARK    1  A    between atoms: C_8  and  C_9 
REMARK    2  A    between atoms: C_9  and  N_10 
REMARK    3  A    between atoms: C_14  and  C_15 
ROOT
HETATM    1  N   UNL     1     -43.586  56.045 -54.780  1.00  0.00    -0.066 N 
HETATM    2  H   UNL     1     -43.735  55.957 -55.793  1.00  0.00     0.280 HD
HETATM    3  C   UNL     1     -44.685  56.922 -54.222  1.00  0.00     0.236 C 
HETATM    4  C   UNL     1     -44.569  58.336 -54.770  1.00  0.00     0.037 C 
HETATM    5  C   UNL     1     -43.207  58.965 -54.458  1.00  0.00     0.024 C 
HETATM    6  C   UNL     1     -42.156  58.059 -55.133  1.00  0.00     0.037 C 
HETATM    7  C   UNL     1     -42.205  56.636 -54.588  1.00  0.00     0.236 C 
ENDROOT
BRANCH   1   8
HETATM    8  C   UNL     1     -43.708  54.643 -54.211  1.00  0.00     0.293 C 
BRANCH   8   9
HETATM    9  C   UNL     1     -42.945  54.454 -52.965  1.00  0.00     0.061 A 
HETATM   10  N   UNL     1     -41.867  53.594 -52.820  1.00  0.00    -0.307 N 
HETATM   11  C   UNL     1     -41.262  52.726 -53.735  1.00  0.00     0.105 A 
HETATM   12  C   UNL     1     -41.450  53.709 -51.496  1.00  0.00     0.133 A 
HETATM   13  C   UNL     1     -40.227  51.958 -53.343  1.00  0.00    -0.046 A 
HETATM   14  C   UNL     1     -39.510  50.998 -54.243  1.00  0.00     0.049 C 
HETATM   15  C   UNL     1     -39.768  52.067 -51.961  1.00  0.00     0.012 A 
HETATM   16  C   UNL     1     -40.353  52.905 -51.083  1.00  0.00     0.051 A 
HETATM   17  N   UNL     1     -42.180  54.579 -50.836  1.00  0.00    -0.241 NA
HETATM   18  C   UNL     1     -43.083  55.065 -51.735  1.00  0.00     0.146 A 
ENDBRANCH   8   9
ENDBRANCH   1   8
BRANCH   5  19
HETATM   19  C   UNL     1     -42.910  59.194 -52.981  1.00  0.00    -0.024 A 
HETATM   20  C   UNL     1     -41.645  59.231 -52.281  1.00  0.00     0.018 A 
HETATM   21  C   UNL     1     -41.924  59.538 -50.951  1.00  0.00     0.138 A 
HETATM   22  C   UNL     1     -40.282  59.052 -52.590  1.00  0.00     0.017 A 
HETATM   23  N   UNL     1     -41.059  59.732 -49.942  1.00  0.00    -0.242 NA
HETATM   24  N   UNL     1     -43.276  59.592 -50.796  1.00  0.00    -0.350 N 
HETATM   25  C   UNL     1     -39.772  59.563 -50.301  1.00  0.00     0.119 A 
HETATM   26  C   UNL     1     -39.338  59.225 -51.572  1.00  0.00     0.020 A 
HETATM   27  H   UNL     1     -43.728  59.746 -49.905  1.00  0.00     0.166 HD
HETATM   28  C   UNL     1     -43.882  59.374 -52.003  1.00  0.00     0.098 A 
ENDBRANCH   5  19
TORSDOF 3
ENDMDL
