MODEL 1
REMARK VINA RESULT:      -8.8      0.000      0.000
REMARK  6 active torsions:
REMARK  status: ('A' for Active; 'I' for Inactive)
REMARK    1  A    between atoms: O_2  and  C_3 
REMARK    2  A    between atoms: C_6  and  C_7 
REMARK    3  A    between atoms: C_13  and  C_14 
REMARK       I    between atoms: C_14  and  N_15 
REMARK    4  A    between atoms: N_15  and  C_16 
REMARK    5  A    between atoms: C_16  and  C_17 
REMARK    6  A    between atoms: C_24  and  C_25 
ROOT
HETATM    1  C   UNL     1     -43.603  55.451 -53.627  1.00  0.00     0.118 C 
HETATM    2  N   UNL     1     -43.919  55.753 -55.029  1.00  0.00    -0.365 N 
HETATM    3  C   UNL     1     -43.324  56.797 -55.669  1.00  0.00     0.138 A 
HETATM    4  N   UNL     1     -42.639  57.757 -54.963  1.00  0.00    -0.240 N 
HETATM    5  N   UNL     1     -42.150  58.750 -55.720  1.00  0.00    -0.181 NA
HETATM    6  C   UNL     1     -42.437  58.351 -56.962  1.00  0.00     0.160 A 
HETATM    7  C   UNL     1     -43.190  57.150 -57.000  1.00  0.00     0.096 A 
HETATM    8  C   UNL     1     -42.423  57.743 -53.529  1.00  0.00     0.221 C 
HETATM    9  C   UNL     1     -43.399  56.765 -52.852  1.00  0.00     0.066 C 
HETATM   10  H   UNL     1     -44.178  54.920 -55.556  1.00  0.00     0.161 HD
ENDROOT
BRANCH   7  11
HETATM   11  C   UNL     1     -43.640  56.482 -58.202  1.00  0.00     0.257 C 
HETATM   12  N   UNL     1     -44.949  56.709 -58.557  1.00  0.00    -0.352 N 
HETATM   13  H   UNL     1     -45.484  57.397 -58.044  1.00  0.00     0.163 HD
HETATM   14  O   UNL     1     -42.889  55.775 -58.866  1.00  0.00    -0.267 OA
BRANCH  12  15
HETATM   15  C   UNL     1     -45.514  56.062 -59.715  1.00  0.00     0.161 C 
BRANCH  15  16
HETATM   16  C   UNL     1     -46.531  56.914 -60.428  1.00  0.00    -0.041 A 
HETATM   17  C   UNL     1     -46.528  58.310 -60.288  1.00  0.00     0.009 A 
HETATM   18  C   UNL     1     -47.429  59.098 -61.007  1.00  0.00     0.001 A 
HETATM   19  C   UNL     1     -48.332  58.502 -61.883  1.00  0.00     0.000 A 
HETATM   20  C   UNL     1     -48.339  57.118 -62.041  1.00  0.00     0.001 A 
HETATM   21  C   UNL     1     -47.443  56.328 -61.319  1.00  0.00     0.009 A 
ENDBRANCH  15  16
ENDBRANCH  12  15
ENDBRANCH   7  11
BRANCH   1  22
HETATM   22  C   UNL     1     -42.498  54.416 -53.481  1.00  0.00    -0.035 A 
HETATM   23  C   UNL     1     -41.911  54.096 -52.244  1.00  0.00     0.012 A 
HETATM   24  C   UNL     1     -40.876  53.158 -52.147  1.00  0.00     0.037 A 
HETATM   25  C   UNL     1     -40.399  52.517 -53.286  1.00  0.00     0.068 A 
HETATM   26  C   UNL     1     -40.961  52.832 -54.522  1.00  0.00     0.037 A 
HETATM   27  C   UNL     1     -41.993  53.773 -54.623  1.00  0.00     0.012 A 
BRANCH  25  28
HETATM   28  O   UNL     1     -39.400  51.585 -53.324  1.00  0.00    -0.356 OA
HETATM   29  C   UNL     1     -39.646  50.417 -54.098  1.00  0.00     0.210 C 
ENDBRANCH  25  28
ENDBRANCH   1  22
BRANCH   8  30
HETATM   30  C   UNL     1     -40.965  57.464 -53.221  1.00  0.00     0.409 C 
HETATM   31  F   UNL     1     -40.390  56.574 -54.051  1.00  0.00    -0.169 F 
HETATM   32  F   UNL     1     -40.214  58.590 -53.250  1.00  0.00    -0.169 F 
HETATM   33  F   UNL     1     -40.846  56.969 -51.960  1.00  0.00    -0.169 F 
ENDBRANCH   8  30
TORSDOF 6
ENDMDL
MODEL 2
REMARK VINA RESULT:      -8.4      3.100      7.719
REMARK  6 active torsions:
REMARK  status: ('A' for Active; 'I' for Inactive)
REMARK    1  A    between atoms: O_2  and  C_3 
REMARK    2  A    between atoms: C_6  and  C_7 
REMARK    3  A    between atoms: C_13  and  C_14 
REMARK       I    between atoms: C_14  and  N_15 
REMARK    4  A    between atoms: N_15  and  C_16 
REMARK    5  A    between atoms: C_16  and  C_17 
REMARK    6  A    between atoms: C_24  and  C_25 
ROOT
HETATM    1  C   UNL     1     -41.648  58.076 -54.604  1.00  0.00     0.118 C 
HETATM    2  N   UNL     1     -41.606  57.270 -53.378  1.00  0.00    -0.365 N 
HETATM    3  C   UNL     1     -42.632  57.304 -52.484  1.00  0.00     0.138 A 
HETATM    4  N   UNL     1     -43.593  58.286 -52.553  1.00  0.00    -0.240 N 
HETATM    5  N   UNL     1     -44.512  58.223 -51.579  1.00  0.00    -0.181 NA
HETATM    6  C   UNL     1     -44.191  57.098 -50.935  1.00  0.00     0.160 A 
HETATM    7  C   UNL     1     -43.014  56.487 -51.435  1.00  0.00     0.096 A 
HETATM    8  C   UNL     1     -43.660  59.316 -53.572  1.00  0.00     0.221 C 
HETATM    9  C   UNL     1     -42.314  59.431 -54.305  1.00  0.00     0.066 C 
HETATM   10  H   UNL     1     -41.070  56.411 -53.497  1.00  0.00     0.161 HD
ENDROOT
BRANCH   7  11
HETATM   11  C   UNL     1     -42.430  55.260 -50.936  1.00  0.00     0.257 C 
HETATM   12  N   UNL     1     -41.099  55.072 -51.226  1.00  0.00    -0.352 N 
HETATM   13  H   UNL     1     -40.579  55.823 -51.660  1.00  0.00     0.163 HD
HETATM   14  O   UNL     1     -43.083  54.455 -50.281  1.00  0.00    -0.267 OA
BRANCH  12  15
HETATM   15  C   UNL     1     -40.425  53.866 -50.813  1.00  0.00     0.161 C 
BRANCH  15  16
HETATM   16  C   UNL     1     -40.199  52.899 -51.946  1.00  0.00    -0.041 A 
HETATM   17  C   UNL     1     -39.708  51.607 -51.705  1.00  0.00     0.009 A 
HETATM   18  C   UNL     1     -39.567  50.694 -52.752  1.00  0.00     0.001 A 
HETATM   19  C   UNL     1     -39.927  51.057 -54.048  1.00  0.00     0.000 A 
HETATM   20  C   UNL     1     -40.427  52.333 -54.300  1.00  0.00     0.001 A 
HETATM   21  C   UNL     1     -40.563  53.250 -53.255  1.00  0.00     0.009 A 
ENDBRANCH  15  16
ENDBRANCH  12  15
ENDBRANCH   7  11
BRANCH   1  22
HETATM   22  C   UNL     1     -42.206  57.311 -55.795  1.00  0.00    -0.035 A 
HETATM   23  C   UNL     1     -42.520  55.942 -55.744  1.00  0.00     0.012 A 
HETATM   24  C   UNL     1     -43.006  55.261 -56.867  1.00  0.00     0.037 A 
HETATM   25  C   UNL     1     -43.186  55.932 -58.072  1.00  0.00     0.068 A 
HETATM   26  C   UNL     1     -42.868  57.288 -58.144  1.00  0.00     0.037 A 
HETATM   27  C   UNL     1     -42.378  57.969 -57.024  1.00  0.00     0.012 A 
BRANCH  25  28
HETATM   28  O   UNL     1     -43.654  55.384 -59.234  1.00  0.00    -0.356 OA
HETATM   29  C   UNL     1     -44.053  56.293 -60.253  1.00  0.00     0.210 C 
ENDBRANCH  25  28
ENDBRANCH   1  22
BRANCH   8  30
HETATM   30  C   UNL     1     -44.839  59.066 -54.492  1.00  0.00     0.409 C 
HETATM   31  F   UNL     1     -45.106  57.763 -54.698  1.00  0.00    -0.169 F 
HETATM   32  F   UNL     1     -45.974  59.646 -54.036  1.00  0.00    -0.169 F 
HETATM   33  F   UNL     1     -44.600  59.621 -55.711  1.00  0.00    -0.169 F 
ENDBRANCH   8  30
TORSDOF 6
ENDMDL
MODEL 3
REMARK VINA RESULT:      -8.2      1.450      2.086
REMARK  6 active torsions:
REMARK  status: ('A' for Active; 'I' for Inactive)
REMARK    1  A    between atoms: O_2  and  C_3 
REMARK    2  A    between atoms: C_6  and  C_7 
REMARK    3  A    between atoms: C_13  and  C_14 
REMARK       I    between atoms: C_14  and  N_15 
REMARK    4  A    between atoms: N_15  and  C_16 
REMARK    5  A    between atoms: C_16  and  C_17 
REMARK    6  A    between atoms: C_24  and  C_25 
ROOT
HETATM    1  C   UNL     1     -43.668  55.191 -52.616  1.00  0.00     0.118 C 
HETATM    2  N   UNL     1     -43.733  55.577 -54.031  1.00  0.00    -0.365 N 
HETATM    3  C   UNL     1     -43.157  56.732 -54.466  1.00  0.00     0.138 A 
HETATM    4  N   UNL     1     -42.752  57.696 -53.574  1.00  0.00    -0.240 N 
HETATM    5  N   UNL     1     -42.250  58.799 -54.148  1.00  0.00    -0.181 NA
HETATM    6  C   UNL     1     -42.231  58.480 -55.445  1.00  0.00     0.160 A 
HETATM    7  C   UNL     1     -42.804  57.212 -55.715  1.00  0.00     0.096 A 
HETATM    8  C   UNL     1     -42.828  57.581 -52.130  1.00  0.00     0.221 C 
HETATM    9  C   UNL     1     -43.789  56.448 -51.734  1.00  0.00     0.066 C 
HETATM   10  H   UNL     1     -43.774  54.769 -54.651  1.00  0.00     0.161 HD
ENDROOT
BRANCH   7  11
HETATM   11  C   UNL     1     -42.918  56.605 -57.023  1.00  0.00     0.257 C 
HETATM   12  N   UNL     1     -42.771  57.458 -58.092  1.00  0.00    -0.352 N 
HETATM   13  H   UNL     1     -42.488  58.414 -57.922  1.00  0.00     0.163 HD
HETATM   14  O   UNL     1     -43.113  55.401 -57.162  1.00  0.00    -0.267 OA
BRANCH  12  15
HETATM   15  C   UNL     1     -42.904  56.967 -59.442  1.00  0.00     0.161 C 
BRANCH  15  16
HETATM   16  C   UNL     1     -44.335  56.908 -59.908  1.00  0.00    -0.041 A 
HETATM   17  C   UNL     1     -44.858  55.741 -60.485  1.00  0.00     0.009 A 
HETATM   18  C   UNL     1     -46.204  55.671 -60.851  1.00  0.00     0.001 A 
HETATM   19  C   UNL     1     -47.045  56.760 -60.630  1.00  0.00     0.000 A 
HETATM   20  C   UNL     1     -46.542  57.921 -60.047  1.00  0.00     0.001 A 
HETATM   21  C   UNL     1     -45.195  57.995 -59.686  1.00  0.00     0.009 A 
ENDBRANCH  15  16
ENDBRANCH  12  15
ENDBRANCH   7  11
BRANCH   1  22
HETATM   22  C   UNL     1     -42.494  54.274 -52.306  1.00  0.00    -0.035 A 
HETATM   23  C   UNL     1     -42.117  53.932 -50.996  1.00  0.00     0.012 A 
HETATM   24  C   UNL     1     -41.014  53.108 -50.744  1.00  0.00     0.037 A 
HETATM   25  C   UNL     1     -40.256  52.607 -51.797  1.00  0.00     0.068 A 
HETATM   26  C   UNL     1     -40.607  52.946 -53.103  1.00  0.00     0.037 A 
HETATM   27  C   UNL     1     -41.707  53.774 -53.357  1.00  0.00     0.012 A 
BRANCH  25  28
HETATM   28  O   UNL     1     -39.162  51.794 -51.685  1.00  0.00    -0.356 OA
HETATM   29  C   UNL     1     -39.413  50.397 -51.583  1.00  0.00     0.210 C 
ENDBRANCH  25  28
ENDBRANCH   1  22
BRANCH   8  30
HETATM   30  C   UNL     1     -41.437  57.439 -51.542  1.00  0.00     0.409 C 
HETATM   31  F   UNL     1     -40.800  58.609 -51.355  1.00  0.00    -0.169 F 
HETATM   32  F   UNL     1     -41.450  56.789 -50.355  1.00  0.00    -0.169 F 
HETATM   33  F   UNL     1     -40.660  56.689 -52.370  1.00  0.00    -0.169 F 
ENDBRANCH   8  30
TORSDOF 6
ENDMDL
MODEL 4
REMARK VINA RESULT:      -8.2      1.668      2.462
REMARK  6 active torsions:
REMARK  status: ('A' for Active; 'I' for Inactive)
REMARK    1  A    between atoms: O_2  and  C_3 
REMARK    2  A    between atoms: C_6  and  C_7 
REMARK    3  A    between atoms: C_13  and  C_14 
REMARK       I    between atoms: C_14  and  N_15 
REMARK    4  A    between atoms: N_15  and  C_16 
REMARK    5  A    between atoms: C_16  and  C_17 
REMARK    6  A    between atoms: C_24  and  C_25 
ROOT
HETATM    1  C   UNL     1     -43.560  55.863 -53.814  1.00  0.00     0.118 C 
HETATM    2  N   UNL     1     -43.589  56.818 -54.928  1.00  0.00    -0.365 N 
HETATM    3  C   UNL     1     -42.986  58.034 -54.821  1.00  0.00     0.138 A 
HETATM    4  N   UNL     1     -42.584  58.514 -53.597  1.00  0.00    -0.240 N 
HETATM    5  N   UNL     1     -42.052  59.745 -53.639  1.00  0.00    -0.181 NA
HETATM    6  C   UNL     1     -42.011  60.010 -54.947  1.00  0.00     0.160 A 
HETATM    7  C   UNL     1     -42.599  58.993 -55.740  1.00  0.00     0.096 A 
HETATM    8  C   UNL     1     -42.692  57.795 -52.342  1.00  0.00     0.221 C 
HETATM    9  C   UNL     1     -43.680  56.625 -52.481  1.00  0.00     0.066 C 
HETATM   10  H   UNL     1     -43.630  56.354 -55.835  1.00  0.00     0.161 HD
ENDROOT
BRANCH   7  11
HETATM   11  C   UNL     1     -42.694  59.006 -57.184  1.00  0.00     0.257 C 
HETATM   12  N   UNL     1     -43.953  58.808 -57.701  1.00  0.00    -0.352 N 
HETATM   13  H   UNL     1     -44.743  58.776 -57.071  1.00  0.00     0.163 HD
HETATM   14  O   UNL     1     -41.712  59.202 -57.893  1.00  0.00    -0.267 OA
BRANCH  12  15
HETATM   15  C   UNL     1     -44.157  58.762 -59.128  1.00  0.00     0.161 C 
BRANCH  15  16
HETATM   16  C   UNL     1     -44.485  57.381 -59.632  1.00  0.00    -0.041 A 
HETATM   17  C   UNL     1     -43.578  56.322 -59.474  1.00  0.00     0.009 A 
HETATM   18  C   UNL     1     -43.918  55.030 -59.881  1.00  0.00     0.001 A 
HETATM   19  C   UNL     1     -45.171  54.779 -60.436  1.00  0.00     0.000 A 
HETATM   20  C   UNL     1     -46.085  55.820 -60.587  1.00  0.00     0.001 A 
HETATM   21  C   UNL     1     -45.745  57.114 -60.187  1.00  0.00     0.009 A 
ENDBRANCH  15  16
ENDBRANCH  12  15
ENDBRANCH   7  11
BRANCH   1  22
HETATM   22  C   UNL     1     -42.408  54.874 -53.912  1.00  0.00    -0.035 A 
HETATM   23  C   UNL     1     -41.512  54.850 -54.994  1.00  0.00     0.012 A 
HETATM   24  C   UNL     1     -40.479  53.909 -55.068  1.00  0.00     0.037 A 
HETATM   25  C   UNL     1     -40.316  52.964 -54.060  1.00  0.00     0.068 A 
HETATM   26  C   UNL     1     -41.203  52.964 -52.985  1.00  0.00     0.037 A 
HETATM   27  C   UNL     1     -42.240  53.902 -52.912  1.00  0.00     0.012 A 
BRANCH  25  28
HETATM   28  O   UNL     1     -39.350  51.997 -54.014  1.00  0.00    -0.356 OA
HETATM   29  C   UNL     1     -39.612  50.872 -53.183  1.00  0.00     0.210 C 
ENDBRANCH  25  28
ENDBRANCH   1  22
BRANCH   8  30
HETATM   30  C   UNL     1     -41.317  57.382 -51.855  1.00  0.00     0.409 C 
HETATM   31  F   UNL     1     -40.455  57.079 -52.842  1.00  0.00    -0.169 F 
HETATM   32  F   UNL     1     -40.740  58.338 -51.090  1.00  0.00    -0.169 F 
HETATM   33  F   UNL     1     -41.420  56.281 -51.063  1.00  0.00    -0.169 F 
ENDBRANCH   8  30
TORSDOF 6
ENDMDL
MODEL 5
REMARK VINA RESULT:      -7.6     15.959     18.927
REMARK  6 active torsions:
REMARK  status: ('A' for Active; 'I' for Inactive)
REMARK    1  A    between atoms: O_2  and  C_3 
REMARK    2  A    between atoms: C_6  and  C_7 
REMARK    3  A    between atoms: C_13  and  C_14 
REMARK       I    between atoms: C_14  and  N_15 
REMARK    4  A    between atoms: N_15  and  C_16 
REMARK    5  A    between atoms: C_16  and  C_17 
REMARK    6  A    between atoms: C_24  and  C_25 
ROOT
HETATM    1  C   UNL     1     -33.939  38.046 -53.807  1.00  0.00     0.118 C 
HETATM    2  N   UNL     1     -34.767  39.179 -54.237  1.00  0.00    -0.365 N 
HETATM    3  C   UNL     1     -34.850  40.309 -53.483  1.00  0.00     0.138 A 
HETATM    4  N   UNL     1     -34.401  40.322 -52.183  1.00  0.00    -0.240 N 
HETATM    5  N   UNL     1     -34.594  41.488 -51.548  1.00  0.00    -0.181 NA
HETATM    6  C   UNL     1     -35.079  42.277 -52.510  1.00  0.00     0.160 A 
HETATM    7  C   UNL     1     -35.285  41.598 -53.737  1.00  0.00     0.096 A 
HETATM    8  C   UNL     1     -33.761  39.208 -51.511  1.00  0.00     0.221 C 
HETATM    9  C   UNL     1     -34.022  37.901 -52.277  1.00  0.00     0.066 C 
HETATM   10  H   UNL     1     -34.837  39.244 -55.252  1.00  0.00     0.161 HD
ENDROOT
BRANCH   7  11
HETATM   11  C   UNL     1     -35.795  42.197 -54.951  1.00  0.00     0.257 C 
HETATM   12  N   UNL     1     -37.096  41.884 -55.270  1.00  0.00    -0.352 N 
HETATM   13  H   UNL     1     -37.651  41.360 -54.608  1.00  0.00     0.163 HD
HETATM   14  O   UNL     1     -35.111  42.952 -55.635  1.00  0.00    -0.267 OA
BRANCH  12  15
HETATM   15  C   UNL     1     -37.694  42.394 -56.479  1.00  0.00     0.161 C 
BRANCH  15  16
HETATM   16  C   UNL     1     -37.639  41.414 -57.622  1.00  0.00    -0.041 A 
HETATM   17  C   UNL     1     -38.046  40.082 -57.450  1.00  0.00     0.009 A 
HETATM   18  C   UNL     1     -38.059  39.198 -58.531  1.00  0.00     0.001 A 
HETATM   19  C   UNL     1     -37.679  39.638 -59.797  1.00  0.00     0.000 A 
HETATM   20  C   UNL     1     -37.283  40.961 -59.984  1.00  0.00     0.001 A 
HETATM   21  C   UNL     1     -37.264  41.845 -58.903  1.00  0.00     0.009 A 
ENDBRANCH  15  16
ENDBRANCH  12  15
ENDBRANCH   7  11
BRANCH   1  22
HETATM   22  C   UNL     1     -32.535  38.083 -54.394  1.00  0.00    -0.035 A 
HETATM   23  C   UNL     1     -31.565  37.105 -54.116  1.00  0.00     0.012 A 
HETATM   24  C   UNL     1     -30.274  37.183 -54.650  1.00  0.00     0.037 A 
HETATM   25  C   UNL     1     -29.918  38.245 -55.475  1.00  0.00     0.068 A 
HETATM   26  C   UNL     1     -30.863  39.232 -55.752  1.00  0.00     0.037 A 
HETATM   27  C   UNL     1     -32.154  39.158 -55.214  1.00  0.00     0.012 A 
BRANCH  25  28
HETATM   28  O   UNL     1     -28.695  38.434 -56.059  1.00  0.00    -0.356 OA
HETATM   29  C   UNL     1     -27.718  37.425 -55.834  1.00  0.00     0.210 C 
ENDBRANCH  25  28
ENDBRANCH   1  22
BRANCH   8  30
HETATM   30  C   UNL     1     -32.290  39.505 -51.291  1.00  0.00     0.409 C 
HETATM   31  F   UNL     1     -31.740  40.284 -52.241  1.00  0.00    -0.169 F 
HETATM   32  F   UNL     1     -32.063  40.101 -50.097  1.00  0.00    -0.169 F 
HETATM   33  F   UNL     1     -31.582  38.344 -51.269  1.00  0.00    -0.169 F 
ENDBRANCH   8  30
TORSDOF 6
ENDMDL
MODEL 6
REMARK VINA RESULT:      -7.6      4.311      8.538
REMARK  6 active torsions:
REMARK  status: ('A' for Active; 'I' for Inactive)
REMARK    1  A    between atoms: O_2  and  C_3 
REMARK    2  A    between atoms: C_6  and  C_7 
REMARK    3  A    between atoms: C_13  and  C_14 
REMARK       I    between atoms: C_14  and  N_15 
REMARK    4  A    between atoms: N_15  and  C_16 
REMARK    5  A    between atoms: C_16  and  C_17 
REMARK    6  A    between atoms: C_24  and  C_25 
ROOT
HETATM    1  C   UNL     1     -41.657  59.838 -52.769  1.00  0.00     0.118 C 
HETATM    2  N   UNL     1     -41.239  58.442 -52.950  1.00  0.00    -0.365 N 
HETATM    3  C   UNL     1     -42.040  57.417 -52.549  1.00  0.00     0.138 A 
HETATM    4  N   UNL     1     -43.115  57.645 -51.722  1.00  0.00    -0.240 N 
HETATM    5  N   UNL     1     -43.781  56.535 -51.371  1.00  0.00    -0.181 NA
HETATM    6  C   UNL     1     -43.179  55.583 -52.088  1.00  0.00     0.160 A 
HETATM    7  C   UNL     1     -42.069  56.062 -52.829  1.00  0.00     0.096 A 
HETATM    8  C   UNL     1     -43.541  58.947 -51.249  1.00  0.00     0.221 C 
HETATM    9  C   UNL     1     -42.416  59.978 -51.437  1.00  0.00     0.066 C 
HETATM   10  H   UNL     1     -40.633  58.322 -53.760  1.00  0.00     0.161 HD
ENDROOT
BRANCH   7  11
HETATM   11  C   UNL     1     -41.232  55.261 -53.695  1.00  0.00     0.257 C 
HETATM   12  N   UNL     1     -41.481  53.909 -53.684  1.00  0.00    -0.352 N 
HETATM   13  H   UNL     1     -42.283  53.562 -53.175  1.00  0.00     0.163 HD
HETATM   14  O   UNL     1     -40.370  55.767 -54.407  1.00  0.00    -0.267 OA
BRANCH  12  15
HETATM   15  C   UNL     1     -40.680  53.012 -54.479  1.00  0.00     0.161 C 
BRANCH  15  16
HETATM   16  C   UNL     1     -40.171  51.828 -53.699  1.00  0.00    -0.041 A 
HETATM   17  C   UNL     1     -39.912  51.928 -52.324  1.00  0.00     0.009 A 
HETATM   18  C   UNL     1     -39.507  50.808 -51.593  1.00  0.00     0.001 A 
HETATM   19  C   UNL     1     -39.371  49.575 -52.226  1.00  0.00     0.000 A 
HETATM   20  C   UNL     1     -39.636  49.458 -53.589  1.00  0.00     0.001 A 
HETATM   21  C   UNL     1     -40.035  50.578 -54.322  1.00  0.00     0.009 A 
ENDBRANCH  15  16
ENDBRANCH  12  15
ENDBRANCH   7  11
BRANCH   1  22
HETATM   22  C   UNL     1     -42.355  60.410 -53.993  1.00  0.00    -0.035 A 
HETATM   23  C   UNL     1     -42.489  59.698 -55.198  1.00  0.00     0.012 A 
HETATM   24  C   UNL     1     -43.113  60.264 -56.316  1.00  0.00     0.037 A 
HETATM   25  C   UNL     1     -43.617  61.559 -56.260  1.00  0.00     0.068 A 
HETATM   26  C   UNL     1     -43.482  62.285 -55.077  1.00  0.00     0.037 A 
HETATM   27  C   UNL     1     -42.854  61.723 -53.959  1.00  0.00     0.012 A 
BRANCH  25  28
HETATM   28  O   UNL     1     -44.247  62.221 -57.277  1.00  0.00    -0.356 OA
HETATM   29  C   UNL     1     -43.418  62.741 -58.310  1.00  0.00     0.210 C 
ENDBRANCH  25  28
ENDBRANCH   1  22
BRANCH   8  30
HETATM   30  C   UNL     1     -44.849  59.341 -51.908  1.00  0.00     0.409 C 
HETATM   31  F   UNL     1     -44.979  58.901 -53.173  1.00  0.00    -0.169 F 
HETATM   32  F   UNL     1     -45.923  58.901 -51.212  1.00  0.00    -0.169 F 
HETATM   33  F   UNL     1     -44.958  60.697 -51.944  1.00  0.00    -0.169 F 
ENDBRANCH   8  30
TORSDOF 6
ENDMDL
MODEL 7
REMARK VINA RESULT:      -7.5      4.624      7.527
REMARK  6 active torsions:
REMARK  status: ('A' for Active; 'I' for Inactive)
REMARK    1  A    between atoms: O_2  and  C_3 
REMARK    2  A    between atoms: C_6  and  C_7 
REMARK    3  A    between atoms: C_13  and  C_14 
REMARK       I    between atoms: C_14  and  N_15 
REMARK    4  A    between atoms: N_15  and  C_16 
REMARK    5  A    between atoms: C_16  and  C_17 
REMARK    6  A    between atoms: C_24  and  C_25 
ROOT
HETATM    1  C   UNL     1     -40.713  56.017 -53.743  1.00  0.00     0.118 C 
HETATM    2  N   UNL     1     -41.154  57.244 -53.068  1.00  0.00    -0.365 N 
HETATM    3  C   UNL     1     -42.469  57.593 -53.042  1.00  0.00     0.138 A 
HETATM    4  N   UNL     1     -43.377  56.975 -53.870  1.00  0.00    -0.240 N 
HETATM    5  N   UNL     1     -44.625  57.456 -53.770  1.00  0.00    -0.181 NA
HETATM    6  C   UNL     1     -44.531  58.331 -52.766  1.00  0.00     0.160 A 
HETATM    7  C   UNL     1     -43.208  58.481 -52.280  1.00  0.00     0.096 A 
HETATM    8  C   UNL     1     -43.071  55.890 -54.782  1.00  0.00     0.221 C 
HETATM    9  C   UNL     1     -41.554  55.801 -55.014  1.00  0.00     0.066 C 
HETATM   10  H   UNL     1     -40.551  57.493 -52.284  1.00  0.00     0.161 HD
ENDROOT
BRANCH   7  11
HETATM   11  C   UNL     1     -42.806  59.354 -51.199  1.00  0.00     0.257 C 
HETATM   12  N   UNL     1     -43.823  60.036 -50.573  1.00  0.00    -0.352 N 
HETATM   13  H   UNL     1     -44.781  59.819 -50.814  1.00  0.00     0.163 HD
HETATM   14  O   UNL     1     -41.633  59.457 -50.855  1.00  0.00    -0.267 OA
BRANCH  12  15
HETATM   15  C   UNL     1     -43.533  60.964 -49.508  1.00  0.00     0.161 C 
BRANCH  15  16
HETATM   16  C   UNL     1     -44.767  61.428 -48.779  1.00  0.00    -0.041 A 
HETATM   17  C   UNL     1     -44.914  61.213 -47.400  1.00  0.00     0.009 A 
HETATM   18  C   UNL     1     -46.028  61.708 -46.718  1.00  0.00     0.001 A 
HETATM   19  C   UNL     1     -46.999  62.434 -47.404  1.00  0.00     0.000 A 
HETATM   20  C   UNL     1     -46.860  62.665 -48.771  1.00  0.00     0.001 A 
HETATM   21  C   UNL     1     -45.750  62.166 -49.455  1.00  0.00     0.009 A 
ENDBRANCH  15  16
ENDBRANCH  12  15
ENDBRANCH   7  11
BRANCH   1  22
HETATM   22  C   UNL     1     -40.617  54.826 -52.801  1.00  0.00    -0.035 A 
HETATM   23  C   UNL     1     -40.814  54.932 -51.413  1.00  0.00     0.012 A 
HETATM   24  C   UNL     1     -40.691  53.822 -50.570  1.00  0.00     0.037 A 
HETATM   25  C   UNL     1     -40.362  52.575 -51.093  1.00  0.00     0.068 A 
HETATM   26  C   UNL     1     -40.150  52.454 -52.466  1.00  0.00     0.037 A 
HETATM   27  C   UNL     1     -40.269  53.564 -53.311  1.00  0.00     0.012 A 
BRANCH  25  28
HETATM   28  O   UNL     1     -40.215  51.418 -50.380  1.00  0.00    -0.356 OA
HETATM   29  C   UNL     1     -39.619  50.320 -51.061  1.00  0.00     0.210 C 
ENDBRANCH  25  28
ENDBRANCH   1  22
BRANCH   8  30
HETATM   30  C   UNL     1     -43.692  54.598 -54.286  1.00  0.00     0.409 C 
HETATM   31  F   UNL     1     -43.592  54.418 -52.956  1.00  0.00    -0.169 F 
HETATM   32  F   UNL     1     -45.002  54.505 -54.611  1.00  0.00    -0.169 F 
HETATM   33  F   UNL     1     -43.083  53.536 -54.879  1.00  0.00    -0.169 F 
ENDBRANCH   8  30
TORSDOF 6
ENDMDL
MODEL 8
REMARK VINA RESULT:      -7.4     16.465     18.200
REMARK  6 active torsions:
REMARK  status: ('A' for Active; 'I' for Inactive)
REMARK    1  A    between atoms: O_2  and  C_3 
REMARK    2  A    between atoms: C_6  and  C_7 
REMARK    3  A    between atoms: C_13  and  C_14 
REMARK       I    between atoms: C_14  and  N_15 
REMARK    4  A    between atoms: N_15  and  C_16 
REMARK    5  A    between atoms: C_16  and  C_17 
REMARK    6  A    between atoms: C_24  and  C_25 
ROOT
HETATM    1  C   UNL     1     -35.060  41.339 -51.002  1.00  0.00     0.118 C 
HETATM    2  N   UNL     1     -35.106  41.778 -52.403  1.00  0.00    -0.365 N 
HETATM    3  C   UNL     1     -34.347  41.163 -53.351  1.00  0.00     0.138 A 
HETATM    4  N   UNL     1     -33.321  40.319 -52.995  1.00  0.00    -0.240 N 
HETATM    5  N   UNL     1     -32.630  39.828 -54.033  1.00  0.00    -0.181 NA
HETATM    6  C   UNL     1     -33.307  40.285 -55.089  1.00  0.00     0.160 A 
HETATM    7  C   UNL     1     -34.378  41.144 -54.734  1.00  0.00     0.096 A 
HETATM    8  C   UNL     1     -32.980  39.951 -51.634  1.00  0.00     0.221 C 
HETATM    9  C   UNL     1     -33.621  40.931 -50.638  1.00  0.00     0.066 C 
HETATM   10  H   UNL     1     -36.013  42.167 -52.657  1.00  0.00     0.161 HD
ENDROOT
BRANCH   7  11
HETATM   11  C   UNL     1     -35.283  41.782 -55.665  1.00  0.00     0.257 C 
HETATM   12  N   UNL     1     -36.601  41.399 -55.573  1.00  0.00    -0.352 N 
HETATM   13  H   UNL     1     -36.886  40.797 -54.813  1.00  0.00     0.163 HD
HETATM   14  O   UNL     1     -34.895  42.624 -56.468  1.00  0.00    -0.267 OA
BRANCH  12  15
HETATM   15  C   UNL     1     -37.584  41.942 -56.478  1.00  0.00     0.161 C 
BRANCH  15  16
HETATM   16  C   UNL     1     -37.707  41.153 -57.756  1.00  0.00    -0.041 A 
HETATM   17  C   UNL     1     -37.284  41.693 -58.980  1.00  0.00     0.009 A 
HETATM   18  C   UNL     1     -37.337  40.930 -60.149  1.00  0.00     0.001 A 
HETATM   19  C   UNL     1     -37.798  39.617 -60.104  1.00  0.00     0.000 A 
HETATM   20  C   UNL     1     -38.210  39.064 -58.893  1.00  0.00     0.001 A 
HETATM   21  C   UNL     1     -38.163  39.827 -57.725  1.00  0.00     0.009 A 
ENDBRANCH  15  16
ENDBRANCH  12  15
ENDBRANCH   7  11
BRANCH   1  22
HETATM   22  C   UNL     1     -36.142  40.324 -50.665  1.00  0.00    -0.035 A 
HETATM   23  C   UNL     1     -37.121  39.917 -51.588  1.00  0.00     0.012 A 
HETATM   24  C   UNL     1     -38.121  39.001 -51.238  1.00  0.00     0.037 A 
HETATM   25  C   UNL     1     -38.169  38.471 -49.952  1.00  0.00     0.068 A 
HETATM   26  C   UNL     1     -37.213  38.873 -49.020  1.00  0.00     0.037 A 
HETATM   27  C   UNL     1     -36.215  39.792 -49.367  1.00  0.00     0.012 A 
BRANCH  25  28
HETATM   28  O   UNL     1     -39.088  37.571 -49.488  1.00  0.00    -0.356 OA
HETATM   29  C   UNL     1     -40.263  38.109 -48.893  1.00  0.00     0.210 C 
ENDBRANCH  25  28
ENDBRANCH   1  22
BRANCH   8  30
HETATM   30  C   UNL     1     -33.336  38.499 -51.380  1.00  0.00     0.409 C 
HETATM   31  F   UNL     1     -34.425  38.077 -52.050  1.00  0.00    -0.169 F 
HETATM   32  F   UNL     1     -32.319  37.662 -51.690  1.00  0.00    -0.169 F 
HETATM   33  F   UNL     1     -33.585  38.310 -50.056  1.00  0.00    -0.169 F 
ENDBRANCH   8  30
TORSDOF 6
ENDMDL
MODEL 9
REMARK VINA RESULT:      -7.3      3.047      5.311
REMARK  6 active torsions:
REMARK  status: ('A' for Active; 'I' for Inactive)
REMARK    1  A    between atoms: O_2  and  C_3 
REMARK    2  A    between atoms: C_6  and  C_7 
REMARK    3  A    between atoms: C_13  and  C_14 
REMARK       I    between atoms: C_14  and  N_15 
REMARK    4  A    between atoms: N_15  and  C_16 
REMARK    5  A    between atoms: C_16  and  C_17 
REMARK    6  A    between atoms: C_24  and  C_25 
ROOT
HETATM    1  C   UNL     1     -41.627  58.333 -52.863  1.00  0.00     0.118 C 
HETATM    2  N   UNL     1     -41.633  57.993 -54.291  1.00  0.00    -0.365 N 
HETATM    3  C   UNL     1     -41.964  56.739 -54.708  1.00  0.00     0.138 A 
HETATM    4  N   UNL     1     -42.026  55.694 -53.816  1.00  0.00    -0.240 N 
HETATM    5  N   UNL     1     -42.314  54.511 -54.377  1.00  0.00    -0.181 NA
HETATM    6  C   UNL     1     -42.554  54.833 -55.651  1.00  0.00     0.160 A 
HETATM    7  C   UNL     1     -42.332  56.205 -55.930  1.00  0.00     0.096 A 
HETATM    8  C   UNL     1     -41.817  55.806 -52.386  1.00  0.00     0.221 C 
HETATM    9  C   UNL     1     -41.114  57.131 -52.050  1.00  0.00     0.066 C 
HETATM   10  H   UNL     1     -41.855  58.795 -54.880  1.00  0.00     0.161 HD
ENDROOT
BRANCH   7  11
HETATM   11  C   UNL     1     -42.514  56.838 -57.218  1.00  0.00     0.257 C 
HETATM   12  N   UNL     1     -42.689  55.986 -58.283  1.00  0.00    -0.352 N 
HETATM   13  H   UNL     1     -42.792  54.995 -58.107  1.00  0.00     0.163 HD
HETATM   14  O   UNL     1     -42.530  58.059 -57.340  1.00  0.00    -0.267 OA
BRANCH  12  15
HETATM   15  C   UNL     1     -42.840  56.508 -59.619  1.00  0.00     0.161 C 
BRANCH  15  16
HETATM   16  C   UNL     1     -44.279  56.726 -60.006  1.00  0.00    -0.041 A 
HETATM   17  C   UNL     1     -45.137  55.640 -60.237  1.00  0.00     0.009 A 
HETATM   18  C   UNL     1     -46.487  55.850 -60.528  1.00  0.00     0.001 A 
HETATM   19  C   UNL     1     -46.997  57.145 -60.576  1.00  0.00     0.000 A 
HETATM   20  C   UNL     1     -46.159  58.233 -60.338  1.00  0.00     0.001 A 
HETATM   21  C   UNL     1     -44.808  58.025 -60.053  1.00  0.00     0.009 A 
ENDBRANCH  15  16
ENDBRANCH  12  15
ENDBRANCH   7  11
BRANCH   1  22
HETATM   22  C   UNL     1     -42.943  58.938 -52.394  1.00  0.00    -0.035 A 
HETATM   23  C   UNL     1     -44.090  58.991 -53.204  1.00  0.00     0.012 A 
HETATM   24  C   UNL     1     -45.278  59.579 -52.752  1.00  0.00     0.037 A 
HETATM   25  C   UNL     1     -45.347  60.133 -51.478  1.00  0.00     0.068 A 
HETATM   26  C   UNL     1     -44.214  60.101 -50.666  1.00  0.00     0.037 A 
HETATM   27  C   UNL     1     -43.024  59.517 -51.117  1.00  0.00     0.012 A 
BRANCH  25  28
HETATM   28  O   UNL     1     -46.443  60.732 -50.921  1.00  0.00    -0.356 OA
HETATM   29  C   UNL     1     -46.194  61.786 -49.998  1.00  0.00     0.210 C 
ENDBRANCH  25  28
ENDBRANCH   1  22
BRANCH   8  30
HETATM   30  C   UNL     1     -43.126  55.603 -51.648  1.00  0.00     0.409 C 
HETATM   31  F   UNL     1     -43.205  56.268 -50.480  1.00  0.00    -0.169 F 
HETATM   32  F   UNL     1     -44.194  55.966 -52.395  1.00  0.00    -0.169 F 
HETATM   33  F   UNL     1     -43.298  54.283 -51.367  1.00  0.00    -0.169 F 
ENDBRANCH   8  30
TORSDOF 6
ENDMDL
MODEL 10
REMARK VINA RESULT:      -7.2      5.138      8.466
REMARK  6 active torsions:
REMARK  status: ('A' for Active; 'I' for Inactive)
REMARK    1  A    between atoms: O_2  and  C_3 
REMARK    2  A    between atoms: C_6  and  C_7 
REMARK    3  A    between atoms: C_13  and  C_14 
REMARK       I    between atoms: C_14  and  N_15 
REMARK    4  A    between atoms: N_15  and  C_16 
REMARK    5  A    between atoms: C_16  and  C_17 
REMARK    6  A    between atoms: C_24  and  C_25 
ROOT
HETATM    1  C   UNL     1     -41.258  58.078 -53.477  1.00  0.00     0.118 C 
HETATM    2  N   UNL     1     -41.696  59.324 -52.837  1.00  0.00    -0.365 N 
HETATM    3  C   UNL     1     -43.004  59.701 -52.864  1.00  0.00     0.138 A 
HETATM    4  N   UNL     1     -43.895  59.090 -53.715  1.00  0.00    -0.240 N 
HETATM    5  N   UNL     1     -45.135  59.598 -53.668  1.00  0.00    -0.181 NA
HETATM    6  C   UNL     1     -45.058  60.487 -52.675  1.00  0.00     0.160 A 
HETATM    7  C   UNL     1     -43.750  60.617 -52.144  1.00  0.00     0.096 A 
HETATM    8  C   UNL     1     -43.579  57.984 -54.598  1.00  0.00     0.221 C 
HETATM    9  C   UNL     1     -42.057  57.859 -54.774  1.00  0.00     0.066 C 
HETATM   10  H   UNL     1     -41.116  59.573 -52.036  1.00  0.00     0.161 HD
ENDROOT
BRANCH   7  11
HETATM   11  C   UNL     1     -43.369  61.498 -51.062  1.00  0.00     0.257 C 
HETATM   12  N   UNL     1     -44.360  62.327 -50.589  1.00  0.00    -0.352 N 
HETATM   13  H   UNL     1     -45.304  62.207 -50.930  1.00  0.00     0.163 HD
HETATM   14  O   UNL     1     -42.237  61.487 -50.588  1.00  0.00    -0.267 OA
BRANCH  12  15
HETATM   15  C   UNL     1     -44.080  63.274 -49.538  1.00  0.00     0.161 C 
BRANCH  15  16
HETATM   16  C   UNL     1     -44.618  62.844 -48.199  1.00  0.00    -0.041 A 
HETATM   17  C   UNL     1     -44.700  61.485 -47.857  1.00  0.00     0.009 A 
HETATM   18  C   UNL     1     -45.134  61.096 -46.588  1.00  0.00     0.001 A 
HETATM   19  C   UNL     1     -45.477  62.060 -45.643  1.00  0.00     0.000 A 
HETATM   20  C   UNL     1     -45.389  63.413 -45.964  1.00  0.00     0.001 A 
HETATM   21  C   UNL     1     -44.961  63.803 -47.235  1.00  0.00     0.009 A 
ENDBRANCH  15  16
ENDBRANCH  12  15
ENDBRANCH   7  11
BRANCH   1  22
HETATM   22  C   UNL     1     -41.222  56.900 -52.514  1.00  0.00    -0.035 A 
HETATM   23  C   UNL     1     -41.046  55.572 -52.938  1.00  0.00     0.012 A 
HETATM   24  C   UNL     1     -41.045  54.507 -52.029  1.00  0.00     0.037 A 
HETATM   25  C   UNL     1     -41.223  54.744 -50.670  1.00  0.00     0.068 A 
HETATM   26  C   UNL     1     -41.411  56.055 -50.232  1.00  0.00     0.037 A 
HETATM   27  C   UNL     1     -41.417  57.120 -51.140  1.00  0.00     0.012 A 
BRANCH  25  28
HETATM   28  O   UNL     1     -41.239  53.796 -49.684  1.00  0.00    -0.356 OA
HETATM   29  C   UNL     1     -40.630  54.150 -48.448  1.00  0.00     0.210 C 
ENDBRANCH  25  28
ENDBRANCH   1  22
BRANCH   8  30
HETATM   30  C   UNL     1     -44.245  56.714 -54.106  1.00  0.00     0.409 C 
HETATM   31  F   UNL     1     -43.650  55.584 -54.530  1.00  0.00    -0.169 F 
HETATM   32  F   UNL     1     -44.304  56.660 -52.755  1.00  0.00    -0.169 F 
HETATM   33  F   UNL     1     -45.535  56.671 -54.538  1.00  0.00    -0.169 F 
ENDBRANCH   8  30
TORSDOF 6
ENDMDL
