MODEL 1
REMARK VINA RESULT:      -8.1      0.000      0.000
REMARK  5 active torsions:
REMARK  status: ('A' for Active; 'I' for Inactive)
REMARK    1  A    between atoms: C_6  and  N_7 
REMARK       I    between atoms: N_7  and  C_8 
REMARK    2  A    between atoms: C_8  and  C_9 
REMARK    3  A    between atoms: C_9  and  C_10 
REMARK    4  A    between atoms: C_12  and  O_13 
REMARK    5  A    between atoms: C_19  and  C_20 
ROOT
HETATM    1  C   UNL     1     -40.049  50.000 -54.649  1.00  0.00     0.073 C 
HETATM    2  C   UNL     1     -39.865  50.801 -53.413  1.00  0.00     0.065 A 
HETATM    3  N   UNL     1     -39.224  50.272 -52.364  1.00  0.00    -0.177 NA
HETATM    4  N   UNL     1     -39.233  51.256 -51.449  1.00  0.00    -0.262 N 
HETATM    5  H   UNL     1     -38.778  51.113 -50.552  1.00  0.00     0.191 HD
HETATM    6  C   UNL     1     -39.895  52.388 -51.857  1.00  0.00     0.137 A 
HETATM    7  C   UNL     1     -40.291  52.136 -53.156  1.00  0.00     0.046 A 
ENDROOT
BRANCH   6   8
HETATM    8  N   UNL     1     -40.071  53.506 -51.061  1.00  0.00    -0.311 N 
HETATM    9  C   UNL     1     -40.483  53.414 -49.741  1.00  0.00     0.227 C 
HETATM   10  O   UNL     1     -40.682  52.352 -49.151  1.00  0.00    -0.273 OA
HETATM   11  H   UNL     1     -39.840  54.411 -51.455  1.00  0.00     0.170 HD
BRANCH   9  12
HETATM   12  C   UNL     1     -40.744  54.759 -49.093  1.00  0.00     0.141 C 
BRANCH  12  13
HETATM   13  C   UNL     1     -41.520  55.786 -49.889  1.00  0.00    -0.047 A 
HETATM   14  C   UNL     1     -40.987  57.014 -50.320  1.00  0.00     0.044 A 
HETATM   15  C   UNL     1     -41.726  57.868 -51.146  1.00  0.00     0.068 A 
HETATM   16  C   UNL     1     -43.021  57.512 -51.521  1.00  0.00     0.037 A 
HETATM   17  C   UNL     1     -43.572  56.306 -51.097  1.00  0.00     0.003 A 
HETATM   18  C   UNL     1     -42.822  55.445 -50.297  1.00  0.00     0.007 A 
BRANCH  15  19
HETATM   19  O   UNL     1     -41.296  59.066 -51.648  1.00  0.00    -0.356 OA
HETATM   20  C   UNL     1     -40.982  59.110 -53.034  1.00  0.00     0.210 C 
ENDBRANCH  15  19
ENDBRANCH  12  13
ENDBRANCH   9  12
ENDBRANCH   6   8
BRANCH   7  21
HETATM   21  C   UNL     1     -40.922  53.104 -54.029  1.00  0.00    -0.020 A 
HETATM   22  C   UNL     1     -40.152  53.770 -54.991  1.00  0.00     0.014 A 
HETATM   23  C   UNL     1     -40.735  54.729 -55.822  1.00  0.00     0.020 A 
HETATM   24  C   UNL     1     -42.090  55.023 -55.689  1.00  0.00     0.011 A 
HETATM   25 BR   UNL     1     -42.878  56.330 -56.805  1.00  0.00    -0.051 Br
HETATM   26  C   UNL     1     -42.869  54.363 -54.741  1.00  0.00     0.020 A 
HETATM   27  C   UNL     1     -42.287  53.399 -53.912  1.00  0.00     0.014 A 
ENDBRANCH   7  21
TORSDOF 5
ENDMDL
MODEL 2
REMARK VINA RESULT:      -8.0      1.228      1.770
REMARK  5 active torsions:
REMARK  status: ('A' for Active; 'I' for Inactive)
REMARK    1  A    between atoms: C_6  and  N_7 
REMARK       I    between atoms: N_7  and  C_8 
REMARK    2  A    between atoms: C_8  and  C_9 
REMARK    3  A    between atoms: C_9  and  C_10 
REMARK    4  A    between atoms: C_12  and  O_13 
REMARK    5  A    between atoms: C_19  and  C_20 
ROOT
HETATM    1  C   UNL     1     -40.152  50.164 -54.458  1.00  0.00     0.073 C 
HETATM    2  C   UNL     1     -40.005  51.053 -53.278  1.00  0.00     0.065 A 
HETATM    3  N   UNL     1     -39.394  50.603 -52.175  1.00  0.00    -0.177 NA
HETATM    4  N   UNL     1     -39.432  51.651 -51.334  1.00  0.00    -0.262 N 
HETATM    5  H   UNL     1     -39.003  51.575 -50.416  1.00  0.00     0.191 HD
HETATM    6  C   UNL     1     -40.083  52.747 -51.842  1.00  0.00     0.137 A 
HETATM    7  C   UNL     1     -40.441  52.401 -53.130  1.00  0.00     0.046 A 
ENDROOT
BRANCH   6   8
HETATM    8  N   UNL     1     -40.285  53.919 -51.134  1.00  0.00    -0.311 N 
HETATM    9  C   UNL     1     -41.550  54.347 -50.761  1.00  0.00     0.227 C 
HETATM   10  O   UNL     1     -42.585  53.716 -50.978  1.00  0.00    -0.273 OA
HETATM   11  H   UNL     1     -39.470  54.446 -50.844  1.00  0.00     0.170 HD
BRANCH   9  12
HETATM   12  C   UNL     1     -41.560  55.718 -50.116  1.00  0.00     0.141 C 
BRANCH  12  13
HETATM   13  C   UNL     1     -41.319  56.918 -51.007  1.00  0.00    -0.047 A 
HETATM   14  C   UNL     1     -41.668  56.971 -52.368  1.00  0.00     0.044 A 
HETATM   15  C   UNL     1     -41.516  58.151 -53.103  1.00  0.00     0.068 A 
HETATM   16  C   UNL     1     -40.980  59.282 -52.487  1.00  0.00     0.037 A 
HETATM   17  C   UNL     1     -40.619  59.249 -51.143  1.00  0.00     0.003 A 
HETATM   18  C   UNL     1     -40.798  58.079 -50.406  1.00  0.00     0.007 A 
BRANCH  15  19
HETATM   19  O   UNL     1     -41.851  58.324 -54.418  1.00  0.00    -0.356 OA
HETATM   20  C   UNL     1     -41.988  59.662 -54.878  1.00  0.00     0.210 C 
ENDBRANCH  15  19
ENDBRANCH  12  13
ENDBRANCH   9  12
ENDBRANCH   6   8
BRANCH   7  21
HETATM   21  C   UNL     1     -41.049  53.301 -54.088  1.00  0.00    -0.020 A 
HETATM   22  C   UNL     1     -40.272  54.306 -54.680  1.00  0.00     0.014 A 
HETATM   23  C   UNL     1     -40.845  55.203 -55.582  1.00  0.00     0.020 A 
HETATM   24  C   UNL     1     -42.198  55.096 -55.895  1.00  0.00     0.011 A 
HETATM   25 BR   UNL     1     -42.979  56.317 -57.108  1.00  0.00    -0.051 Br
HETATM   26  C   UNL     1     -42.981  54.096 -55.319  1.00  0.00     0.020 A 
HETATM   27  C   UNL     1     -42.406  53.195 -54.419  1.00  0.00     0.014 A 
ENDBRANCH   7  21
TORSDOF 5
ENDMDL
MODEL 3
REMARK VINA RESULT:      -7.6      3.294      6.869
REMARK  5 active torsions:
REMARK  status: ('A' for Active; 'I' for Inactive)
REMARK    1  A    between atoms: C_6  and  N_7 
REMARK       I    between atoms: N_7  and  C_8 
REMARK    2  A    between atoms: C_8  and  C_9 
REMARK    3  A    between atoms: C_9  and  C_10 
REMARK    4  A    between atoms: C_12  and  O_13 
REMARK    5  A    between atoms: C_19  and  C_20 
ROOT
HETATM    1  C   UNL     1     -44.504  58.724 -51.531  1.00  0.00     0.073 C 
HETATM    2  C   UNL     1     -43.741  58.113 -52.649  1.00  0.00     0.065 A 
HETATM    3  N   UNL     1     -43.880  58.590 -53.892  1.00  0.00    -0.177 NA
HETATM    4  N   UNL     1     -43.055  57.825 -54.626  1.00  0.00    -0.262 N 
HETATM    5  H   UNL     1     -42.956  58.004 -55.622  1.00  0.00     0.191 HD
HETATM    6  C   UNL     1     -42.421  56.843 -53.908  1.00  0.00     0.137 A 
HETATM    7  C   UNL     1     -42.822  57.026 -52.599  1.00  0.00     0.046 A 
ENDROOT
BRANCH   6   8
HETATM    8  N   UNL     1     -41.567  55.909 -54.466  1.00  0.00    -0.311 N 
HETATM    9  C   UNL     1     -41.965  54.607 -54.725  1.00  0.00     0.227 C 
HETATM   10  O   UNL     1     -43.103  54.180 -54.530  1.00  0.00    -0.273 OA
HETATM   11  H   UNL     1     -40.639  56.215 -54.736  1.00  0.00     0.170 HD
BRANCH   9  12
HETATM   12  C   UNL     1     -40.840  53.714 -55.209  1.00  0.00     0.141 C 
BRANCH  12  13
HETATM   13  C   UNL     1     -40.336  52.641 -54.268  1.00  0.00    -0.047 A 
HETATM   14  C   UNL     1     -40.290  52.779 -52.869  1.00  0.00     0.044 A 
HETATM   15  C   UNL     1     -39.917  51.706 -52.054  1.00  0.00     0.068 A 
HETATM   16  C   UNL     1     -39.552  50.492 -52.636  1.00  0.00     0.037 A 
HETATM   17  C   UNL     1     -39.581  50.337 -54.019  1.00  0.00     0.003 A 
HETATM   18  C   UNL     1     -39.981  51.400 -54.828  1.00  0.00     0.007 A 
BRANCH  15  19
HETATM   19  O   UNL     1     -39.867  51.719 -50.686  1.00  0.00    -0.356 OA
HETATM   20  C   UNL     1     -40.250  50.525 -50.016  1.00  0.00     0.210 C 
ENDBRANCH  15  19
ENDBRANCH  12  13
ENDBRANCH   9  12
ENDBRANCH   6   8
BRANCH   7  21
HETATM   21  C   UNL     1     -42.305  56.286 -51.466  1.00  0.00    -0.020 A 
HETATM   22  C   UNL     1     -41.184  56.770 -50.779  1.00  0.00     0.014 A 
HETATM   23  C   UNL     1     -40.651  56.056 -49.703  1.00  0.00     0.020 A 
HETATM   24  C   UNL     1     -41.241  54.856 -49.315  1.00  0.00     0.011 A 
HETATM   25 BR   UNL     1     -40.514  53.882 -47.866  1.00  0.00    -0.051 Br
HETATM   26  C   UNL     1     -42.361  54.366 -49.985  1.00  0.00     0.020 A 
HETATM   27  C   UNL     1     -42.897  55.084 -51.058  1.00  0.00     0.014 A 
ENDBRANCH   7  21
TORSDOF 5
ENDMDL
MODEL 4
REMARK VINA RESULT:      -7.5      3.726      6.467
REMARK  5 active torsions:
REMARK  status: ('A' for Active; 'I' for Inactive)
REMARK    1  A    between atoms: C_6  and  N_7 
REMARK       I    between atoms: N_7  and  C_8 
REMARK    2  A    between atoms: C_8  and  C_9 
REMARK    3  A    between atoms: C_9  and  C_10 
REMARK    4  A    between atoms: C_12  and  O_13 
REMARK    5  A    between atoms: C_19  and  C_20 
ROOT
HETATM    1  C   UNL     1     -45.234  59.148 -56.025  1.00  0.00     0.073 C 
HETATM    2  C   UNL     1     -44.305  58.032 -56.335  1.00  0.00     0.065 A 
HETATM    3  N   UNL     1     -44.419  57.371 -57.494  1.00  0.00    -0.177 NA
HETATM    4  N   UNL     1     -43.434  56.458 -57.443  1.00  0.00    -0.262 N 
HETATM    5  H   UNL     1     -43.288  55.832 -58.230  1.00  0.00     0.191 HD
HETATM    6  C   UNL     1     -42.716  56.480 -56.274  1.00  0.00     0.137 A 
HETATM    7  C   UNL     1     -43.238  57.526 -55.539  1.00  0.00     0.046 A 
ENDROOT
BRANCH   6   8
HETATM    8  N   UNL     1     -41.689  55.599 -55.984  1.00  0.00    -0.311 N 
HETATM    9  C   UNL     1     -41.925  54.344 -55.444  1.00  0.00     0.227 C 
HETATM   10  O   UNL     1     -43.047  53.887 -55.220  1.00  0.00    -0.273 OA
HETATM   11  H   UNL     1     -40.744  55.873 -56.226  1.00  0.00     0.170 HD
BRANCH   9  12
HETATM   12  C   UNL     1     -40.660  53.594 -55.077  1.00  0.00     0.141 C 
BRANCH  12  13
HETATM   13  C   UNL     1     -40.411  53.307 -53.612  1.00  0.00    -0.047 A 
HETATM   14  C   UNL     1     -40.761  54.181 -52.568  1.00  0.00     0.044 A 
HETATM   15  C   UNL     1     -40.601  53.803 -51.230  1.00  0.00     0.068 A 
HETATM   16  C   UNL     1     -40.054  52.556 -50.928  1.00  0.00     0.037 A 
HETATM   17  C   UNL     1     -39.692  51.679 -51.947  1.00  0.00     0.003 A 
HETATM   18  C   UNL     1     -39.879  52.048 -53.278  1.00  0.00     0.007 A 
BRANCH  15  19
HETATM   19  O   UNL     1     -40.936  54.558 -50.139  1.00  0.00    -0.356 OA
HETATM   20  C   UNL     1     -40.440  54.125 -48.879  1.00  0.00     0.210 C 
ENDBRANCH  15  19
ENDBRANCH  12  13
ENDBRANCH   9  12
ENDBRANCH   6   8
BRANCH   7  21
HETATM   21  C   UNL     1     -42.703  57.997 -54.278  1.00  0.00    -0.020 A 
HETATM   22  C   UNL     1     -41.874  59.126 -54.259  1.00  0.00     0.014 A 
HETATM   23  C   UNL     1     -41.324  59.578 -53.058  1.00  0.00     0.020 A 
HETATM   24  C   UNL     1     -41.602  58.899 -51.874  1.00  0.00     0.011 A 
HETATM   25 BR   UNL     1     -40.848  59.503 -50.249  1.00  0.00    -0.051 Br
HETATM   26  C   UNL     1     -42.431  57.778 -51.878  1.00  0.00     0.020 A 
HETATM   27  C   UNL     1     -42.986  57.329 -53.079  1.00  0.00     0.014 A 
ENDBRANCH   7  21
TORSDOF 5
ENDMDL
MODEL 5
REMARK VINA RESULT:      -7.4      3.825      6.958
REMARK  5 active torsions:
REMARK  status: ('A' for Active; 'I' for Inactive)
REMARK    1  A    between atoms: C_6  and  N_7 
REMARK       I    between atoms: N_7  and  C_8 
REMARK    2  A    between atoms: C_8  and  C_9 
REMARK    3  A    between atoms: C_9  and  C_10 
REMARK    4  A    between atoms: C_12  and  O_13 
REMARK    5  A    between atoms: C_19  and  C_20 
ROOT
HETATM    1  C   UNL     1     -45.250  59.457 -55.996  1.00  0.00     0.073 C 
HETATM    2  C   UNL     1     -44.400  58.297 -56.364  1.00  0.00     0.065 A 
HETATM    3  N   UNL     1     -44.591  57.674 -57.534  1.00  0.00    -0.177 NA
HETATM    4  N   UNL     1     -43.662  56.703 -57.539  1.00  0.00    -0.262 N 
HETATM    5  H   UNL     1     -43.579  56.090 -58.345  1.00  0.00     0.191 HD
HETATM    6  C   UNL     1     -42.907  56.651 -56.394  1.00  0.00     0.137 A 
HETATM    7  C   UNL     1     -43.342  57.707 -55.616  1.00  0.00     0.046 A 
ENDROOT
BRANCH   6   8
HETATM    8  N   UNL     1     -41.928  55.702 -56.159  1.00  0.00    -0.311 N 
HETATM    9  C   UNL     1     -42.174  54.555 -55.421  1.00  0.00     0.227 C 
HETATM   10  O   UNL     1     -43.273  54.256 -54.953  1.00  0.00    -0.273 OA
HETATM   11  H   UNL     1     -41.021  55.839 -56.589  1.00  0.00     0.170 HD
BRANCH   9  12
HETATM   12  C   UNL     1     -40.935  53.720 -55.169  1.00  0.00     0.141 C 
BRANCH  12  13
HETATM   13  C   UNL     1     -40.638  53.312 -53.741  1.00  0.00    -0.047 A 
HETATM   14  C   UNL     1     -40.123  52.056 -53.372  1.00  0.00     0.044 A 
HETATM   15  C   UNL     1     -39.769  51.787 -52.046  1.00  0.00     0.068 A 
HETATM   16  C   UNL     1     -39.960  52.764 -51.070  1.00  0.00     0.037 A 
HETATM   17  C   UNL     1     -40.477  54.011 -51.412  1.00  0.00     0.003 A 
HETATM   18  C   UNL     1     -40.802  54.286 -52.740  1.00  0.00     0.007 A 
BRANCH  15  19
HETATM   19  O   UNL     1     -39.234  50.616 -51.583  1.00  0.00    -0.356 OA
HETATM   20  C   UNL     1     -39.592  49.425 -52.272  1.00  0.00     0.210 C 
ENDBRANCH  15  19
ENDBRANCH  12  13
ENDBRANCH   9  12
ENDBRANCH   6   8
BRANCH   7  21
HETATM   21  C   UNL     1     -42.740  58.111 -54.363  1.00  0.00    -0.020 A 
HETATM   22  C   UNL     1     -43.154  57.504 -53.170  1.00  0.00     0.014 A 
HETATM   23  C   UNL     1     -42.608  57.901 -51.948  1.00  0.00     0.020 A 
HETATM   24  C   UNL     1     -41.647  58.908 -51.918  1.00  0.00     0.011 A 
HETATM   25 BR   UNL     1     -40.916  59.456 -50.263  1.00  0.00    -0.051 Br
HETATM   26  C   UNL     1     -41.220  59.516 -53.098  1.00  0.00     0.020 A 
HETATM   27  C   UNL     1     -41.763  59.115 -54.322  1.00  0.00     0.014 A 
ENDBRANCH   7  21
TORSDOF 5
ENDMDL
MODEL 6
REMARK VINA RESULT:      -7.3      3.202      6.373
REMARK  5 active torsions:
REMARK  status: ('A' for Active; 'I' for Inactive)
REMARK    1  A    between atoms: C_6  and  N_7 
REMARK       I    between atoms: N_7  and  C_8 
REMARK    2  A    between atoms: C_8  and  C_9 
REMARK    3  A    between atoms: C_9  and  C_10 
REMARK    4  A    between atoms: C_12  and  O_13 
REMARK    5  A    between atoms: C_19  and  C_20 
ROOT
HETATM    1  C   UNL     1     -45.952  60.364 -52.438  1.00  0.00     0.073 C 
HETATM    2  C   UNL     1     -45.377  59.158 -51.789  1.00  0.00     0.065 A 
HETATM    3  N   UNL     1     -45.705  58.858 -50.527  1.00  0.00    -0.177 NA
HETATM    4  N   UNL     1     -45.026  57.727 -50.276  1.00  0.00    -0.262 N 
HETATM    5  H   UNL     1     -45.124  57.270 -49.373  1.00  0.00     0.191 HD
HETATM    6  C   UNL     1     -44.237  57.309 -51.319  1.00  0.00     0.137 A 
HETATM    7  C   UNL     1     -44.472  58.207 -52.342  1.00  0.00     0.046 A 
ENDROOT
BRANCH   6   8
HETATM    8  N   UNL     1     -43.414  56.198 -51.266  1.00  0.00    -0.311 N 
HETATM    9  C   UNL     1     -42.068  56.292 -50.946  1.00  0.00     0.227 C 
HETATM   10  O   UNL     1     -41.502  57.342 -50.641  1.00  0.00    -0.273 OA
HETATM   11  H   UNL     1     -43.833  55.288 -51.419  1.00  0.00     0.170 HD
BRANCH   9  12
HETATM   12  C   UNL     1     -41.322  54.980 -51.078  1.00  0.00     0.141 C 
BRANCH  12  13
HETATM   13  C   UNL     1     -40.940  54.522 -52.469  1.00  0.00    -0.047 A 
HETATM   14  C   UNL     1     -40.702  53.181 -52.819  1.00  0.00     0.044 A 
HETATM   15  C   UNL     1     -40.461  52.818 -54.148  1.00  0.00     0.068 A 
HETATM   16  C   UNL     1     -40.422  53.802 -55.136  1.00  0.00     0.037 A 
HETATM   17  C   UNL     1     -40.645  55.137 -54.809  1.00  0.00     0.003 A 
HETATM   18  C   UNL     1     -40.913  55.492 -53.488  1.00  0.00     0.007 A 
BRANCH  15  19
HETATM   19  O   UNL     1     -40.249  51.545 -54.604  1.00  0.00    -0.356 OA
HETATM   20  C   UNL     1     -39.484  50.681 -53.773  1.00  0.00     0.210 C 
ENDBRANCH  15  19
ENDBRANCH  12  13
ENDBRANCH   9  12
ENDBRANCH   6   8
BRANCH   7  21
HETATM   21  C   UNL     1     -43.940  58.087 -53.684  1.00  0.00    -0.020 A 
HETATM   22  C   UNL     1     -42.750  58.747 -54.016  1.00  0.00     0.014 A 
HETATM   23  C   UNL     1     -42.237  58.669 -55.312  1.00  0.00     0.020 A 
HETATM   24  C   UNL     1     -42.916  57.931 -56.278  1.00  0.00     0.011 A 
HETATM   25 BR   UNL     1     -42.229  57.834 -58.037  1.00  0.00    -0.051 Br
HETATM   26  C   UNL     1     -44.097  57.263 -55.959  1.00  0.00     0.020 A 
HETATM   27  C   UNL     1     -44.608  57.337 -54.660  1.00  0.00     0.014 A 
ENDBRANCH   7  21
TORSDOF 5
ENDMDL
MODEL 7
REMARK VINA RESULT:      -7.3      2.071      2.711
REMARK  5 active torsions:
REMARK  status: ('A' for Active; 'I' for Inactive)
REMARK    1  A    between atoms: C_6  and  N_7 
REMARK       I    between atoms: N_7  and  C_8 
REMARK    2  A    between atoms: C_8  and  C_9 
REMARK    3  A    between atoms: C_9  and  C_10 
REMARK    4  A    between atoms: C_12  and  O_13 
REMARK    5  A    between atoms: C_19  and  C_20 
ROOT
HETATM    1  C   UNL     1     -39.533  51.290 -53.827  1.00  0.00     0.073 C 
HETATM    2  C   UNL     1     -40.060  52.131 -52.723  1.00  0.00     0.065 A 
HETATM    3  N   UNL     1     -39.726  51.856 -51.456  1.00  0.00    -0.177 NA
HETATM    4  N   UNL     1     -40.359  52.802 -50.742  1.00  0.00    -0.262 N 
HETATM    5  H   UNL     1     -40.246  52.830 -49.732  1.00  0.00     0.191 HD
HETATM    6  C   UNL     1     -41.123  53.652 -51.500  1.00  0.00     0.137 A 
HETATM    7  C   UNL     1     -40.921  53.262 -52.810  1.00  0.00     0.046 A 
ENDROOT
BRANCH   6   8
HETATM    8  N   UNL     1     -41.899  54.669 -50.973  1.00  0.00    -0.311 N 
HETATM    9  C   UNL     1     -43.283  54.604 -50.949  1.00  0.00     0.227 C 
HETATM   10  O   UNL     1     -43.937  53.638 -51.344  1.00  0.00    -0.273 OA
HETATM   11  H   UNL     1     -41.424  55.458 -50.548  1.00  0.00     0.170 HD
BRANCH   9  12
HETATM   12  C   UNL     1     -43.941  55.877 -50.454  1.00  0.00     0.141 C 
BRANCH  12  13
HETATM   13  C   UNL     1     -44.279  56.940 -51.478  1.00  0.00    -0.047 A 
HETATM   14  C   UNL     1     -44.899  58.163 -51.167  1.00  0.00     0.044 A 
HETATM   15  C   UNL     1     -45.082  59.144 -52.147  1.00  0.00     0.068 A 
HETATM   16  C   UNL     1     -44.676  58.894 -53.458  1.00  0.00     0.037 A 
HETATM   17  C   UNL     1     -44.069  57.686 -53.789  1.00  0.00     0.003 A 
HETATM   18  C   UNL     1     -43.863  56.721 -52.804  1.00  0.00     0.007 A 
BRANCH  15  19
HETATM   19  O   UNL     1     -45.643  60.377 -51.950  1.00  0.00    -0.356 OA
HETATM   20  C   UNL     1     -44.766  61.431 -51.574  1.00  0.00     0.210 C 
ENDBRANCH  15  19
ENDBRANCH  12  13
ENDBRANCH   9  12
ENDBRANCH   6   8
BRANCH   7  21
HETATM   21  C   UNL     1     -41.440  53.959 -53.969  1.00  0.00    -0.020 A 
HETATM   22  C   UNL     1     -40.819  55.140 -54.399  1.00  0.00     0.014 A 
HETATM   23  C   UNL     1     -41.322  55.843 -55.495  1.00  0.00     0.020 A 
HETATM   24  C   UNL     1     -42.448  55.366 -56.162  1.00  0.00     0.011 A 
HETATM   25 BR   UNL     1     -43.137  56.324 -57.639  1.00  0.00    -0.051 Br
HETATM   26  C   UNL     1     -43.071  54.189 -55.749  1.00  0.00     0.020 A 
HETATM   27  C   UNL     1     -42.564  53.483 -54.654  1.00  0.00     0.014 A 
ENDBRANCH   7  21
TORSDOF 5
ENDMDL
MODEL 8
REMARK VINA RESULT:      -7.3      2.855      6.386
REMARK  5 active torsions:
REMARK  status: ('A' for Active; 'I' for Inactive)
REMARK    1  A    between atoms: C_6  and  N_7 
REMARK       I    between atoms: N_7  and  C_8 
REMARK    2  A    between atoms: C_8  and  C_9 
REMARK    3  A    between atoms: C_9  and  C_10 
REMARK    4  A    between atoms: C_12  and  O_13 
REMARK    5  A    between atoms: C_19  and  C_20 
ROOT
HETATM    1  C   UNL     1     -43.429  61.412 -52.201  1.00  0.00     0.073 C 
HETATM    2  C   UNL     1     -42.691  60.307 -51.538  1.00  0.00     0.065 A 
HETATM    3  N   UNL     1     -42.324  60.424 -50.256  1.00  0.00    -0.177 NA
HETATM    4  N   UNL     1     -41.703  59.263 -49.989  1.00  0.00    -0.262 N 
HETATM    5  H   UNL     1     -41.343  59.088 -49.055  1.00  0.00     0.191 HD
HETATM    6  C   UNL     1     -41.618  58.418 -51.067  1.00  0.00     0.137 A 
HETATM    7  C   UNL     1     -42.289  59.057 -52.091  1.00  0.00     0.046 A 
ENDROOT
BRANCH   6   8
HETATM    8  N   UNL     1     -40.978  57.192 -51.037  1.00  0.00    -0.311 N 
HETATM    9  C   UNL     1     -41.649  56.018 -50.730  1.00  0.00     0.227 C 
HETATM   10  O   UNL     1     -42.858  55.950 -50.507  1.00  0.00    -0.273 OA
HETATM   11  H   UNL     1     -40.000  57.159 -51.297  1.00  0.00     0.170 HD
BRANCH   9  12
HETATM   12  C   UNL     1     -40.738  54.812 -50.618  1.00  0.00     0.141 C 
BRANCH  12  13
HETATM   13  C   UNL     1     -40.558  53.948 -51.849  1.00  0.00    -0.047 A 
HETATM   14  C   UNL     1     -40.044  52.640 -51.824  1.00  0.00     0.044 A 
HETATM   15  C   UNL     1     -40.008  51.859 -52.984  1.00  0.00     0.068 A 
HETATM   16  C   UNL     1     -40.456  52.398 -54.190  1.00  0.00     0.037 A 
HETATM   17  C   UNL     1     -40.960  53.694 -54.239  1.00  0.00     0.003 A 
HETATM   18  C   UNL     1     -41.021  54.459 -53.075  1.00  0.00     0.007 A 
BRANCH  15  19
HETATM   19  O   UNL     1     -39.559  50.570 -53.068  1.00  0.00    -0.356 OA
HETATM   20  C   UNL     1     -39.642  49.940 -54.340  1.00  0.00     0.210 C 
ENDBRANCH  15  19
ENDBRANCH  12  13
ENDBRANCH   9  12
ENDBRANCH   6   8
BRANCH   7  21
HETATM   21  C   UNL     1     -42.558  58.477 -53.391  1.00  0.00    -0.020 A 
HETATM   22  C   UNL     1     -43.560  57.506 -53.519  1.00  0.00     0.014 A 
HETATM   23  C   UNL     1     -43.814  56.913 -54.757  1.00  0.00     0.020 A 
HETATM   24  C   UNL     1     -43.064  57.290 -55.869  1.00  0.00     0.011 A 
HETATM   25 BR   UNL     1     -43.399  56.479 -57.543  1.00  0.00    -0.051 Br
HETATM   26  C   UNL     1     -42.069  58.260 -55.756  1.00  0.00     0.020 A 
HETATM   27  C   UNL     1     -41.818  58.858 -54.518  1.00  0.00     0.014 A 
ENDBRANCH   7  21
TORSDOF 5
ENDMDL
MODEL 9
REMARK VINA RESULT:      -7.2      5.028      7.397
REMARK  5 active torsions:
REMARK  status: ('A' for Active; 'I' for Inactive)
REMARK    1  A    between atoms: C_6  and  N_7 
REMARK       I    between atoms: N_7  and  C_8 
REMARK    2  A    between atoms: C_8  and  C_9 
REMARK    3  A    between atoms: C_9  and  C_10 
REMARK    4  A    between atoms: C_12  and  O_13 
REMARK    5  A    between atoms: C_19  and  C_20 
ROOT
HETATM    1  C   UNL     1     -45.892  56.479 -60.783  1.00  0.00     0.073 C 
HETATM    2  C   UNL     1     -44.939  55.887 -59.811  1.00  0.00     0.065 A 
HETATM    3  N   UNL     1     -45.014  54.585 -59.510  1.00  0.00    -0.177 NA
HETATM    4  N   UNL     1     -44.018  54.398 -58.628  1.00  0.00    -0.262 N 
HETATM    5  H   UNL     1     -43.843  53.469 -58.255  1.00  0.00     0.191 HD
HETATM    6  C   UNL     1     -43.330  55.545 -58.316  1.00  0.00     0.137 A 
HETATM    7  C   UNL     1     -43.886  56.534 -59.103  1.00  0.00     0.046 A 
ENDROOT
BRANCH   6   8
HETATM    8  N   UNL     1     -42.300  55.598 -57.395  1.00  0.00    -0.311 N 
HETATM    9  C   UNL     1     -42.371  54.952 -56.171  1.00  0.00     0.227 C 
HETATM   10  O   UNL     1     -43.316  54.247 -55.814  1.00  0.00    -0.273 OA
HETATM   11  H   UNL     1     -41.452  56.087 -57.658  1.00  0.00     0.170 HD
BRANCH   9  12
HETATM   12  C   UNL     1     -41.197  55.249 -55.260  1.00  0.00     0.141 C 
BRANCH  12  13
HETATM   13  C   UNL     1     -40.867  54.239 -54.181  1.00  0.00    -0.047 A 
HETATM   14  C   UNL     1     -40.328  52.965 -54.435  1.00  0.00     0.044 A 
HETATM   15  C   UNL     1     -39.945  52.125 -53.384  1.00  0.00     0.068 A 
HETATM   16  C   UNL     1     -40.132  52.542 -52.066  1.00  0.00     0.037 A 
HETATM   17  C   UNL     1     -40.672  53.796 -51.793  1.00  0.00     0.003 A 
HETATM   18  C   UNL     1     -41.027  54.641 -52.843  1.00  0.00     0.007 A 
BRANCH  15  19
HETATM   19  O   UNL     1     -39.384  50.884 -53.514  1.00  0.00    -0.356 OA
HETATM   20  C   UNL     1     -39.901  50.048 -54.542  1.00  0.00     0.210 C 
ENDBRANCH  15  19
ENDBRANCH  12  13
ENDBRANCH   9  12
ENDBRANCH   6   8
BRANCH   7  21
HETATM   21  C   UNL     1     -43.390  57.892 -59.194  1.00  0.00    -0.020 A 
HETATM   22  C   UNL     1     -42.549  58.250 -60.256  1.00  0.00     0.014 A 
HETATM   23  C   UNL     1     -42.036  59.545 -60.345  1.00  0.00     0.020 A 
HETATM   24  C   UNL     1     -42.364  60.485 -59.370  1.00  0.00     0.011 A 
HETATM   25 BR   UNL     1     -41.660  62.236 -59.483  1.00  0.00    -0.051 Br
HETATM   26  C   UNL     1     -43.205  60.144 -58.312  1.00  0.00     0.020 A 
HETATM   27  C   UNL     1     -43.723  58.849 -58.226  1.00  0.00     0.014 A 
ENDBRANCH   7  21
TORSDOF 5
ENDMDL
MODEL 10
REMARK VINA RESULT:      -7.2     14.119     16.325
REMARK  5 active torsions:
REMARK  status: ('A' for Active; 'I' for Inactive)
REMARK    1  A    between atoms: C_6  and  N_7 
REMARK       I    between atoms: N_7  and  C_8 
REMARK    2  A    between atoms: C_8  and  C_9 
REMARK    3  A    between atoms: C_9  and  C_10 
REMARK    4  A    between atoms: C_12  and  O_13 
REMARK    5  A    between atoms: C_19  and  C_20 
ROOT
HETATM    1  C   UNL     1     -38.181  40.649 -57.645  1.00  0.00     0.073 C 
HETATM    2  C   UNL     1     -38.034  40.849 -56.181  1.00  0.00     0.065 A 
HETATM    3  N   UNL     1     -39.092  41.219 -55.448  1.00  0.00    -0.177 NA
HETATM    4  N   UNL     1     -38.608  41.295 -54.197  1.00  0.00    -0.262 N 
HETATM    5  H   UNL     1     -39.230  41.538 -53.431  1.00  0.00     0.191 HD
HETATM    6  C   UNL     1     -37.265  41.027 -54.104  1.00  0.00     0.137 A 
HETATM    7  C   UNL     1     -36.864  40.696 -55.383  1.00  0.00     0.046 A 
ENDROOT
BRANCH   6   8
HETATM    8  N   UNL     1     -36.547  41.094 -52.923  1.00  0.00    -0.311 N 
HETATM    9  C   UNL     1     -35.667  42.131 -52.653  1.00  0.00     0.227 C 
HETATM   10  O   UNL     1     -35.481  43.092 -53.400  1.00  0.00    -0.273 OA
HETATM   11  H   UNL     1     -36.716  40.382 -52.222  1.00  0.00     0.170 HD
BRANCH   9  12
HETATM   12  C   UNL     1     -34.884  41.942 -51.370  1.00  0.00     0.141 C 
BRANCH  12  13
HETATM   13  C   UNL     1     -33.746  40.943 -51.379  1.00  0.00    -0.047 A 
HETATM   14  C   UNL     1     -33.156  40.412 -50.218  1.00  0.00     0.044 A 
HETATM   15  C   UNL     1     -32.183  39.410 -50.301  1.00  0.00     0.068 A 
HETATM   16  C   UNL     1     -31.767  38.955 -51.553  1.00  0.00     0.037 A 
HETATM   17  C   UNL     1     -32.332  39.475 -52.715  1.00  0.00     0.003 A 
HETATM   18  C   UNL     1     -33.322  40.453 -52.627  1.00  0.00     0.007 A 
BRANCH  15  19
HETATM   19  O   UNL     1     -31.566  38.803 -49.242  1.00  0.00    -0.356 OA
HETATM   20  C   UNL     1     -31.497  39.539 -48.027  1.00  0.00     0.210 C 
ENDBRANCH  15  19
ENDBRANCH  12  13
ENDBRANCH   9  12
ENDBRANCH   6   8
BRANCH   7  21
HETATM   21  C   UNL     1     -35.543  40.221 -55.738  1.00  0.00    -0.020 A 
HETATM   22  C   UNL     1     -35.251  38.854 -55.641  1.00  0.00     0.014 A 
HETATM   23  C   UNL     1     -33.975  38.380 -55.949  1.00  0.00     0.020 A 
HETATM   24  C   UNL     1     -32.987  39.275 -56.353  1.00  0.00     0.011 A 
HETATM   25 BR   UNL     1     -31.254  38.636 -56.758  1.00  0.00    -0.051 Br
HETATM   26  C   UNL     1     -33.265  40.637 -56.460  1.00  0.00     0.020 A 
HETATM   27  C   UNL     1     -34.545  41.110 -56.157  1.00  0.00     0.014 A 
ENDBRANCH   7  21
TORSDOF 5
ENDMDL
