MODEL 1
REMARK VINA RESULT:      -8.2      0.000      0.000
REMARK  5 active torsions:
REMARK  status: ('A' for Active; 'I' for Inactive)
REMARK    1  A    between atoms: O_2  and  C_3 
REMARK    2  A    between atoms: C_4  and  O_5 
REMARK    3  A    between atoms: C_10  and  C_11 
REMARK    4  A    between atoms: C_13  and  O_14 
REMARK    5  A    between atoms: O_14  and  C_15 
ROOT
HETATM    1  C   UNL     1     -43.616  56.845 -57.397  1.00  0.00     0.102 A 
HETATM    2  C   UNL     1     -44.559  57.876 -57.208  1.00  0.00     0.103 A 
HETATM    3  C   UNL     1     -44.459  58.708 -56.087  1.00  0.00     0.069 A 
HETATM    4  C   UNL     1     -43.419  58.530 -55.174  1.00  0.00     0.044 A 
HETATM    5  C   UNL     1     -42.476  57.515 -55.354  1.00  0.00    -0.020 A 
HETATM    6  C   UNL     1     -41.397  57.288 -54.318  1.00  0.00     0.063 C 
HETATM    7  C   UNL     1     -41.079  58.572 -53.546  1.00  0.00     0.117 C 
HETATM    8  C   UNL     1     -42.305  59.361 -53.159  1.00  0.00     0.223 C 
HETATM    9  O   UNL     1     -42.341  60.068 -52.153  1.00  0.00    -0.273 OA
HETATM   10  N   UNL     1     -43.343  59.357 -54.050  1.00  0.00    -0.327 N 
HETATM   11  C   UNL     1     -42.581  56.674 -56.472  1.00  0.00     0.049 A 
HETATM   12  H   UNL     1     -44.104  59.989 -53.833  1.00  0.00     0.169 HD
ENDROOT
BRANCH   6  13
HETATM   13  C   UNL     1     -41.692  56.123 -53.380  1.00  0.00    -0.046 A 
HETATM   14  C   UNL     1     -40.671  55.298 -52.883  1.00  0.00     0.045 A 
HETATM   15  C   UNL     1     -40.973  54.159 -52.129  1.00  0.00     0.076 A 
HETATM   16  C   UNL     1     -42.293  53.888 -51.778  1.00  0.00     0.037 A 
HETATM   17  C   UNL     1     -43.317  54.720 -52.228  1.00  0.00     0.003 A 
HETATM   18  C   UNL     1     -43.021  55.821 -53.035  1.00  0.00     0.008 A 
BRANCH  15  19
HETATM   19  O   UNL     1     -40.018  53.286 -51.657  1.00  0.00    -0.311 OA
BRANCH  19  20
HETATM   20  C   UNL     1     -39.901  52.049 -52.253  1.00  0.00     0.076 A 
HETATM   21  C   UNL     1     -40.021  52.018 -53.644  1.00  0.00     0.037 A 
HETATM   22  C   UNL     1     -39.915  50.807 -54.330  1.00  0.00     0.003 A 
HETATM   23  C   UNL     1     -39.684  49.625 -53.625  1.00  0.00     0.000 A 
HETATM   24  C   UNL     1     -39.536  49.656 -52.239  1.00  0.00     0.003 A 
HETATM   25  C   UNL     1     -39.621  50.870 -51.555  1.00  0.00     0.037 A 
ENDBRANCH  19  20
ENDBRANCH  15  19
ENDBRANCH   6  13
BRANCH   1  26
HETATM   26  O   UNL     1     -43.776  56.071 -58.520  1.00  0.00    -0.353 OA
HETATM   27  C   UNL     1     -42.756  56.146 -59.505  1.00  0.00     0.210 C 
ENDBRANCH   1  26
BRANCH   2  28
HETATM   28  O   UNL     1     -45.535  57.979 -58.168  1.00  0.00    -0.353 OA
HETATM   29  C   UNL     1     -46.884  58.072 -57.735  1.00  0.00     0.210 C 
ENDBRANCH   2  28
TORSDOF 5
ENDMDL
MODEL 2
REMARK VINA RESULT:      -8.2      2.513      2.846
REMARK  5 active torsions:
REMARK  status: ('A' for Active; 'I' for Inactive)
REMARK    1  A    between atoms: O_2  and  C_3 
REMARK    2  A    between atoms: C_4  and  O_5 
REMARK    3  A    between atoms: C_10  and  C_11 
REMARK    4  A    between atoms: C_13  and  O_14 
REMARK    5  A    between atoms: O_14  and  C_15 
ROOT
HETATM    1  C   UNL     1     -42.454  59.975 -55.540  1.00  0.00     0.102 A 
HETATM    2  C   UNL     1     -43.768  60.444 -55.335  1.00  0.00     0.103 A 
HETATM    3  C   UNL     1     -44.535  59.917 -54.289  1.00  0.00     0.069 A 
HETATM    4  C   UNL     1     -43.991  58.951 -53.442  1.00  0.00     0.044 A 
HETATM    5  C   UNL     1     -42.689  58.483 -53.633  1.00  0.00    -0.020 A 
HETATM    6  C   UNL     1     -42.140  57.383 -52.750  1.00  0.00     0.063 C 
HETATM    7  C   UNL     1     -42.821  57.368 -51.379  1.00  0.00     0.117 C 
HETATM    8  C   UNL     1     -44.315  57.569 -51.447  1.00  0.00     0.223 C 
HETATM    9  O   UNL     1     -45.081  57.089 -50.614  1.00  0.00    -0.273 OA
HETATM   10  N   UNL     1     -44.775  58.422 -52.412  1.00  0.00    -0.327 N 
HETATM   11  C   UNL     1     -41.923  59.002 -54.687  1.00  0.00     0.049 A 
HETATM   12  H   UNL     1     -45.763  58.641 -52.363  1.00  0.00     0.169 HD
ENDROOT
BRANCH   6  13
HETATM   13  C   UNL     1     -42.165  56.008 -53.410  1.00  0.00    -0.046 A 
HETATM   14  C   UNL     1     -41.019  55.200 -53.474  1.00  0.00     0.045 A 
HETATM   15  C   UNL     1     -41.028  54.001 -54.194  1.00  0.00     0.076 A 
HETATM   16  C   UNL     1     -42.211  53.546 -54.772  1.00  0.00     0.037 A 
HETATM   17  C   UNL     1     -43.370  54.316 -54.681  1.00  0.00     0.003 A 
HETATM   18  C   UNL     1     -43.343  55.545 -54.018  1.00  0.00     0.008 A 
BRANCH  15  19
HETATM   19  O   UNL     1     -39.922  53.192 -54.335  1.00  0.00    -0.311 OA
BRANCH  19  20
HETATM   20  C   UNL     1     -39.839  52.046 -53.574  1.00  0.00     0.076 A 
HETATM   21  C   UNL     1     -39.857  50.836 -54.274  1.00  0.00     0.037 A 
HETATM   22  C   UNL     1     -39.777  49.626 -53.582  1.00  0.00     0.003 A 
HETATM   23  C   UNL     1     -39.674  49.624 -52.191  1.00  0.00     0.000 A 
HETATM   24  C   UNL     1     -39.628  50.830 -51.492  1.00  0.00     0.003 A 
HETATM   25  C   UNL     1     -39.687  52.041 -52.184  1.00  0.00     0.037 A 
ENDBRANCH  19  20
ENDBRANCH  15  19
ENDBRANCH   6  13
BRANCH   1  26
HETATM   26  O   UNL     1     -41.762  60.539 -56.584  1.00  0.00    -0.353 OA
HETATM   27  C   UNL     1     -41.680  59.784 -57.785  1.00  0.00     0.210 C 
ENDBRANCH   1  26
BRANCH   2  28
HETATM   28  O   UNL     1     -44.205  61.404 -56.213  1.00  0.00    -0.353 OA
HETATM   29  C   UNL     1     -44.501  62.692 -55.693  1.00  0.00     0.210 C 
ENDBRANCH   2  28
TORSDOF 5
ENDMDL
MODEL 3
REMARK VINA RESULT:      -8.1      2.578      4.450
REMARK  5 active torsions:
REMARK  status: ('A' for Active; 'I' for Inactive)
REMARK    1  A    between atoms: O_2  and  C_3 
REMARK    2  A    between atoms: C_4  and  O_5 
REMARK    3  A    between atoms: C_10  and  C_11 
REMARK    4  A    between atoms: C_13  and  O_14 
REMARK    5  A    between atoms: O_14  and  C_15 
ROOT
HETATM    1  C   UNL     1     -43.656  59.212 -51.604  1.00  0.00     0.102 A 
HETATM    2  C   UNL     1     -43.128  59.726 -52.805  1.00  0.00     0.103 A 
HETATM    3  C   UNL     1     -42.654  58.847 -53.785  1.00  0.00     0.069 A 
HETATM    4  C   UNL     1     -42.725  57.469 -53.582  1.00  0.00     0.044 A 
HETATM    5  C   UNL     1     -43.252  56.947 -52.397  1.00  0.00    -0.020 A 
HETATM    6  C   UNL     1     -43.256  55.452 -52.161  1.00  0.00     0.063 C 
HETATM    7  C   UNL     1     -43.281  54.674 -53.480  1.00  0.00     0.117 C 
HETATM    8  C   UNL     1     -42.362  55.242 -54.532  1.00  0.00     0.223 C 
HETATM    9  O   UNL     1     -41.839  54.540 -55.396  1.00  0.00    -0.273 OA
HETATM   10  N   UNL     1     -42.232  56.603 -54.563  1.00  0.00    -0.327 N 
HETATM   11  C   UNL     1     -43.717  57.827 -51.410  1.00  0.00     0.049 A 
HETATM   12  H   UNL     1     -41.712  56.972 -55.350  1.00  0.00     0.169 HD
ENDROOT
BRANCH   6  13
HETATM   13  C   UNL     1     -42.130  54.980 -51.248  1.00  0.00    -0.046 A 
HETATM   14  C   UNL     1     -41.125  54.112 -51.703  1.00  0.00     0.045 A 
HETATM   15  C   UNL     1     -40.176  53.589 -50.819  1.00  0.00     0.076 A 
HETATM   16  C   UNL     1     -40.159  54.007 -49.490  1.00  0.00     0.037 A 
HETATM   17  C   UNL     1     -41.124  54.902 -49.031  1.00  0.00     0.003 A 
HETATM   18  C   UNL     1     -42.111  55.374 -49.899  1.00  0.00     0.008 A 
BRANCH  15  19
HETATM   19  O   UNL     1     -39.198  52.695 -51.196  1.00  0.00    -0.311 OA
BRANCH  19  20
HETATM   20  C   UNL     1     -39.487  51.775 -52.180  1.00  0.00     0.076 A 
HETATM   21  C   UNL     1     -39.431  50.430 -51.806  1.00  0.00     0.037 A 
HETATM   22  C   UNL     1     -39.709  49.431 -52.740  1.00  0.00     0.003 A 
HETATM   23  C   UNL     1     -40.049  49.775 -54.049  1.00  0.00     0.000 A 
HETATM   24  C   UNL     1     -40.133  51.116 -54.418  1.00  0.00     0.003 A 
HETATM   25  C   UNL     1     -39.875  52.117 -53.479  1.00  0.00     0.037 A 
ENDBRANCH  19  20
ENDBRANCH  15  19
ENDBRANCH   6  13
BRANCH   1  26
HETATM   26  O   UNL     1     -44.103  60.134 -50.690  1.00  0.00    -0.353 OA
HETATM   27  C   UNL     1     -45.412  59.946 -50.172  1.00  0.00     0.210 C 
ENDBRANCH   1  26
BRANCH   2  28
HETATM   28  O   UNL     1     -43.114  61.095 -52.916  1.00  0.00    -0.353 OA
HETATM   29  C   UNL     1     -44.068  61.700 -53.776  1.00  0.00     0.210 C 
ENDBRANCH   2  28
TORSDOF 5
ENDMDL
MODEL 4
REMARK VINA RESULT:      -8.0      3.741      4.919
REMARK  5 active torsions:
REMARK  status: ('A' for Active; 'I' for Inactive)
REMARK    1  A    between atoms: O_2  and  C_3 
REMARK    2  A    between atoms: C_4  and  O_5 
REMARK    3  A    between atoms: C_10  and  C_11 
REMARK    4  A    between atoms: C_13  and  O_14 
REMARK    5  A    between atoms: O_14  and  C_15 
ROOT
HETATM    1  C   UNL     1     -45.072  59.965 -50.888  1.00  0.00     0.102 A 
HETATM    2  C   UNL     1     -44.424  60.827 -49.981  1.00  0.00     0.103 A 
HETATM    3  C   UNL     1     -43.030  60.784 -49.861  1.00  0.00     0.069 A 
HETATM    4  C   UNL     1     -42.287  59.907 -50.652  1.00  0.00     0.044 A 
HETATM    5  C   UNL     1     -42.918  59.052 -51.559  1.00  0.00    -0.020 A 
HETATM    6  C   UNL     1     -42.105  58.057 -52.357  1.00  0.00     0.063 C 
HETATM    7  C   UNL     1     -40.663  58.535 -52.553  1.00  0.00     0.117 C 
HETATM    8  C   UNL     1     -40.057  59.143 -51.312  1.00  0.00     0.223 C 
HETATM    9  O   UNL     1     -38.850  59.096 -51.081  1.00  0.00    -0.273 OA
HETATM   10  N   UNL     1     -40.897  59.863 -50.509  1.00  0.00    -0.327 N 
HETATM   11  C   UNL     1     -44.316  59.087 -51.672  1.00  0.00     0.049 A 
HETATM   12  H   UNL     1     -40.449  60.365 -49.751  1.00  0.00     0.169 HD
ENDROOT
BRANCH   6  13
HETATM   13  C   UNL     1     -42.159  56.640 -51.795  1.00  0.00    -0.046 A 
HETATM   14  C   UNL     1     -41.014  55.831 -51.724  1.00  0.00     0.045 A 
HETATM   15  C   UNL     1     -41.107  54.493 -51.326  1.00  0.00     0.076 A 
HETATM   16  C   UNL     1     -42.329  53.978 -50.898  1.00  0.00     0.037 A 
HETATM   17  C   UNL     1     -43.468  54.781 -50.923  1.00  0.00     0.003 A 
HETATM   18  C   UNL     1     -43.387  56.098 -51.382  1.00  0.00     0.008 A 
BRANCH  15  19
HETATM   19  O   UNL     1     -40.029  53.637 -51.284  1.00  0.00    -0.311 OA
BRANCH  19  20
HETATM   20  C   UNL     1     -39.998  52.568 -52.153  1.00  0.00     0.076 A 
HETATM   21  C   UNL     1     -40.370  52.834 -53.473  1.00  0.00     0.037 A 
HETATM   22  C   UNL     1     -40.368  51.809 -54.421  1.00  0.00     0.003 A 
HETATM   23  C   UNL     1     -39.989  50.518 -54.052  1.00  0.00     0.000 A 
HETATM   24  C   UNL     1     -39.590  50.257 -52.742  1.00  0.00     0.003 A 
HETATM   25  C   UNL     1     -39.572  51.285 -51.798  1.00  0.00     0.037 A 
ENDBRANCH  19  20
ENDBRANCH  15  19
ENDBRANCH   6  13
BRANCH   1  26
HETATM   26  O   UNL     1     -46.440  60.065 -50.953  1.00  0.00    -0.353 OA
HETATM   27  C   UNL     1     -46.985  60.755 -52.068  1.00  0.00     0.210 C 
ENDBRANCH   1  26
BRANCH   2  28
HETATM   28  O   UNL     1     -45.241  61.661 -49.259  1.00  0.00    -0.353 OA
HETATM   29  C   UNL     1     -45.098  61.669 -47.846  1.00  0.00     0.210 C 
ENDBRANCH   2  28
TORSDOF 5
ENDMDL
MODEL 5
REMARK VINA RESULT:      -7.8      2.904      4.257
REMARK  5 active torsions:
REMARK  status: ('A' for Active; 'I' for Inactive)
REMARK    1  A    between atoms: O_2  and  C_3 
REMARK    2  A    between atoms: C_4  and  O_5 
REMARK    3  A    between atoms: C_10  and  C_11 
REMARK    4  A    between atoms: C_13  and  O_14 
REMARK    5  A    between atoms: O_14  and  C_15 
ROOT
HETATM    1  C   UNL     1     -43.211  59.882 -52.436  1.00  0.00     0.102 A 
HETATM    2  C   UNL     1     -44.553  59.807 -52.016  1.00  0.00     0.103 A 
HETATM    3  C   UNL     1     -45.044  58.613 -51.475  1.00  0.00     0.069 A 
HETATM    4  C   UNL     1     -44.200  57.511 -51.335  1.00  0.00     0.044 A 
HETATM    5  C   UNL     1     -42.865  57.575 -51.743  1.00  0.00    -0.020 A 
HETATM    6  C   UNL     1     -41.983  56.349 -51.651  1.00  0.00     0.063 C 
HETATM    7  C   UNL     1     -42.455  55.396 -50.549  1.00  0.00     0.117 C 
HETATM    8  C   UNL     1     -43.953  55.220 -50.508  1.00  0.00     0.223 C 
HETATM    9  O   UNL     1     -44.481  54.181 -50.115  1.00  0.00    -0.273 OA
HETATM   10  N   UNL     1     -44.709  56.319 -50.810  1.00  0.00    -0.327 N 
HETATM   11  C   UNL     1     -42.376  58.768 -52.295  1.00  0.00     0.049 A 
HETATM   12  H   UNL     1     -45.704  56.217 -50.656  1.00  0.00     0.169 HD
ENDROOT
BRANCH   6  13
HETATM   13  C   UNL     1     -41.804  55.629 -52.983  1.00  0.00    -0.046 A 
HETATM   14  C   UNL     1     -40.897  54.568 -53.133  1.00  0.00     0.045 A 
HETATM   15  C   UNL     1     -40.655  54.006 -54.390  1.00  0.00     0.076 A 
HETATM   16  C   UNL     1     -41.390  54.429 -55.495  1.00  0.00     0.037 A 
HETATM   17  C   UNL     1     -42.326  55.453 -55.356  1.00  0.00     0.003 A 
HETATM   18  C   UNL     1     -42.521  56.059 -54.112  1.00  0.00     0.008 A 
BRANCH  15  19
HETATM   19  O   UNL     1     -39.741  52.999 -54.608  1.00  0.00    -0.311 OA
BRANCH  19  20
HETATM   20  C   UNL     1     -39.719  51.926 -53.742  1.00  0.00     0.076 A 
HETATM   21  C   UNL     1     -39.834  50.661 -54.322  1.00  0.00     0.037 A 
HETATM   22  C   UNL     1     -39.821  49.519 -53.519  1.00  0.00     0.003 A 
HETATM   23  C   UNL     1     -39.688  49.641 -52.135  1.00  0.00     0.000 A 
HETATM   24  C   UNL     1     -39.544  50.901 -51.557  1.00  0.00     0.003 A 
HETATM   25  C   UNL     1     -39.536  52.042 -52.361  1.00  0.00     0.037 A 
ENDBRANCH  19  20
ENDBRANCH  15  19
ENDBRANCH   6  13
BRANCH   1  26
HETATM   26  O   UNL     1     -42.800  61.085 -52.954  1.00  0.00    -0.353 OA
HETATM   27  C   UNL     1     -42.787  61.208 -54.369  1.00  0.00     0.210 C 
ENDBRANCH   1  26
BRANCH   2  28
HETATM   28  O   UNL     1     -45.298  60.948 -52.183  1.00  0.00    -0.353 OA
HETATM   29  C   UNL     1     -46.713  60.824 -52.173  1.00  0.00     0.210 C 
ENDBRANCH   2  28
TORSDOF 5
ENDMDL
MODEL 6
REMARK VINA RESULT:      -7.8      2.157      3.073
REMARK  5 active torsions:
REMARK  status: ('A' for Active; 'I' for Inactive)
REMARK    1  A    between atoms: O_2  and  C_3 
REMARK    2  A    between atoms: C_4  and  O_5 
REMARK    3  A    between atoms: C_10  and  C_11 
REMARK    4  A    between atoms: C_13  and  O_14 
REMARK    5  A    between atoms: O_14  and  C_15 
ROOT
HETATM    1  C   UNL     1     -44.658  59.063 -53.942  1.00  0.00     0.102 A 
HETATM    2  C   UNL     1     -45.087  59.986 -52.967  1.00  0.00     0.103 A 
HETATM    3  C   UNL     1     -44.319  60.181 -51.813  1.00  0.00     0.069 A 
HETATM    4  C   UNL     1     -43.124  59.480 -51.643  1.00  0.00     0.044 A 
HETATM    5  C   UNL     1     -42.687  58.567 -52.605  1.00  0.00    -0.020 A 
HETATM    6  C   UNL     1     -41.426  57.763 -52.371  1.00  0.00     0.063 C 
HETATM    7  C   UNL     1     -40.457  58.492 -51.436  1.00  0.00     0.117 C 
HETATM    8  C   UNL     1     -41.136  59.143 -50.255  1.00  0.00     0.223 C 
HETATM    9  O   UNL     1     -40.568  59.297 -49.175  1.00  0.00    -0.273 OA
HETATM   10  N   UNL     1     -42.377  59.672 -50.476  1.00  0.00    -0.327 N 
HETATM   11  C   UNL     1     -43.461  58.363 -53.756  1.00  0.00     0.049 A 
HETATM   12  H   UNL     1     -42.761  60.212 -49.710  1.00  0.00     0.169 HD
ENDROOT
BRANCH   6  13
HETATM   13  C   UNL     1     -41.696  56.336 -51.905  1.00  0.00    -0.046 A 
HETATM   14  C   UNL     1     -40.654  55.419 -51.694  1.00  0.00     0.045 A 
HETATM   15  C   UNL     1     -40.927  54.082 -51.391  1.00  0.00     0.076 A 
HETATM   16  C   UNL     1     -42.244  53.668 -51.197  1.00  0.00     0.037 A 
HETATM   17  C   UNL     1     -43.288  54.576 -51.360  1.00  0.00     0.003 A 
HETATM   18  C   UNL     1     -43.018  55.896 -51.727  1.00  0.00     0.008 A 
BRANCH  15  19
HETATM   19  O   UNL     1     -39.950  53.126 -51.224  1.00  0.00    -0.311 OA
BRANCH  19  20
HETATM   20  C   UNL     1     -39.921  52.050 -52.084  1.00  0.00     0.076 A 
HETATM   21  C   UNL     1     -40.182  52.326 -53.429  1.00  0.00     0.037 A 
HETATM   22  C   UNL     1     -40.173  51.294 -54.369  1.00  0.00     0.003 A 
HETATM   23  C   UNL     1     -39.900  49.986 -53.968  1.00  0.00     0.000 A 
HETATM   24  C   UNL     1     -39.612  49.713 -52.631  1.00  0.00     0.003 A 
HETATM   25  C   UNL     1     -39.600  50.746 -51.693  1.00  0.00     0.037 A 
ENDBRANCH  19  20
ENDBRANCH  15  19
ENDBRANCH   6  13
BRANCH   1  26
HETATM   26  O   UNL     1     -45.461  58.926 -55.048  1.00  0.00    -0.353 OA
HETATM   27  C   UNL     1     -45.021  58.030 -56.058  1.00  0.00     0.210 C 
ENDBRANCH   1  26
BRANCH   2  28
HETATM   28  O   UNL     1     -46.267  60.634 -53.234  1.00  0.00    -0.353 OA
HETATM   29  C   UNL     1     -46.967  61.214 -52.143  1.00  0.00     0.210 C 
ENDBRANCH   2  28
TORSDOF 5
ENDMDL
MODEL 7
REMARK VINA RESULT:      -7.7      2.860      6.322
REMARK  5 active torsions:
REMARK  status: ('A' for Active; 'I' for Inactive)
REMARK    1  A    between atoms: O_2  and  C_3 
REMARK    2  A    between atoms: C_4  and  O_5 
REMARK    3  A    between atoms: C_10  and  C_11 
REMARK    4  A    between atoms: C_13  and  O_14 
REMARK    5  A    between atoms: O_14  and  C_15 
ROOT
HETATM    1  C   UNL     1     -43.275  59.646 -51.699  1.00  0.00     0.102 A 
HETATM    2  C   UNL     1     -44.611  59.441 -51.299  1.00  0.00     0.103 A 
HETATM    3  C   UNL     1     -45.054  58.146 -51.005  1.00  0.00     0.069 A 
HETATM    4  C   UNL     1     -44.170  57.069 -51.088  1.00  0.00     0.044 A 
HETATM    5  C   UNL     1     -42.843  57.262 -51.478  1.00  0.00    -0.020 A 
HETATM    6  C   UNL     1     -41.917  56.075 -51.633  1.00  0.00     0.063 C 
HETATM    7  C   UNL     1     -42.345  54.905 -50.741  1.00  0.00     0.117 C 
HETATM    8  C   UNL     1     -43.836  54.670 -50.733  1.00  0.00     0.223 C 
HETATM    9  O   UNL     1     -44.323  53.556 -50.553  1.00  0.00    -0.273 OA
HETATM   10  N   UNL     1     -44.632  55.779 -50.809  1.00  0.00    -0.327 N 
HETATM   11  C   UNL     1     -42.400  58.557 -51.783  1.00  0.00     0.049 A 
HETATM   12  H   UNL     1     -45.622  55.612 -50.677  1.00  0.00     0.169 HD
ENDROOT
BRANCH   6  13
HETATM   13  C   UNL     1     -41.725  55.640 -53.082  1.00  0.00    -0.046 A 
HETATM   14  C   UNL     1     -42.623  56.022 -54.091  1.00  0.00     0.045 A 
HETATM   15  C   UNL     1     -42.503  55.510 -55.387  1.00  0.00     0.076 A 
HETATM   16  C   UNL     1     -41.425  54.689 -55.713  1.00  0.00     0.037 A 
HETATM   17  C   UNL     1     -40.501  54.334 -54.733  1.00  0.00     0.003 A 
HETATM   18  C   UNL     1     -40.657  54.794 -53.423  1.00  0.00     0.008 A 
BRANCH  15  19
HETATM   19  O   UNL     1     -43.381  55.807 -56.406  1.00  0.00    -0.311 OA
BRANCH  19  20
HETATM   20  C   UNL     1     -42.901  56.446 -57.528  1.00  0.00     0.076 A 
HETATM   21  C   UNL     1     -43.026  55.754 -58.735  1.00  0.00     0.037 A 
HETATM   22  C   UNL     1     -42.566  56.327 -59.922  1.00  0.00     0.003 A 
HETATM   23  C   UNL     1     -41.985  57.595 -59.905  1.00  0.00     0.000 A 
HETATM   24  C   UNL     1     -41.885  58.300 -58.706  1.00  0.00     0.003 A 
HETATM   25  C   UNL     1     -42.363  57.737 -57.522  1.00  0.00     0.037 A 
ENDBRANCH  19  20
ENDBRANCH  15  19
ENDBRANCH   6  13
BRANCH   1  26
HETATM   26  O   UNL     1     -42.911  60.943 -51.968  1.00  0.00    -0.353 OA
HETATM   27  C   UNL     1     -42.759  61.299 -53.334  1.00  0.00     0.210 C 
ENDBRANCH   1  26
BRANCH   2  28
HETATM   28  O   UNL     1     -45.397  60.565 -51.235  1.00  0.00    -0.353 OA
HETATM   29  C   UNL     1     -46.475  60.672 -52.152  1.00  0.00     0.210 C 
ENDBRANCH   2  28
TORSDOF 5
ENDMDL
MODEL 8
REMARK VINA RESULT:      -7.6      4.323      8.915
REMARK  5 active torsions:
REMARK  status: ('A' for Active; 'I' for Inactive)
REMARK    1  A    between atoms: O_2  and  C_3 
REMARK    2  A    between atoms: C_4  and  O_5 
REMARK    3  A    between atoms: C_10  and  C_11 
REMARK    4  A    between atoms: C_13  and  O_14 
REMARK    5  A    between atoms: O_14  and  C_15 
ROOT
HETATM    1  C   UNL     1     -41.485  55.056 -50.035  1.00  0.00     0.102 A 
HETATM    2  C   UNL     1     -41.317  54.414 -51.278  1.00  0.00     0.103 A 
HETATM    3  C   UNL     1     -41.240  55.178 -52.448  1.00  0.00     0.069 A 
HETATM    4  C   UNL     1     -41.306  56.571 -52.378  1.00  0.00     0.044 A 
HETATM    5  C   UNL     1     -41.467  57.218 -51.151  1.00  0.00    -0.020 A 
HETATM    6  C   UNL     1     -41.611  58.724 -51.099  1.00  0.00     0.063 C 
HETATM    7  C   UNL     1     -40.929  59.396 -52.295  1.00  0.00     0.117 C 
HETATM    8  C   UNL     1     -41.172  58.685 -53.604  1.00  0.00     0.223 C 
HETATM    9  O   UNL     1     -41.193  59.280 -54.680  1.00  0.00    -0.273 OA
HETATM   10  N   UNL     1     -41.245  57.321 -53.556  1.00  0.00    -0.327 N 
HETATM   11  C   UNL     1     -41.556  56.452 -49.979  1.00  0.00     0.049 A 
HETATM   12  H   UNL     1     -41.283  56.856 -54.456  1.00  0.00     0.169 HD
ENDROOT
BRANCH   6  13
HETATM   13  C   UNL     1     -43.053  59.190 -50.935  1.00  0.00    -0.046 A 
HETATM   14  C   UNL     1     -43.365  60.445 -50.389  1.00  0.00     0.045 A 
HETATM   15  C   UNL     1     -44.692  60.803 -50.129  1.00  0.00     0.076 A 
HETATM   16  C   UNL     1     -45.728  59.950 -50.504  1.00  0.00     0.037 A 
HETATM   17  C   UNL     1     -45.438  58.718 -51.086  1.00  0.00     0.003 A 
HETATM   18  C   UNL     1     -44.110  58.334 -51.287  1.00  0.00     0.008 A 
BRANCH  15  19
HETATM   19  O   UNL     1     -45.056  61.998 -49.549  1.00  0.00    -0.311 OA
BRANCH  19  20
HETATM   20  C   UNL     1     -45.073  62.088 -48.173  1.00  0.00     0.076 A 
HETATM   21  C   UNL     1     -45.114  63.378 -47.639  1.00  0.00     0.037 A 
HETATM   22  C   UNL     1     -45.132  63.563 -46.255  1.00  0.00     0.003 A 
HETATM   23  C   UNL     1     -45.115  62.457 -45.404  1.00  0.00     0.000 A 
HETATM   24  C   UNL     1     -45.102  61.168 -45.936  1.00  0.00     0.003 A 
HETATM   25  C   UNL     1     -45.104  60.982 -47.319  1.00  0.00     0.037 A 
ENDBRANCH  19  20
ENDBRANCH  15  19
ENDBRANCH   6  13
BRANCH   1  26
HETATM   26  O   UNL     1     -41.552  54.241 -48.932  1.00  0.00    -0.353 OA
HETATM   27  C   UNL     1     -40.387  54.155 -48.123  1.00  0.00     0.210 C 
ENDBRANCH   1  26
BRANCH   2  28
HETATM   28  O   UNL     1     -41.249  53.043 -51.240  1.00  0.00    -0.353 OA
HETATM   29  C   UNL     1     -40.061  52.425 -51.711  1.00  0.00     0.210 C 
ENDBRANCH   2  28
TORSDOF 5
ENDMDL
MODEL 9
REMARK VINA RESULT:      -7.5      1.988      4.694
REMARK  5 active torsions:
REMARK  status: ('A' for Active; 'I' for Inactive)
REMARK    1  A    between atoms: O_2  and  C_3 
REMARK    2  A    between atoms: C_4  and  O_5 
REMARK    3  A    between atoms: C_10  and  C_11 
REMARK    4  A    between atoms: C_13  and  O_14 
REMARK    5  A    between atoms: O_14  and  C_15 
ROOT
HETATM    1  C   UNL     1     -43.930  60.219 -51.089  1.00  0.00     0.102 A 
HETATM    2  C   UNL     1     -43.120  61.010 -51.928  1.00  0.00     0.103 A 
HETATM    3  C   UNL     1     -42.653  60.481 -53.137  1.00  0.00     0.069 A 
HETATM    4  C   UNL     1     -43.007  59.186 -53.517  1.00  0.00     0.044 A 
HETATM    5  C   UNL     1     -43.814  58.395 -52.695  1.00  0.00    -0.020 A 
HETATM    6  C   UNL     1     -44.129  56.968 -53.087  1.00  0.00     0.063 C 
HETATM    7  C   UNL     1     -44.070  56.774 -54.605  1.00  0.00     0.117 C 
HETATM    8  C   UNL     1     -42.896  57.465 -55.254  1.00  0.00     0.223 C 
HETATM    9  O   UNL     1     -42.370  57.040 -56.281  1.00  0.00    -0.273 OA
HETATM   10  N   UNL     1     -42.518  58.666 -54.719  1.00  0.00    -0.327 N 
HETATM   11  C   UNL     1     -44.274  58.920 -51.478  1.00  0.00     0.049 A 
HETATM   12  H   UNL     1     -41.814  59.172 -55.241  1.00  0.00     0.169 HD
ENDROOT
BRANCH   6  13
HETATM   13  C   UNL     1     -43.280  55.936 -52.351  1.00  0.00    -0.046 A 
HETATM   14  C   UNL     1     -42.047  55.497 -52.860  1.00  0.00     0.045 A 
HETATM   15  C   UNL     1     -41.346  54.459 -52.239  1.00  0.00     0.076 A 
HETATM   16  C   UNL     1     -41.819  53.916 -51.046  1.00  0.00     0.037 A 
HETATM   17  C   UNL     1     -43.020  54.370 -50.504  1.00  0.00     0.003 A 
HETATM   18  C   UNL     1     -43.754  55.362 -51.160  1.00  0.00     0.008 A 
BRANCH  15  19
HETATM   19  O   UNL     1     -40.158  53.952 -52.718  1.00  0.00    -0.311 OA
BRANCH  19  20
HETATM   20  C   UNL     1     -40.066  52.599 -52.961  1.00  0.00     0.076 A 
HETATM   21  C   UNL     1     -39.634  51.807 -51.894  1.00  0.00     0.037 A 
HETATM   22  C   UNL     1     -39.512  50.426 -52.051  1.00  0.00     0.003 A 
HETATM   23  C   UNL     1     -39.826  49.833 -53.275  1.00  0.00     0.000 A 
HETATM   24  C   UNL     1     -40.284  50.617 -54.333  1.00  0.00     0.003 A 
HETATM   25  C   UNL     1     -40.426  51.996 -54.170  1.00  0.00     0.037 A 
ENDBRANCH  19  20
ENDBRANCH  15  19
ENDBRANCH   6  13
BRANCH   1  26
HETATM   26  O   UNL     1     -44.352  60.805 -49.920  1.00  0.00    -0.353 OA
HETATM   27  C   UNL     1     -45.585  60.351 -49.380  1.00  0.00     0.210 C 
ENDBRANCH   1  26
BRANCH   2  28
HETATM   28  O   UNL     1     -42.840  62.274 -51.472  1.00  0.00    -0.353 OA
HETATM   29  C   UNL     1     -43.396  63.373 -52.180  1.00  0.00     0.210 C 
ENDBRANCH   2  28
TORSDOF 5
ENDMDL
MODEL 10
REMARK VINA RESULT:      -7.4      2.044      7.063
REMARK  5 active torsions:
REMARK  status: ('A' for Active; 'I' for Inactive)
REMARK    1  A    between atoms: O_2  and  C_3 
REMARK    2  A    between atoms: C_4  and  O_5 
REMARK    3  A    between atoms: C_10  and  C_11 
REMARK    4  A    between atoms: C_13  and  O_14 
REMARK    5  A    between atoms: O_14  and  C_15 
ROOT
HETATM    1  C   UNL     1     -41.504  54.078 -52.557  1.00  0.00     0.102 A 
HETATM    2  C   UNL     1     -40.974  54.588 -51.355  1.00  0.00     0.103 A 
HETATM    3  C   UNL     1     -41.434  55.814 -50.861  1.00  0.00     0.069 A 
HETATM    4  C   UNL     1     -42.428  56.514 -51.545  1.00  0.00     0.044 A 
HETATM    5  C   UNL     1     -42.965  56.016 -52.734  1.00  0.00    -0.020 A 
HETATM    6  C   UNL     1     -43.990  56.822 -53.501  1.00  0.00     0.063 C 
HETATM    7  C   UNL     1     -44.777  57.758 -52.579  1.00  0.00     0.117 C 
HETATM    8  C   UNL     1     -43.915  58.459 -51.557  1.00  0.00     0.223 C 
HETATM    9  O   UNL     1     -44.197  59.570 -51.112  1.00  0.00    -0.273 OA
HETATM   10  N   UNL     1     -42.865  57.746 -51.048  1.00  0.00    -0.327 N 
HETATM   11  C   UNL     1     -42.497  54.793 -53.235  1.00  0.00     0.049 A 
HETATM   12  H   UNL     1     -42.376  58.185 -50.277  1.00  0.00     0.169 HD
ENDROOT
BRANCH   6  13
HETATM   13  C   UNL     1     -43.405  57.566 -54.696  1.00  0.00    -0.046 A 
HETATM   14  C   UNL     1     -43.357  56.988 -55.975  1.00  0.00     0.045 A 
HETATM   15  C   UNL     1     -42.702  57.633 -57.028  1.00  0.00     0.076 A 
HETATM   16  C   UNL     1     -42.175  58.910 -56.842  1.00  0.00     0.037 A 
HETATM   17  C   UNL     1     -42.252  59.517 -55.590  1.00  0.00     0.003 A 
HETATM   18  C   UNL     1     -42.848  58.844 -54.521  1.00  0.00     0.008 A 
BRANCH  15  19
HETATM   19  O   UNL     1     -42.579  57.094 -58.290  1.00  0.00    -0.311 OA
BRANCH  19  20
HETATM   20  C   UNL     1     -43.717  56.676 -58.945  1.00  0.00     0.076 A 
HETATM   21  C   UNL     1     -43.742  55.339 -59.349  1.00  0.00     0.037 A 
HETATM   22  C   UNL     1     -44.856  54.830 -60.019  1.00  0.00     0.003 A 
HETATM   23  C   UNL     1     -45.948  55.657 -60.282  1.00  0.00     0.000 A 
HETATM   24  C   UNL     1     -45.937  56.984 -59.856  1.00  0.00     0.003 A 
HETATM   25  C   UNL     1     -44.833  57.488 -59.167  1.00  0.00     0.037 A 
ENDBRANCH  19  20
ENDBRANCH  15  19
ENDBRANCH   6  13
BRANCH   1  26
HETATM   26  O   UNL     1     -41.006  52.870 -52.979  1.00  0.00    -0.353 OA
HETATM   27  C   UNL     1     -40.403  52.834 -54.264  1.00  0.00     0.210 C 
ENDBRANCH   1  26
BRANCH   2  28
HETATM   28  O   UNL     1     -40.011  53.818 -50.750  1.00  0.00    -0.353 OA
HETATM   29  C   UNL     1     -40.244  53.390 -49.417  1.00  0.00     0.210 C 
ENDBRANCH   2  28
TORSDOF 5
ENDMDL
