MODEL 1
REMARK VINA RESULT:      -8.8      0.000      0.000
REMARK  6 active torsions:
REMARK  status: ('A' for Active; 'I' for Inactive)
REMARK    1  A    between atoms: C_8  and  N_9 
REMARK       I    between atoms: N_9  and  C_10 
REMARK       I    between atoms: C_10  and  N_11 
REMARK    2  A    between atoms: N_11  and  C_12 
REMARK    3  A    between atoms: C_15  and  O_16 
REMARK    4  A    between atoms: O_16  and  C_17 
REMARK    5  A    between atoms: C_17  and  C_18 
REMARK    6  A    between atoms: C_18  and  C_19 
ROOT
HETATM    1  C   UNL     1     -43.131  55.515 -53.589  1.00  0.00     0.054 A 
HETATM    2  C   UNL     1     -43.418  54.354 -52.876  1.00  0.00     0.149 A 
HETATM    3  N   UNL     1     -42.797  53.995 -51.726  1.00  0.00    -0.235 NA
HETATM    4  C   UNL     1     -41.849  54.829 -51.257  1.00  0.00     0.164 A 
HETATM    5  C   UNL     1     -41.519  56.029 -51.863  1.00  0.00     0.060 A 
HETATM    6  C   UNL     1     -42.165  56.369 -53.052  1.00  0.00     0.035 A 
ENDROOT
BRANCH   1   7
HETATM    7  N   UNL     1     -43.696  55.845 -54.837  1.00  0.00    -0.307 N 
HETATM    8  C   UNL     1     -43.069  55.748 -56.070  1.00  0.00     0.325 C 
HETATM    9  N   UNL     1     -43.761  56.474 -57.019  1.00  0.00    -0.305 N 
HETATM   10  O   UNL     1     -42.027  55.138 -56.265  1.00  0.00    -0.247 OA
HETATM   11  H   UNL     1     -44.327  57.230 -56.666  1.00  0.00     0.171 HD
HETATM   12  H   UNL     1     -44.683  56.058 -54.855  1.00  0.00     0.170 HD
BRANCH   9  13
HETATM   13  C   UNL     1     -43.445  56.544 -58.367  1.00  0.00     0.086 A 
HETATM   14  C   UNL     1     -42.738  57.604 -58.902  1.00  0.00     0.052 A 
HETATM   15  C   UNL     1     -42.147  58.821 -58.297  1.00  0.00     0.072 C 
HETATM   16  N   UNL     1     -42.606  57.329 -60.233  1.00  0.00    -0.280 N 
HETATM   17  H   UNL     1     -42.125  57.872 -60.942  1.00  0.00     0.189 HD
HETATM   18  N   UNL     1     -43.201  56.195 -60.612  1.00  0.00    -0.177 NA
HETATM   19  C   UNL     1     -43.723  55.699 -59.479  1.00  0.00     0.079 A 
HETATM   20  C   UNL     1     -44.509  54.441 -59.559  1.00  0.00     0.075 C 
ENDBRANCH   9  13
ENDBRANCH   1   7
BRANCH   4  21
HETATM   21  O   UNL     1     -41.142  54.485 -50.121  1.00  0.00    -0.334 OA
BRANCH  21  22
HETATM   22  C   UNL     1     -40.741  53.108 -50.146  1.00  0.00     0.182 C 
BRANCH  22  23
HETATM   23  C   UNL     1     -39.516  52.965 -51.047  1.00  0.00     0.065 C 
BRANCH  23  24
HETATM   24  C   UNL     1     -39.735  51.908 -52.100  1.00  0.00    -0.056 A 
HETATM   25  C   UNL     1     -39.506  50.557 -51.804  1.00  0.00     0.007 A 
HETATM   26  C   UNL     1     -39.644  49.583 -52.793  1.00  0.00     0.001 A 
HETATM   27  C   UNL     1     -40.010  49.950 -54.087  1.00  0.00     0.000 A 
HETATM   28  C   UNL     1     -40.239  51.291 -54.392  1.00  0.00     0.001 A 
HETATM   29  C   UNL     1     -40.102  52.267 -53.404  1.00  0.00     0.007 A 
ENDBRANCH  23  24
ENDBRANCH  22  23
ENDBRANCH  21  22
ENDBRANCH   4  21
TORSDOF 6
ENDMDL
MODEL 2
REMARK VINA RESULT:      -8.4      1.809      2.308
REMARK  6 active torsions:
REMARK  status: ('A' for Active; 'I' for Inactive)
REMARK    1  A    between atoms: C_8  and  N_9 
REMARK       I    between atoms: N_9  and  C_10 
REMARK       I    between atoms: C_10  and  N_11 
REMARK    2  A    between atoms: N_11  and  C_12 
REMARK    3  A    between atoms: C_15  and  O_16 
REMARK    4  A    between atoms: O_16  and  C_17 
REMARK    5  A    between atoms: C_17  and  C_18 
REMARK    6  A    between atoms: C_18  and  C_19 
ROOT
HETATM    1  C   UNL     1     -42.535  55.144 -55.343  1.00  0.00     0.054 A 
HETATM    2  C   UNL     1     -41.298  55.585 -54.883  1.00  0.00     0.149 A 
HETATM    3  N   UNL     1     -40.891  55.499 -53.593  1.00  0.00    -0.235 NA
HETATM    4  C   UNL     1     -41.750  54.944 -52.717  1.00  0.00     0.164 A 
HETATM    5  C   UNL     1     -42.986  54.434 -53.077  1.00  0.00     0.060 A 
HETATM    6  C   UNL     1     -43.385  54.546 -54.410  1.00  0.00     0.035 A 
ENDROOT
BRANCH   1   7
HETATM    7  N   UNL     1     -43.008  55.323 -56.659  1.00  0.00    -0.307 N 
HETATM    8  C   UNL     1     -43.334  56.532 -57.253  1.00  0.00     0.325 C 
HETATM    9  N   UNL     1     -44.086  56.320 -58.392  1.00  0.00    -0.305 N 
HETATM   10  O   UNL     1     -43.030  57.626 -56.798  1.00  0.00    -0.247 OA
HETATM   11  H   UNL     1     -44.597  55.452 -58.424  1.00  0.00     0.171 HD
HETATM   12  H   UNL     1     -42.996  54.517 -57.267  1.00  0.00     0.170 HD
BRANCH   9  13
HETATM   13  C   UNL     1     -44.529  57.306 -59.259  1.00  0.00     0.086 A 
HETATM   14  C   UNL     1     -43.686  57.923 -60.164  1.00  0.00     0.052 A 
HETATM   15  C   UNL     1     -42.250  57.743 -60.478  1.00  0.00     0.072 C 
HETATM   16  N   UNL     1     -44.462  58.816 -60.846  1.00  0.00    -0.280 N 
HETATM   17  H   UNL     1     -44.191  59.434 -61.603  1.00  0.00     0.189 HD
HETATM   18  N   UNL     1     -45.732  58.854 -60.432  1.00  0.00    -0.177 NA
HETATM   19  C   UNL     1     -45.793  57.934 -59.458  1.00  0.00     0.079 A 
HETATM   20  C   UNL     1     -47.080  57.753 -58.740  1.00  0.00     0.075 C 
ENDBRANCH   9  13
ENDBRANCH   1   7
BRANCH   4  21
HETATM   21  O   UNL     1     -41.413  54.884 -51.378  1.00  0.00    -0.334 OA
BRANCH  21  22
HETATM   22  C   UNL     1     -41.275  53.529 -50.929  1.00  0.00     0.182 C 
BRANCH  22  23
HETATM   23  C   UNL     1     -39.831  53.081 -51.145  1.00  0.00     0.065 C 
BRANCH  23  24
HETATM   24  C   UNL     1     -39.763  51.888 -52.065  1.00  0.00    -0.056 A 
HETATM   25  C   UNL     1     -39.973  52.045 -53.442  1.00  0.00     0.007 A 
HETATM   26  C   UNL     1     -39.976  50.936 -54.289  1.00  0.00     0.001 A 
HETATM   27  C   UNL     1     -39.773  49.660 -53.766  1.00  0.00     0.000 A 
HETATM   28  C   UNL     1     -39.564  49.493 -52.399  1.00  0.00     0.001 A 
HETATM   29  C   UNL     1     -39.559  50.601 -51.550  1.00  0.00     0.007 A 
ENDBRANCH  23  24
ENDBRANCH  22  23
ENDBRANCH  21  22
ENDBRANCH   4  21
TORSDOF 6
ENDMDL
MODEL 3
REMARK VINA RESULT:      -8.2      1.182      1.983
REMARK  6 active torsions:
REMARK  status: ('A' for Active; 'I' for Inactive)
REMARK    1  A    between atoms: C_8  and  N_9 
REMARK       I    between atoms: N_9  and  C_10 
REMARK       I    between atoms: C_10  and  N_11 
REMARK    2  A    between atoms: N_11  and  C_12 
REMARK    3  A    between atoms: C_15  and  O_16 
REMARK    4  A    between atoms: O_16  and  C_17 
REMARK    5  A    between atoms: C_17  and  C_18 
REMARK    6  A    between atoms: C_18  and  C_19 
ROOT
HETATM    1  C   UNL     1     -41.944  55.269 -54.694  1.00  0.00     0.054 A 
HETATM    2  C   UNL     1     -42.786  54.410 -53.995  1.00  0.00     0.149 A 
HETATM    3  N   UNL     1     -42.702  54.181 -52.661  1.00  0.00    -0.235 NA
HETATM    4  C   UNL     1     -41.740  54.840 -51.987  1.00  0.00     0.164 A 
HETATM    5  C   UNL     1     -40.880  55.750 -52.578  1.00  0.00     0.060 A 
HETATM    6  C   UNL     1     -40.980  55.958 -53.954  1.00  0.00     0.035 A 
ENDROOT
BRANCH   1   7
HETATM    7  N   UNL     1     -41.956  55.435 -56.094  1.00  0.00    -0.307 N 
HETATM    8  C   UNL     1     -42.796  56.274 -56.811  1.00  0.00     0.325 C 
HETATM    9  N   UNL     1     -42.788  55.931 -58.149  1.00  0.00    -0.305 N 
HETATM   10  O   UNL     1     -43.475  57.159 -56.310  1.00  0.00    -0.247 OA
HETATM   11  H   UNL     1     -42.535  54.977 -58.355  1.00  0.00     0.171 HD
HETATM   12  H   UNL     1     -41.211  54.998 -56.617  1.00  0.00     0.170 HD
BRANCH   9  13
HETATM   13  C   UNL     1     -43.468  56.600 -59.155  1.00  0.00     0.086 A 
HETATM   14  C   UNL     1     -44.404  55.971 -59.953  1.00  0.00     0.052 A 
HETATM   15  C   UNL     1     -44.933  54.587 -59.977  1.00  0.00     0.072 C 
HETATM   16  N   UNL     1     -44.866  56.929 -60.809  1.00  0.00    -0.280 N 
HETATM   17  H   UNL     1     -45.579  56.841 -61.526  1.00  0.00     0.189 HD
HETATM   18  N   UNL     1     -44.280  58.120 -60.655  1.00  0.00    -0.177 NA
HETATM   19  C   UNL     1     -43.417  57.937 -59.644  1.00  0.00     0.079 A 
HETATM   20  C   UNL     1     -42.553  59.076 -59.241  1.00  0.00     0.075 C 
ENDBRANCH   9  13
ENDBRANCH   1   7
BRANCH   4  21
HETATM   21  O   UNL     1     -41.570  54.601 -50.638  1.00  0.00    -0.334 OA
BRANCH  21  22
HETATM   22  C   UNL     1     -41.234  53.230 -50.383  1.00  0.00     0.182 C 
BRANCH  22  23
HETATM   23  C   UNL     1     -39.823  52.961 -50.901  1.00  0.00     0.065 C 
BRANCH  23  24
HETATM   24  C   UNL     1     -39.814  51.818 -51.885  1.00  0.00    -0.056 A 
HETATM   25  C   UNL     1     -39.589  50.507 -51.445  1.00  0.00     0.007 A 
HETATM   26  C   UNL     1     -39.515  49.456 -52.359  1.00  0.00     0.001 A 
HETATM   27  C   UNL     1     -39.662  49.706 -53.722  1.00  0.00     0.000 A 
HETATM   28  C   UNL     1     -39.885  51.006 -54.171  1.00  0.00     0.001 A 
HETATM   29  C   UNL     1     -39.960  52.059 -53.258  1.00  0.00     0.007 A 
ENDBRANCH  23  24
ENDBRANCH  22  23
ENDBRANCH  21  22
ENDBRANCH   4  21
TORSDOF 6
ENDMDL
MODEL 4
REMARK VINA RESULT:      -8.0      1.515      2.447
REMARK  6 active torsions:
REMARK  status: ('A' for Active; 'I' for Inactive)
REMARK    1  A    between atoms: C_8  and  N_9 
REMARK       I    between atoms: N_9  and  C_10 
REMARK       I    between atoms: C_10  and  N_11 
REMARK    2  A    between atoms: N_11  and  C_12 
REMARK    3  A    between atoms: C_15  and  O_16 
REMARK    4  A    between atoms: O_16  and  C_17 
REMARK    5  A    between atoms: C_17  and  C_18 
REMARK    6  A    between atoms: C_18  and  C_19 
ROOT
HETATM    1  C   UNL     1     -43.179  56.285 -54.323  1.00  0.00     0.054 A 
HETATM    2  C   UNL     1     -42.071  56.946 -53.802  1.00  0.00     0.149 A 
HETATM    3  N   UNL     1     -41.365  56.517 -52.727  1.00  0.00    -0.235 NA
HETATM    4  C   UNL     1     -41.775  55.374 -52.144  1.00  0.00     0.164 A 
HETATM    5  C   UNL     1     -42.836  54.617 -52.609  1.00  0.00     0.060 A 
HETATM    6  C   UNL     1     -43.553  55.087 -53.710  1.00  0.00     0.035 A 
ENDROOT
BRANCH   1   7
HETATM    7  N   UNL     1     -43.981  56.777 -55.374  1.00  0.00    -0.307 N 
HETATM    8  C   UNL     1     -43.578  56.973 -56.686  1.00  0.00     0.325 C 
HETATM    9  N   UNL     1     -44.479  57.783 -57.348  1.00  0.00    -0.305 N 
HETATM   10  O   UNL     1     -42.546  56.522 -57.164  1.00  0.00    -0.247 OA
HETATM   11  H   UNL     1     -45.026  58.398 -56.766  1.00  0.00     0.171 HD
HETATM   12  H   UNL     1     -44.967  56.884 -55.190  1.00  0.00     0.170 HD
BRANCH   9  13
HETATM   13  C   UNL     1     -44.415  58.131 -58.688  1.00  0.00     0.086 A 
HETATM   14  C   UNL     1     -45.374  57.731 -59.599  1.00  0.00     0.052 A 
HETATM   15  C   UNL     1     -46.617  56.938 -59.462  1.00  0.00     0.072 C 
HETATM   16  N   UNL     1     -44.992  58.263 -60.798  1.00  0.00    -0.280 N 
HETATM   17  H   UNL     1     -45.465  58.198 -61.693  1.00  0.00     0.189 HD
HETATM   18  N   UNL     1     -43.845  58.945 -60.746  1.00  0.00    -0.177 NA
HETATM   19  C   UNL     1     -43.474  58.875 -59.458  1.00  0.00     0.079 A 
HETATM   20  C   UNL     1     -42.189  59.505 -59.061  1.00  0.00     0.075 C 
ENDBRANCH   9  13
ENDBRANCH   1   7
BRANCH   4  21
HETATM   21  O   UNL     1     -41.130  54.920 -51.010  1.00  0.00    -0.334 OA
BRANCH  21  22
HETATM   22  C   UNL     1     -41.234  53.496 -50.878  1.00  0.00     0.182 C 
BRANCH  22  23
HETATM   23  C   UNL     1     -39.840  52.883 -51.007  1.00  0.00     0.065 C 
BRANCH  23  24
HETATM   24  C   UNL     1     -39.805  51.832 -52.088  1.00  0.00    -0.056 A 
HETATM   25  C   UNL     1     -40.096  52.173 -53.415  1.00  0.00     0.007 A 
HETATM   26  C   UNL     1     -40.129  51.192 -54.407  1.00  0.00     0.001 A 
HETATM   27  C   UNL     1     -39.875  49.862 -54.080  1.00  0.00     0.000 A 
HETATM   28  C   UNL     1     -39.586  49.512 -52.763  1.00  0.00     0.001 A 
HETATM   29  C   UNL     1     -39.551  50.491 -51.769  1.00  0.00     0.007 A 
ENDBRANCH  23  24
ENDBRANCH  22  23
ENDBRANCH  21  22
ENDBRANCH   4  21
TORSDOF 6
ENDMDL
MODEL 5
REMARK VINA RESULT:      -7.3      1.806      2.045
REMARK  6 active torsions:
REMARK  status: ('A' for Active; 'I' for Inactive)
REMARK    1  A    between atoms: C_8  and  N_9 
REMARK       I    between atoms: N_9  and  C_10 
REMARK       I    between atoms: C_10  and  N_11 
REMARK    2  A    between atoms: N_11  and  C_12 
REMARK    3  A    between atoms: C_15  and  O_16 
REMARK    4  A    between atoms: O_16  and  C_17 
REMARK    5  A    between atoms: C_17  and  C_18 
REMARK    6  A    between atoms: C_18  and  C_19 
ROOT
HETATM    1  C   UNL     1     -43.229  57.667 -53.109  1.00  0.00     0.054 A 
HETATM    2  C   UNL     1     -43.943  57.001 -52.118  1.00  0.00     0.149 A 
HETATM    3  N   UNL     1     -43.375  56.400 -51.044  1.00  0.00    -0.235 NA
HETATM    4  C   UNL     1     -42.033  56.467 -50.945  1.00  0.00     0.164 A 
HETATM    5  C   UNL     1     -41.233  57.142 -51.851  1.00  0.00     0.060 A 
HETATM    6  C   UNL     1     -41.843  57.741 -52.954  1.00  0.00     0.035 A 
ENDROOT
BRANCH   1   7
HETATM    7  N   UNL     1     -43.800  58.204 -54.281  1.00  0.00    -0.307 N 
HETATM    8  C   UNL     1     -43.876  57.576 -55.515  1.00  0.00     0.325 C 
HETATM    9  N   UNL     1     -44.161  58.496 -56.504  1.00  0.00    -0.305 N 
HETATM   10  O   UNL     1     -43.675  56.383 -55.693  1.00  0.00    -0.247 OA
HETATM   11  H   UNL     1     -43.899  59.449 -56.305  1.00  0.00     0.171 HD
HETATM   12  H   UNL     1     -44.306  59.072 -54.191  1.00  0.00     0.170 HD
BRANCH   9  13
HETATM   13  C   UNL     1     -44.366  58.201 -57.843  1.00  0.00     0.086 A 
HETATM   14  C   UNL     1     -43.328  58.161 -58.755  1.00  0.00     0.052 A 
HETATM   15  C   UNL     1     -41.866  58.363 -58.618  1.00  0.00     0.072 C 
HETATM   16  N   UNL     1     -43.897  57.832 -59.952  1.00  0.00    -0.280 N 
HETATM   17  H   UNL     1     -43.441  57.690 -60.847  1.00  0.00     0.189 HD
HETATM   18  N   UNL     1     -45.224  57.691 -59.898  1.00  0.00    -0.177 NA
HETATM   19  C   UNL     1     -45.531  57.915 -58.611  1.00  0.00     0.079 A 
HETATM   20  C   UNL     1     -46.962  57.880 -58.213  1.00  0.00     0.075 C 
ENDBRANCH   9  13
ENDBRANCH   1   7
BRANCH   4  21
HETATM   21  O   UNL     1     -41.395  55.823 -49.903  1.00  0.00    -0.334 OA
BRANCH  21  22
HETATM   22  C   UNL     1     -41.526  54.398 -50.005  1.00  0.00     0.182 C 
BRANCH  22  23
HETATM   23  C   UNL     1     -40.171  53.802 -50.385  1.00  0.00     0.065 C 
BRANCH  23  24
HETATM   24  C   UNL     1     -40.252  53.059 -51.695  1.00  0.00    -0.056 A 
HETATM   25  C   UNL     1     -39.533  51.869 -51.878  1.00  0.00     0.007 A 
HETATM   26  C   UNL     1     -39.553  51.213 -53.109  1.00  0.00     0.001 A 
HETATM   27  C   UNL     1     -40.289  51.740 -54.168  1.00  0.00     0.000 A 
HETATM   28  C   UNL     1     -41.006  52.922 -53.997  1.00  0.00     0.001 A 
HETATM   29  C   UNL     1     -40.989  53.580 -52.766  1.00  0.00     0.007 A 
ENDBRANCH  23  24
ENDBRANCH  22  23
ENDBRANCH  21  22
ENDBRANCH   4  21
TORSDOF 6
ENDMDL
MODEL 6
REMARK VINA RESULT:      -7.3      2.385      4.538
REMARK  6 active torsions:
REMARK  status: ('A' for Active; 'I' for Inactive)
REMARK    1  A    between atoms: C_8  and  N_9 
REMARK       I    between atoms: N_9  and  C_10 
REMARK       I    between atoms: C_10  and  N_11 
REMARK    2  A    between atoms: N_11  and  C_12 
REMARK    3  A    between atoms: C_15  and  O_16 
REMARK    4  A    between atoms: O_16  and  C_17 
REMARK    5  A    between atoms: C_17  and  C_18 
REMARK    6  A    between atoms: C_18  and  C_19 
ROOT
HETATM    1  C   UNL     1     -42.789  54.665 -55.316  1.00  0.00     0.054 A 
HETATM    2  C   UNL     1     -43.665  54.702 -54.236  1.00  0.00     0.149 A 
HETATM    3  N   UNL     1     -43.321  54.376 -52.966  1.00  0.00    -0.235 NA
HETATM    4  C   UNL     1     -42.045  54.000 -52.756  1.00  0.00     0.164 A 
HETATM    5  C   UNL     1     -41.083  53.972 -53.751  1.00  0.00     0.060 A 
HETATM    6  C   UNL     1     -41.467  54.300 -55.052  1.00  0.00     0.035 A 
ENDROOT
BRANCH   1   7
HETATM    7  N   UNL     1     -43.162  54.901 -56.655  1.00  0.00    -0.307 N 
HETATM    8  C   UNL     1     -43.223  56.137 -57.281  1.00  0.00     0.325 C 
HETATM    9  N   UNL     1     -43.952  56.048 -58.450  1.00  0.00    -0.305 N 
HETATM   10  O   UNL     1     -42.732  57.162 -56.828  1.00  0.00    -0.247 OA
HETATM   11  H   UNL     1     -44.620  55.294 -58.493  1.00  0.00     0.171 HD
HETATM   12  H   UNL     1     -43.280  54.095 -57.250  1.00  0.00     0.170 HD
BRANCH   9  13
HETATM   13  C   UNL     1     -44.159  57.081 -59.351  1.00  0.00     0.086 A 
HETATM   14  C   UNL     1     -45.426  57.500 -59.710  1.00  0.00     0.052 A 
HETATM   15  C   UNL     1     -46.780  57.067 -59.294  1.00  0.00     0.072 C 
HETATM   16  N   UNL     1     -45.241  58.527 -60.592  1.00  0.00    -0.280 N 
HETATM   17  H   UNL     1     -45.945  59.095 -61.051  1.00  0.00     0.189 HD
HETATM   18  N   UNL     1     -43.958  58.784 -60.861  1.00  0.00    -0.177 NA
HETATM   19  C   UNL     1     -43.278  57.906 -60.108  1.00  0.00     0.079 A 
HETATM   20  C   UNL     1     -41.796  57.892 -60.209  1.00  0.00     0.075 C 
ENDBRANCH   9  13
ENDBRANCH   1   7
BRANCH   4  21
HETATM   21  O   UNL     1     -41.653  53.600 -51.493  1.00  0.00    -0.334 OA
BRANCH  21  22
HETATM   22  C   UNL     1     -42.018  54.566 -50.497  1.00  0.00     0.182 C 
BRANCH  22  23
HETATM   23  C   UNL     1     -40.887  55.584 -50.357  1.00  0.00     0.065 C 
BRANCH  23  24
HETATM   24  C   UNL     1     -41.373  56.980 -50.657  1.00  0.00    -0.056 A 
HETATM   25  C   UNL     1     -42.688  57.193 -51.093  1.00  0.00     0.007 A 
HETATM   26  C   UNL     1     -43.122  58.474 -51.434  1.00  0.00     0.001 A 
HETATM   27  C   UNL     1     -42.246  59.553 -51.343  1.00  0.00     0.000 A 
HETATM   28  C   UNL     1     -40.936  59.353 -50.911  1.00  0.00     0.001 A 
HETATM   29  C   UNL     1     -40.500  58.072 -50.569  1.00  0.00     0.007 A 
ENDBRANCH  23  24
ENDBRANCH  22  23
ENDBRANCH  21  22
ENDBRANCH   4  21
TORSDOF 6
ENDMDL
MODEL 7
REMARK VINA RESULT:      -7.0      2.279      3.110
REMARK  6 active torsions:
REMARK  status: ('A' for Active; 'I' for Inactive)
REMARK    1  A    between atoms: C_8  and  N_9 
REMARK       I    between atoms: N_9  and  C_10 
REMARK       I    between atoms: C_10  and  N_11 
REMARK    2  A    between atoms: N_11  and  C_12 
REMARK    3  A    between atoms: C_15  and  O_16 
REMARK    4  A    between atoms: O_16  and  C_17 
REMARK    5  A    between atoms: C_17  and  C_18 
REMARK    6  A    between atoms: C_18  and  C_19 
ROOT
HETATM    1  C   UNL     1     -43.165  57.009 -55.397  1.00  0.00     0.054 A 
HETATM    2  C   UNL     1     -44.198  56.890 -54.472  1.00  0.00     0.149 A 
HETATM    3  N   UNL     1     -44.013  56.784 -53.134  1.00  0.00    -0.235 NA
HETATM    4  C   UNL     1     -42.741  56.801 -52.690  1.00  0.00     0.164 A 
HETATM    5  C   UNL     1     -41.645  56.960 -53.520  1.00  0.00     0.060 A 
HETATM    6  C   UNL     1     -41.863  57.055 -54.894  1.00  0.00     0.035 A 
ENDROOT
BRANCH   1   7
HETATM    7  N   UNL     1     -43.342  57.016 -56.796  1.00  0.00    -0.307 N 
HETATM    8  C   UNL     1     -43.561  58.134 -57.586  1.00  0.00     0.325 C 
HETATM    9  N   UNL     1     -44.039  57.758 -58.826  1.00  0.00    -0.305 N 
HETATM   10  O   UNL     1     -43.391  59.285 -57.212  1.00  0.00    -0.247 OA
HETATM   11  H   UNL     1     -44.509  56.867 -58.863  1.00  0.00     0.171 HD
HETATM   12  H   UNL     1     -43.177  56.149 -57.286  1.00  0.00     0.170 HD
BRANCH   9  13
HETATM   13  C   UNL     1     -44.306  58.618 -59.880  1.00  0.00     0.086 A 
HETATM   14  C   UNL     1     -45.592  58.854 -60.329  1.00  0.00     0.052 A 
HETATM   15  C   UNL     1     -46.915  58.361 -59.881  1.00  0.00     0.072 C 
HETATM   16  N   UNL     1     -45.469  59.748 -61.354  1.00  0.00    -0.280 N 
HETATM   17  H   UNL     1     -46.205  60.169 -61.911  1.00  0.00     0.189 HD
HETATM   18  N   UNL     1     -44.206  60.083 -61.631  1.00  0.00    -0.177 NA
HETATM   19  C   UNL     1     -43.477  59.399 -60.736  1.00  0.00     0.079 A 
HETATM   20  C   UNL     1     -41.997  59.512 -60.800  1.00  0.00     0.075 C 
ENDBRANCH   9  13
ENDBRANCH   1   7
BRANCH   4  21
HETATM   21  O   UNL     1     -42.489  56.637 -51.342  1.00  0.00    -0.334 OA
BRANCH  21  22
HETATM   22  C   UNL     1     -41.423  55.706 -51.114  1.00  0.00     0.182 C 
BRANCH  22  23
HETATM   23  C   UNL     1     -42.000  54.292 -51.074  1.00  0.00     0.065 C 
BRANCH  23  24
HETATM   24  C   UNL     1     -41.227  53.364 -51.977  1.00  0.00    -0.056 A 
HETATM   25  C   UNL     1     -40.183  52.583 -51.463  1.00  0.00     0.007 A 
HETATM   26  C   UNL     1     -39.423  51.772 -52.306  1.00  0.00     0.001 A 
HETATM   27  C   UNL     1     -39.698  51.736 -53.672  1.00  0.00     0.000 A 
HETATM   28  C   UNL     1     -40.733  52.510 -54.194  1.00  0.00     0.001 A 
HETATM   29  C   UNL     1     -41.495  53.321 -53.352  1.00  0.00     0.007 A 
ENDBRANCH  23  24
ENDBRANCH  22  23
ENDBRANCH  21  22
ENDBRANCH   4  21
TORSDOF 6
ENDMDL
MODEL 8
REMARK VINA RESULT:      -6.9      2.942      9.568
REMARK  6 active torsions:
REMARK  status: ('A' for Active; 'I' for Inactive)
REMARK    1  A    between atoms: C_8  and  N_9 
REMARK       I    between atoms: N_9  and  C_10 
REMARK       I    between atoms: C_10  and  N_11 
REMARK    2  A    between atoms: N_11  and  C_12 
REMARK    3  A    between atoms: C_15  and  O_16 
REMARK    4  A    between atoms: O_16  and  C_17 
REMARK    5  A    between atoms: C_17  and  C_18 
REMARK    6  A    between atoms: C_18  and  C_19 
ROOT
HETATM    1  C   UNL     1     -42.939  56.239 -57.270  1.00  0.00     0.054 A 
HETATM    2  C   UNL     1     -42.517  57.564 -57.220  1.00  0.00     0.149 A 
HETATM    3  N   UNL     1     -42.253  58.321 -58.313  1.00  0.00    -0.235 NA
HETATM    4  C   UNL     1     -42.421  57.737 -59.515  1.00  0.00     0.164 A 
HETATM    5  C   UNL     1     -42.879  56.440 -59.677  1.00  0.00     0.060 A 
HETATM    6  C   UNL     1     -43.132  55.680 -58.535  1.00  0.00     0.035 A 
ENDROOT
BRANCH   1   7
HETATM    7  N   UNL     1     -43.116  55.414 -56.141  1.00  0.00    -0.307 N 
HETATM    8  C   UNL     1     -42.188  55.198 -55.133  1.00  0.00     0.325 C 
HETATM    9  N   UNL     1     -42.536  54.085 -54.392  1.00  0.00    -0.305 N 
HETATM   10  O   UNL     1     -41.186  55.877 -54.964  1.00  0.00    -0.247 OA
HETATM   11  H   UNL     1     -43.113  53.407 -54.864  1.00  0.00     0.171 HD
HETATM   12  H   UNL     1     -44.040  55.040 -55.983  1.00  0.00     0.170 HD
BRANCH   9  13
HETATM   13  C   UNL     1     -41.861  53.620 -53.274  1.00  0.00     0.086 A 
HETATM   14  C   UNL     1     -42.211  54.002 -51.993  1.00  0.00     0.052 A 
HETATM   15  C   UNL     1     -43.280  54.882 -51.466  1.00  0.00     0.072 C 
HETATM   16  N   UNL     1     -41.348  53.347 -51.161  1.00  0.00    -0.280 N 
HETATM   17  H   UNL     1     -41.317  53.365 -50.147  1.00  0.00     0.189 HD
HETATM   18  N   UNL     1     -40.445  52.599 -51.801  1.00  0.00    -0.177 NA
HETATM   19  C   UNL     1     -40.743  52.755 -53.100  1.00  0.00     0.079 A 
HETATM   20  C   UNL     1     -39.883  52.080 -54.105  1.00  0.00     0.075 C 
ENDBRANCH   9  13
ENDBRANCH   1   7
BRANCH   4  21
HETATM   21  O   UNL     1     -42.110  58.441 -60.662  1.00  0.00    -0.334 OA
BRANCH  21  22
HETATM   22  C   UNL     1     -42.826  59.682 -60.730  1.00  0.00     0.182 C 
BRANCH  22  23
HETATM   23  C   UNL     1     -42.086  60.630 -61.672  1.00  0.00     0.065 C 
BRANCH  23  24
HETATM   24  C   UNL     1     -41.217  61.593 -60.902  1.00  0.00    -0.056 A 
HETATM   25  C   UNL     1     -40.350  62.460 -61.580  1.00  0.00     0.007 A 
HETATM   26  C   UNL     1     -39.497  63.306 -60.871  1.00  0.00     0.001 A 
HETATM   27  C   UNL     1     -39.503  63.292 -59.477  1.00  0.00     0.000 A 
HETATM   28  C   UNL     1     -40.361  62.433 -58.793  1.00  0.00     0.001 A 
HETATM   29  C   UNL     1     -41.215  61.586 -59.501  1.00  0.00     0.007 A 
ENDBRANCH  23  24
ENDBRANCH  22  23
ENDBRANCH  21  22
ENDBRANCH   4  21
TORSDOF 6
ENDMDL
MODEL 9
REMARK VINA RESULT:      -6.8      2.948      9.541
REMARK  6 active torsions:
REMARK  status: ('A' for Active; 'I' for Inactive)
REMARK    1  A    between atoms: C_8  and  N_9 
REMARK       I    between atoms: N_9  and  C_10 
REMARK       I    between atoms: C_10  and  N_11 
REMARK    2  A    between atoms: N_11  and  C_12 
REMARK    3  A    between atoms: C_15  and  O_16 
REMARK    4  A    between atoms: O_16  and  C_17 
REMARK    5  A    between atoms: C_17  and  C_18 
REMARK    6  A    between atoms: C_18  and  C_19 
ROOT
HETATM    1  C   UNL     1     -43.309  55.905 -57.065  1.00  0.00     0.054 A 
HETATM    2  C   UNL     1     -43.596  57.267 -57.044  1.00  0.00     0.149 A 
HETATM    3  N   UNL     1     -43.604  58.060 -58.143  1.00  0.00    -0.235 NA
HETATM    4  C   UNL     1     -43.320  57.473 -59.322  1.00  0.00     0.164 A 
HETATM    5  C   UNL     1     -43.065  56.120 -59.460  1.00  0.00     0.060 A 
HETATM    6  C   UNL     1     -43.050  55.328 -58.311  1.00  0.00     0.035 A 
ENDROOT
BRANCH   1   7
HETATM    7  N   UNL     1     -43.196  55.095 -55.917  1.00  0.00    -0.307 N 
HETATM    8  C   UNL     1     -42.100  55.026 -55.070  1.00  0.00     0.325 C 
HETATM    9  N   UNL     1     -42.178  53.899 -54.276  1.00  0.00    -0.305 N 
HETATM   10  O   UNL     1     -41.182  55.833 -55.067  1.00  0.00    -0.247 OA
HETATM   11  H   UNL     1     -42.729  53.140 -54.646  1.00  0.00     0.171 HD
HETATM   12  H   UNL     1     -44.026  54.609 -55.612  1.00  0.00     0.170 HD
BRANCH   9  13
HETATM   13  C   UNL     1     -41.281  53.555 -53.277  1.00  0.00     0.086 A 
HETATM   14  C   UNL     1     -40.530  52.395 -53.330  1.00  0.00     0.052 A 
HETATM   15  C   UNL     1     -40.430  51.312 -54.335  1.00  0.00     0.072 C 
HETATM   16  N   UNL     1     -39.764  52.397 -52.200  1.00  0.00    -0.280 N 
HETATM   17  H   UNL     1     -39.073  51.714 -51.909  1.00  0.00     0.189 HD
HETATM   18  N   UNL     1     -39.982  53.445 -51.400  1.00  0.00    -0.177 NA
HETATM   19  C   UNL     1     -40.912  54.167 -52.044  1.00  0.00     0.079 A 
HETATM   20  C   UNL     1     -41.422  55.399 -51.391  1.00  0.00     0.075 C 
ENDBRANCH   9  13
ENDBRANCH   1   7
BRANCH   4  21
HETATM   21  O   UNL     1     -43.256  58.244 -60.467  1.00  0.00    -0.334 OA
BRANCH  21  22
HETATM   22  C   UNL     1     -42.103  59.097 -60.465  1.00  0.00     0.182 C 
BRANCH  22  23
HETATM   23  C   UNL     1     -42.556  60.543 -60.658  1.00  0.00     0.065 C 
BRANCH  23  24
HETATM   24  C   UNL     1     -41.404  61.501 -60.493  1.00  0.00    -0.056 A 
HETATM   25  C   UNL     1     -40.931  61.825 -59.213  1.00  0.00     0.007 A 
HETATM   26  C   UNL     1     -39.909  62.761 -59.052  1.00  0.00     0.001 A 
HETATM   27  C   UNL     1     -39.351  63.382 -60.168  1.00  0.00     0.000 A 
HETATM   28  C   UNL     1     -39.813  63.068 -61.444  1.00  0.00     0.001 A 
HETATM   29  C   UNL     1     -40.836  62.132 -61.608  1.00  0.00     0.007 A 
ENDBRANCH  23  24
ENDBRANCH  22  23
ENDBRANCH  21  22
ENDBRANCH   4  21
TORSDOF 6
ENDMDL
MODEL 10
REMARK VINA RESULT:      -6.7     14.265     17.710
REMARK  6 active torsions:
REMARK  status: ('A' for Active; 'I' for Inactive)
REMARK    1  A    between atoms: C_8  and  N_9 
REMARK       I    between atoms: N_9  and  C_10 
REMARK       I    between atoms: C_10  and  N_11 
REMARK    2  A    between atoms: N_11  and  C_12 
REMARK    3  A    between atoms: C_15  and  O_16 
REMARK    4  A    between atoms: O_16  and  C_17 
REMARK    5  A    between atoms: C_17  and  C_18 
REMARK    6  A    between atoms: C_18  and  C_19 
ROOT
HETATM    1  C   UNL     1     -35.573  41.718 -54.679  1.00  0.00     0.054 A 
HETATM    2  C   UNL     1     -36.914  41.678 -55.049  1.00  0.00     0.149 A 
HETATM    3  N   UNL     1     -37.357  41.831 -56.321  1.00  0.00    -0.235 NA
HETATM    4  C   UNL     1     -36.425  42.029 -57.273  1.00  0.00     0.164 A 
HETATM    5  C   UNL     1     -35.064  42.042 -57.018  1.00  0.00     0.060 A 
HETATM    6  C   UNL     1     -34.636  41.894 -55.699  1.00  0.00     0.035 A 
ENDROOT
BRANCH   1   7
HETATM    7  N   UNL     1     -35.111  41.663 -53.348  1.00  0.00    -0.307 N 
HETATM    8  C   UNL     1     -34.844  40.512 -52.622  1.00  0.00     0.325 C 
HETATM    9  N   UNL     1     -34.758  40.804 -51.275  1.00  0.00    -0.305 N 
HETATM   10  O   UNL     1     -34.744  39.397 -53.114  1.00  0.00    -0.247 OA
HETATM   11  H   UNL     1     -35.249  41.631 -50.974  1.00  0.00     0.171 HD
HETATM   12  H   UNL     1     -34.833  42.534 -52.920  1.00  0.00     0.170 HD
BRANCH   9  13
HETATM   13  C   UNL     1     -34.443  39.898 -50.274  1.00  0.00     0.086 A 
HETATM   14  C   UNL     1     -33.139  39.538 -49.991  1.00  0.00     0.052 A 
HETATM   15  C   UNL     1     -31.837  39.959 -50.560  1.00  0.00     0.072 C 
HETATM   16  N   UNL     1     -33.215  38.652 -48.955  1.00  0.00    -0.280 N 
HETATM   17  H   UNL     1     -32.455  38.191 -48.466  1.00  0.00     0.189 HD
HETATM   18  N   UNL     1     -34.463  38.379 -48.567  1.00  0.00    -0.177 NA
HETATM   19  C   UNL     1     -35.233  39.135 -49.366  1.00  0.00     0.079 A 
HETATM   20  C   UNL     1     -36.708  39.031 -49.226  1.00  0.00     0.075 C 
ENDBRANCH   9  13
ENDBRANCH   1   7
BRANCH   4  21
HETATM   21  O   UNL     1     -36.821  42.251 -58.577  1.00  0.00    -0.334 OA
BRANCH  21  22
HETATM   22  C   UNL     1     -37.744  41.249 -59.026  1.00  0.00     0.182 C 
BRANCH  22  23
HETATM   23  C   UNL     1     -36.974  40.171 -59.787  1.00  0.00     0.065 C 
BRANCH  23  24
HETATM   24  C   UNL     1     -37.914  39.220 -60.483  1.00  0.00    -0.056 A 
HETATM   25  C   UNL     1     -37.741  38.921 -61.841  1.00  0.00     0.007 A 
HETATM   26  C   UNL     1     -38.646  38.093 -62.505  1.00  0.00     0.001 A 
HETATM   27  C   UNL     1     -39.734  37.558 -61.819  1.00  0.00     0.000 A 
HETATM   28  C   UNL     1     -39.918  37.850 -60.468  1.00  0.00     0.001 A 
HETATM   29  C   UNL     1     -39.012  38.677 -59.802  1.00  0.00     0.007 A 
ENDBRANCH  23  24
ENDBRANCH  22  23
ENDBRANCH  21  22
ENDBRANCH   4  21
TORSDOF 6
ENDMDL
