MODEL 1
REMARK VINA RESULT:      -8.4      0.000      0.000
REMARK  4 active torsions:
REMARK  status: ('A' for Active; 'I' for Inactive)
REMARK    1  A    between atoms: C_2  and  N_3 
REMARK    2  A    between atoms: C_4  and  C_5 
REMARK    3  A    between atoms: C_6  and  O_7 
REMARK    4  A    between atoms: C_19  and  C_20 
REMARK       I    between atoms: C_20  and  N_21 
ROOT
HETATM    1  C   UNL     1     -42.300  57.172 -56.376  1.00  0.00     0.034 A 
HETATM    2  C   UNL     1     -42.677  55.824 -56.435  1.00  0.00     0.057 A 
HETATM    3  C   UNL     1     -43.321  55.333 -57.577  1.00  0.00     0.048 A 
HETATM    4  C   UNL     1     -43.603  56.204 -58.649  1.00  0.00     0.030 A 
HETATM    5  C   UNL     1     -43.232  57.538 -58.540  1.00  0.00     0.063 A 
HETATM    6  N   UNL     1     -43.627  58.119 -59.713  1.00  0.00    -0.277 N 
HETATM    7  H   UNL     1     -43.516  59.089 -59.986  1.00  0.00     0.189 HD
HETATM    8  N   UNL     1     -44.214  57.277 -60.582  1.00  0.00    -0.168 NA
HETATM    9  C   UNL     1     -44.203  56.089 -59.938  1.00  0.00     0.156 A 
HETATM   10  C   UNL     1     -42.581  58.061 -57.420  1.00  0.00     0.034 A 
ENDROOT
BRANCH   2  11
HETATM   11  N   UNL     1     -42.359  54.922 -55.406  1.00  0.00    -0.260 NA
HETATM   12  C   UNL     1     -41.104  54.684 -55.183  1.00  0.00     0.131 C 
BRANCH  12  13
HETATM   13  C   UNL     1     -40.687  53.743 -54.122  1.00  0.00     0.016 A 
HETATM   14  C   UNL     1     -40.669  54.112 -52.772  1.00  0.00     0.077 A 
HETATM   15  C   UNL     1     -40.266  53.201 -51.798  1.00  0.00     0.039 A 
HETATM   16  C   UNL     1     -39.889  51.909 -52.170  1.00  0.00     0.022 A 
HETATM   17  C   UNL     1     -39.914  51.541 -53.515  1.00  0.00     0.012 A 
HETATM   18 BR   UNL     1     -39.414  49.787 -54.013  1.00  0.00    -0.051 Br
HETATM   19  C   UNL     1     -40.307  52.451 -54.499  1.00  0.00     0.034 A 
BRANCH  14  20
HETATM   20  O   UNL     1     -41.030  55.355 -52.334  1.00  0.00    -0.360 OA
HETATM   21  H   UNL     1     -40.219  55.915 -52.339  1.00  0.00     0.217 HD
ENDBRANCH  14  20
ENDBRANCH  12  13
ENDBRANCH   2  11
BRANCH   9  22
HETATM   22  C   UNL     1     -44.750  54.875 -60.561  1.00  0.00     0.270 C 
HETATM   23  N   UNL     1     -45.088  53.893 -59.671  1.00  0.00    -0.365 N 
HETATM   24  H   UNL     1     -44.957  54.069 -58.682  1.00  0.00     0.159 HD
HETATM   25  H   UNL     1     -45.496  53.034 -60.005  1.00  0.00     0.159 HD
HETATM   26  O   UNL     1     -44.909  54.723 -61.768  1.00  0.00    -0.266 OA
ENDBRANCH   9  22
TORSDOF 4
ENDMDL
MODEL 2
REMARK VINA RESULT:      -8.2      1.624      1.901
REMARK  4 active torsions:
REMARK  status: ('A' for Active; 'I' for Inactive)
REMARK    1  A    between atoms: C_2  and  N_3 
REMARK    2  A    between atoms: C_4  and  C_5 
REMARK    3  A    between atoms: C_6  and  O_7 
REMARK    4  A    between atoms: C_19  and  C_20 
REMARK       I    between atoms: C_20  and  N_21 
ROOT
HETATM    1  C   UNL     1     -43.824  56.520 -54.702  1.00  0.00     0.034 A 
HETATM    2  C   UNL     1     -43.104  55.562 -55.428  1.00  0.00     0.057 A 
HETATM    3  C   UNL     1     -42.916  55.734 -56.805  1.00  0.00     0.048 A 
HETATM    4  C   UNL     1     -43.470  56.857 -57.451  1.00  0.00     0.030 A 
HETATM    5  C   UNL     1     -44.195  57.771 -56.697  1.00  0.00     0.063 A 
HETATM    6  N   UNL     1     -44.595  58.733 -57.583  1.00  0.00    -0.277 N 
HETATM    7  H   UNL     1     -45.146  59.560 -57.384  1.00  0.00     0.189 HD
HETATM    8  N   UNL     1     -44.184  58.531 -58.847  1.00  0.00    -0.168 NA
HETATM    9  C   UNL     1     -43.484  57.377 -58.779  1.00  0.00     0.156 A 
HETATM   10  C   UNL     1     -44.398  57.636 -55.321  1.00  0.00     0.034 A 
ENDROOT
BRANCH   2  11
HETATM   11  N   UNL     1     -42.494  54.463 -54.801  1.00  0.00    -0.260 NA
HETATM   12  C   UNL     1     -41.536  54.707 -53.961  1.00  0.00     0.131 C 
BRANCH  12  13
HETATM   13  C   UNL     1     -40.840  53.605 -53.265  1.00  0.00     0.016 A 
HETATM   14  C   UNL     1     -40.485  53.692 -51.913  1.00  0.00     0.077 A 
HETATM   15  C   UNL     1     -39.826  52.636 -51.289  1.00  0.00     0.039 A 
HETATM   16  C   UNL     1     -39.526  51.480 -52.012  1.00  0.00     0.022 A 
HETATM   17  C   UNL     1     -39.885  51.393 -53.357  1.00  0.00     0.012 A 
HETATM   18 BR   UNL     1     -39.488  49.821 -54.330  1.00  0.00    -0.051 Br
HETATM   19  C   UNL     1     -40.537  52.451 -53.993  1.00  0.00     0.034 A 
BRANCH  14  20
HETATM   20  O   UNL     1     -40.752  54.788 -51.141  1.00  0.00    -0.360 OA
HETATM   21  H   UNL     1     -41.449  54.528 -50.494  1.00  0.00     0.217 HD
ENDBRANCH  14  20
ENDBRANCH  12  13
ENDBRANCH   2  11
BRANCH   9  22
HETATM   22  C   UNL     1     -42.840  56.802 -59.969  1.00  0.00     0.270 C 
HETATM   23  N   UNL     1     -41.524  57.146 -60.113  1.00  0.00    -0.365 N 
HETATM   24  H   UNL     1     -41.097  57.737 -59.410  1.00  0.00     0.159 HD
HETATM   25  H   UNL     1     -40.993  56.777 -60.886  1.00  0.00     0.159 HD
HETATM   26  O   UNL     1     -43.400  56.070 -60.778  1.00  0.00    -0.266 OA
ENDBRANCH   9  22
TORSDOF 4
ENDMDL
MODEL 3
REMARK VINA RESULT:      -7.9     15.063     16.920
REMARK  4 active torsions:
REMARK  status: ('A' for Active; 'I' for Inactive)
REMARK    1  A    between atoms: C_2  and  N_3 
REMARK    2  A    between atoms: C_4  and  C_5 
REMARK    3  A    between atoms: C_6  and  O_7 
REMARK    4  A    between atoms: C_19  and  C_20 
REMARK       I    between atoms: C_20  and  N_21 
ROOT
HETATM    1  C   UNL     1     -36.061  41.859 -57.435  1.00  0.00     0.034 A 
HETATM    2  C   UNL     1     -37.203  41.080 -57.212  1.00  0.00     0.057 A 
HETATM    3  C   UNL     1     -37.664  40.883 -55.904  1.00  0.00     0.048 A 
HETATM    4  C   UNL     1     -36.962  41.454 -54.823  1.00  0.00     0.030 A 
HETATM    5  C   UNL     1     -35.822  42.201 -55.088  1.00  0.00     0.063 A 
HETATM    6  N   UNL     1     -35.372  42.618 -53.865  1.00  0.00    -0.277 N 
HETATM    7  H   UNL     1     -34.557  43.189 -53.673  1.00  0.00     0.189 HD
HETATM    8  N   UNL     1     -36.126  42.216 -52.828  1.00  0.00    -0.168 NA
HETATM    9  C   UNL     1     -37.115  41.498 -53.406  1.00  0.00     0.156 A 
HETATM   10  C   UNL     1     -35.337  42.425 -56.379  1.00  0.00     0.034 A 
ENDROOT
BRANCH   2  11
HETATM   11  N   UNL     1     -37.954  40.546 -58.273  1.00  0.00    -0.260 NA
HETATM   12  C   UNL     1     -37.496  39.481 -58.855  1.00  0.00     0.131 C 
BRANCH  12  13
HETATM   13  C   UNL     1     -38.224  38.862 -59.983  1.00  0.00     0.016 A 
HETATM   14  C   UNL     1     -37.712  38.868 -61.286  1.00  0.00     0.077 A 
HETATM   15  C   UNL     1     -38.426  38.278 -62.326  1.00  0.00     0.039 A 
HETATM   16  C   UNL     1     -39.655  37.668 -62.066  1.00  0.00     0.022 A 
HETATM   17  C   UNL     1     -40.160  37.658 -60.766  1.00  0.00     0.012 A 
HETATM   18 BR   UNL     1     -41.819  36.820 -60.415  1.00  0.00    -0.051 Br
HETATM   19  C   UNL     1     -39.456  38.255 -59.719  1.00  0.00     0.034 A 
BRANCH  14  20
HETATM   20  O   UNL     1     -36.514  39.439 -61.614  1.00  0.00    -0.360 OA
HETATM   21  H   UNL     1     -35.819  38.751 -61.495  1.00  0.00     0.217 HD
ENDBRANCH  14  20
ENDBRANCH  12  13
ENDBRANCH   2  11
BRANCH   9  22
HETATM   22  C   UNL     1     -38.182  40.882 -52.605  1.00  0.00     0.270 C 
HETATM   23  N   UNL     1     -39.270  41.688 -52.408  1.00  0.00    -0.365 N 
HETATM   24  H   UNL     1     -39.271  42.612 -52.824  1.00  0.00     0.159 HD
HETATM   25  H   UNL     1     -40.063  41.341 -51.891  1.00  0.00     0.159 HD
HETATM   26  O   UNL     1     -38.139  39.746 -52.142  1.00  0.00    -0.266 OA
ENDBRANCH   9  22
TORSDOF 4
ENDMDL
MODEL 4
REMARK VINA RESULT:      -7.8      3.669      7.668
REMARK  4 active torsions:
REMARK  status: ('A' for Active; 'I' for Inactive)
REMARK    1  A    between atoms: C_2  and  N_3 
REMARK    2  A    between atoms: C_4  and  C_5 
REMARK    3  A    between atoms: C_6  and  O_7 
REMARK    4  A    between atoms: C_19  and  C_20 
REMARK       I    between atoms: C_20  and  N_21 
ROOT
HETATM    1  C   UNL     1     -40.931  55.115 -52.789  1.00  0.00     0.034 A 
HETATM    2  C   UNL     1     -40.922  54.601 -54.092  1.00  0.00     0.057 A 
HETATM    3  C   UNL     1     -40.604  53.254 -54.304  1.00  0.00     0.048 A 
HETATM    4  C   UNL     1     -40.276  52.433 -53.206  1.00  0.00     0.030 A 
HETATM    5  C   UNL     1     -40.276  52.988 -51.933  1.00  0.00     0.063 A 
HETATM    6  N   UNL     1     -39.929  51.967 -51.093  1.00  0.00    -0.277 N 
HETATM    7  H   UNL     1     -39.831  52.006 -50.085  1.00  0.00     0.189 HD
HETATM    8  N   UNL     1     -39.713  50.790 -51.707  1.00  0.00    -0.168 NA
HETATM    9  C   UNL     1     -39.927  51.063 -53.014  1.00  0.00     0.156 A 
HETATM   10  C   UNL     1     -40.595  54.326 -51.683  1.00  0.00     0.034 A 
ENDROOT
BRANCH   2  11
HETATM   11  N   UNL     1     -41.298  55.381 -55.198  1.00  0.00    -0.260 NA
HETATM   12  C   UNL     1     -42.444  55.128 -55.749  1.00  0.00     0.131 C 
BRANCH  12  13
HETATM   13  C   UNL     1     -42.910  55.900 -56.920  1.00  0.00     0.016 A 
HETATM   14  C   UNL     1     -42.782  57.292 -56.986  1.00  0.00     0.077 A 
HETATM   15  C   UNL     1     -43.236  57.989 -58.103  1.00  0.00     0.039 A 
HETATM   16  C   UNL     1     -43.813  57.294 -59.167  1.00  0.00     0.022 A 
HETATM   17  C   UNL     1     -43.935  55.906 -59.102  1.00  0.00     0.012 A 
HETATM   18 BR   UNL     1     -44.707  54.967 -60.551  1.00  0.00    -0.051 Br
HETATM   19  C   UNL     1     -43.492  55.201 -57.982  1.00  0.00     0.034 A 
BRANCH  14  20
HETATM   20  O   UNL     1     -42.222  58.038 -55.986  1.00  0.00    -0.360 OA
HETATM   21  H   UNL     1     -42.596  58.947 -56.054  1.00  0.00     0.217 HD
ENDBRANCH  14  20
ENDBRANCH  12  13
ENDBRANCH   2  11
BRANCH   9  22
HETATM   22  C   UNL     1     -39.806  50.021 -54.043  1.00  0.00     0.270 C 
HETATM   23  N   UNL     1     -40.960  49.788 -54.741  1.00  0.00    -0.365 N 
HETATM   24  H   UNL     1     -41.781  50.338 -54.519  1.00  0.00     0.159 HD
HETATM   25  H   UNL     1     -40.966  49.108 -55.484  1.00  0.00     0.159 HD
HETATM   26  O   UNL     1     -38.778  49.398 -54.286  1.00  0.00    -0.266 OA
ENDBRANCH   9  22
TORSDOF 4
ENDMDL
MODEL 5
REMARK VINA RESULT:      -7.8      3.668      8.243
REMARK  4 active torsions:
REMARK  status: ('A' for Active; 'I' for Inactive)
REMARK    1  A    between atoms: C_2  and  N_3 
REMARK    2  A    between atoms: C_4  and  C_5 
REMARK    3  A    between atoms: C_6  and  O_7 
REMARK    4  A    between atoms: C_19  and  C_20 
REMARK       I    between atoms: C_20  and  N_21 
ROOT
HETATM    1  C   UNL     1     -40.099  52.672 -54.542  1.00  0.00     0.034 A 
HETATM    2  C   UNL     1     -40.786  53.864 -54.280  1.00  0.00     0.057 A 
HETATM    3  C   UNL     1     -41.115  54.199 -52.960  1.00  0.00     0.048 A 
HETATM    4  C   UNL     1     -40.771  53.323 -51.911  1.00  0.00     0.030 A 
HETATM    5  C   UNL     1     -40.109  52.141 -52.218  1.00  0.00     0.063 A 
HETATM    6  N   UNL     1     -39.912  51.516 -51.018  1.00  0.00    -0.277 N 
HETATM    7  H   UNL     1     -39.456  50.625 -50.857  1.00  0.00     0.189 HD
HETATM    8  N   UNL     1     -40.377  52.193 -49.954  1.00  0.00    -0.168 NA
HETATM    9  C   UNL     1     -40.908  53.314 -50.491  1.00  0.00     0.156 A 
HETATM   10  C   UNL     1     -39.759  51.778 -53.521  1.00  0.00     0.034 A 
ENDROOT
BRANCH   2  11
HETATM   11  N   UNL     1     -41.092  54.782 -55.298  1.00  0.00    -0.260 NA
HETATM   12  C   UNL     1     -42.344  54.967 -55.583  1.00  0.00     0.131 C 
BRANCH  12  13
HETATM   13  C   UNL     1     -42.748  55.911 -56.645  1.00  0.00     0.016 A 
HETATM   14  C   UNL     1     -42.563  57.293 -56.517  1.00  0.00     0.077 A 
HETATM   15  C   UNL     1     -42.960  58.155 -57.536  1.00  0.00     0.039 A 
HETATM   16  C   UNL     1     -43.536  57.637 -58.698  1.00  0.00     0.022 A 
HETATM   17  C   UNL     1     -43.714  56.260 -58.827  1.00  0.00     0.012 A 
HETATM   18 BR   UNL     1     -44.483  55.561 -60.407  1.00  0.00    -0.051 Br
HETATM   19  C   UNL     1     -43.328  55.390 -57.806  1.00  0.00     0.034 A 
BRANCH  14  20
HETATM   20  O   UNL     1     -42.001  57.870 -55.412  1.00  0.00    -0.360 OA
HETATM   21  H   UNL     1     -41.495  57.168 -54.940  1.00  0.00     0.217 HD
ENDBRANCH  14  20
ENDBRANCH  12  13
ENDBRANCH   2  11
BRANCH   9  22
HETATM   22  C   UNL     1     -41.520  54.351 -49.648  1.00  0.00     0.270 C 
HETATM   23  N   UNL     1     -40.828  54.618 -48.499  1.00  0.00    -0.365 N 
HETATM   24  H   UNL     1     -39.967  54.114 -48.322  1.00  0.00     0.159 HD
HETATM   25  H   UNL     1     -41.159  55.333 -47.870  1.00  0.00     0.159 HD
HETATM   26  O   UNL     1     -42.556  54.948 -49.921  1.00  0.00    -0.266 OA
ENDBRANCH   9  22
TORSDOF 4
ENDMDL
MODEL 6
REMARK VINA RESULT:      -7.7      5.907      8.220
REMARK  4 active torsions:
REMARK  status: ('A' for Active; 'I' for Inactive)
REMARK    1  A    between atoms: C_2  and  N_3 
REMARK    2  A    between atoms: C_4  and  C_5 
REMARK    3  A    between atoms: C_6  and  O_7 
REMARK    4  A    between atoms: C_19  and  C_20 
REMARK       I    between atoms: C_20  and  N_21 
ROOT
HETATM    1  C   UNL     1     -40.808  54.776 -54.355  1.00  0.00     0.034 A 
HETATM    2  C   UNL     1     -41.021  54.829 -52.971  1.00  0.00     0.057 A 
HETATM    3  C   UNL     1     -40.736  53.707 -52.183  1.00  0.00     0.048 A 
HETATM    4  C   UNL     1     -40.259  52.528 -52.791  1.00  0.00     0.030 A 
HETATM    5  C   UNL     1     -40.084  52.512 -54.169  1.00  0.00     0.063 A 
HETATM    6  N   UNL     1     -39.618  51.259 -54.458  1.00  0.00    -0.277 N 
HETATM    7  H   UNL     1     -39.377  50.889 -55.371  1.00  0.00     0.189 HD
HETATM    8  N   UNL     1     -39.464  50.461 -53.388  1.00  0.00    -0.168 NA
HETATM    9  C   UNL     1     -39.854  51.234 -52.349  1.00  0.00     0.156 A 
HETATM   10  C   UNL     1     -40.350  53.614 -54.986  1.00  0.00     0.034 A 
ENDROOT
BRANCH   2  11
HETATM   11  N   UNL     1     -41.441  56.006 -52.332  1.00  0.00    -0.260 NA
HETATM   12  C   UNL     1     -41.295  57.123 -52.975  1.00  0.00     0.131 C 
BRANCH  12  13
HETATM   13  C   UNL     1     -41.708  58.406 -52.369  1.00  0.00     0.016 A 
HETATM   14  C   UNL     1     -41.639  58.629 -50.989  1.00  0.00     0.077 A 
HETATM   15  C   UNL     1     -42.041  59.849 -50.451  1.00  0.00     0.039 A 
HETATM   16  C   UNL     1     -42.505  60.860 -51.294  1.00  0.00     0.022 A 
HETATM   17  C   UNL     1     -42.567  60.639 -52.670  1.00  0.00     0.012 A 
HETATM   18 BR   UNL     1     -43.185  62.016 -53.810  1.00  0.00    -0.051 Br
HETATM   19  C   UNL     1     -42.176  59.416 -53.216  1.00  0.00     0.034 A 
BRANCH  14  20
HETATM   20  O   UNL     1     -41.190  57.688 -50.104  1.00  0.00    -0.360 OA
HETATM   21  H   UNL     1     -41.921  57.043 -49.966  1.00  0.00     0.217 HD
ENDBRANCH  14  20
ENDBRANCH  12  13
ENDBRANCH   2  11
BRANCH   9  22
HETATM   22  C   UNL     1     -39.823  50.732 -50.968  1.00  0.00     0.270 C 
HETATM   23  N   UNL     1     -39.150  49.551 -50.818  1.00  0.00    -0.365 N 
HETATM   24  H   UNL     1     -38.724  49.128 -51.633  1.00  0.00     0.159 HD
HETATM   25  H   UNL     1     -39.055  49.143 -49.901  1.00  0.00     0.159 HD
HETATM   26  O   UNL     1     -40.339  51.299 -50.010  1.00  0.00    -0.266 OA
ENDBRANCH   9  22
TORSDOF 4
ENDMDL
MODEL 7
REMARK VINA RESULT:      -7.7      2.302      2.744
REMARK  4 active torsions:
REMARK  status: ('A' for Active; 'I' for Inactive)
REMARK    1  A    between atoms: C_2  and  N_3 
REMARK    2  A    between atoms: C_4  and  C_5 
REMARK    3  A    between atoms: C_6  and  O_7 
REMARK    4  A    between atoms: C_19  and  C_20 
REMARK       I    between atoms: C_20  and  N_21 
ROOT
HETATM    1  C   UNL     1     -43.949  56.900 -54.712  1.00  0.00     0.034 A 
HETATM    2  C   UNL     1     -43.191  55.893 -55.324  1.00  0.00     0.057 A 
HETATM    3  C   UNL     1     -42.985  55.926 -56.709  1.00  0.00     0.048 A 
HETATM    4  C   UNL     1     -43.560  56.959 -57.476  1.00  0.00     0.030 A 
HETATM    5  C   UNL     1     -44.323  57.924 -56.832  1.00  0.00     0.063 A 
HETATM    6  N   UNL     1     -44.735  58.777 -57.819  1.00  0.00    -0.277 N 
HETATM    7  H   UNL     1     -45.312  59.604 -57.715  1.00  0.00     0.189 HD
HETATM    8  N   UNL     1     -44.298  58.457 -59.049  1.00  0.00    -0.168 NA
HETATM    9  C   UNL     1     -43.567  57.337 -58.852  1.00  0.00     0.156 A 
HETATM   10  C   UNL     1     -44.544  57.928 -55.452  1.00  0.00     0.034 A 
ENDROOT
BRANCH   2  11
HETATM   11  N   UNL     1     -42.561  54.884 -54.578  1.00  0.00    -0.260 NA
HETATM   12  C   UNL     1     -41.911  55.242 -53.514  1.00  0.00     0.131 C 
BRANCH  12  13
HETATM   13  C   UNL     1     -41.216  54.241 -52.678  1.00  0.00     0.016 A 
HETATM   14  C   UNL     1     -40.600  53.113 -53.233  1.00  0.00     0.077 A 
HETATM   15  C   UNL     1     -39.957  52.187 -52.414  1.00  0.00     0.039 A 
HETATM   16  C   UNL     1     -39.917  52.391 -51.034  1.00  0.00     0.022 A 
HETATM   17  C   UNL     1     -40.526  53.518 -50.483  1.00  0.00     0.012 A 
HETATM   18 BR   UNL     1     -40.460  53.797 -48.614  1.00  0.00    -0.051 Br
HETATM   19  C   UNL     1     -41.182  54.446 -51.295  1.00  0.00     0.034 A 
BRANCH  14  20
HETATM   20  O   UNL     1     -40.592  52.852 -54.575  1.00  0.00    -0.360 OA
HETATM   21  H   UNL     1     -40.117  53.595 -55.015  1.00  0.00     0.217 HD
ENDBRANCH  14  20
ENDBRANCH  12  13
ENDBRANCH   2  11
BRANCH   9  22
HETATM   22  C   UNL     1     -42.888  56.660 -59.966  1.00  0.00     0.270 C 
HETATM   23  N   UNL     1     -41.560  56.967 -60.080  1.00  0.00    -0.365 N 
HETATM   24  H   UNL     1     -41.149  57.603 -59.407  1.00  0.00     0.159 HD
HETATM   25  H   UNL     1     -41.006  56.531 -60.800  1.00  0.00     0.159 HD
HETATM   26  O   UNL     1     -43.430  55.879 -60.741  1.00  0.00    -0.266 OA
ENDBRANCH   9  22
TORSDOF 4
ENDMDL
MODEL 8
REMARK VINA RESULT:      -7.6      3.881      8.074
REMARK  4 active torsions:
REMARK  status: ('A' for Active; 'I' for Inactive)
REMARK    1  A    between atoms: C_2  and  N_3 
REMARK    2  A    between atoms: C_4  and  C_5 
REMARK    3  A    between atoms: C_6  and  O_7 
REMARK    4  A    between atoms: C_19  and  C_20 
REMARK       I    between atoms: C_20  and  N_21 
ROOT
HETATM    1  C   UNL     1     -41.268  55.324 -52.972  1.00  0.00     0.034 A 
HETATM    2  C   UNL     1     -41.080  54.588 -54.149  1.00  0.00     0.057 A 
HETATM    3  C   UNL     1     -40.626  53.265 -54.075  1.00  0.00     0.048 A 
HETATM    4  C   UNL     1     -40.343  52.693 -52.818  1.00  0.00     0.030 A 
HETATM    5  C   UNL     1     -40.523  53.465 -51.677  1.00  0.00     0.063 A 
HETATM    6  N   UNL     1     -40.177  52.652 -50.633  1.00  0.00    -0.277 N 
HETATM    7  H   UNL     1     -40.186  52.883 -49.646  1.00  0.00     0.189 HD
HETATM    8  N   UNL     1     -39.798  51.414 -50.994  1.00  0.00    -0.168 NA
HETATM    9  C   UNL     1     -39.899  51.424 -52.342  1.00  0.00     0.156 A 
HETATM   10  C   UNL     1     -40.980  54.785 -51.712  1.00  0.00     0.034 A 
ENDROOT
BRANCH   2  11
HETATM   11  N   UNL     1     -41.406  55.113 -55.410  1.00  0.00    -0.260 NA
HETATM   12  C   UNL     1     -42.091  56.214 -55.442  1.00  0.00     0.131 C 
BRANCH  12  13
HETATM   13  C   UNL     1     -42.480  56.828 -56.729  1.00  0.00     0.016 A 
HETATM   14  C   UNL     1     -43.238  56.135 -57.680  1.00  0.00     0.077 A 
HETATM   15  C   UNL     1     -43.583  56.742 -58.885  1.00  0.00     0.039 A 
HETATM   16  C   UNL     1     -43.179  58.054 -59.142  1.00  0.00     0.022 A 
HETATM   17  C   UNL     1     -42.429  58.745 -58.190  1.00  0.00     0.012 A 
HETATM   18 BR   UNL     1     -41.894  60.526 -58.536  1.00  0.00    -0.051 Br
HETATM   19  C   UNL     1     -42.070  58.140 -56.984  1.00  0.00     0.034 A 
BRANCH  14  20
HETATM   20  O   UNL     1     -43.674  54.852 -57.495  1.00  0.00    -0.360 OA
HETATM   21  H   UNL     1     -44.150  54.584 -58.315  1.00  0.00     0.217 HD
ENDBRANCH  14  20
ENDBRANCH  12  13
ENDBRANCH   2  11
BRANCH   9  22
HETATM   22  C   UNL     1     -39.583  50.232 -53.141  1.00  0.00     0.270 C 
HETATM   23  N   UNL     1     -39.444  49.086 -52.407  1.00  0.00    -0.365 N 
HETATM   24  H   UNL     1     -39.578  49.134 -51.404  1.00  0.00     0.159 HD
HETATM   25  H   UNL     1     -39.253  48.214 -52.873  1.00  0.00     0.159 HD
HETATM   26  O   UNL     1     -39.454  50.226 -54.361  1.00  0.00    -0.266 OA
ENDBRANCH   9  22
TORSDOF 4
ENDMDL
MODEL 9
REMARK VINA RESULT:      -7.2     15.192     17.024
REMARK  4 active torsions:
REMARK  status: ('A' for Active; 'I' for Inactive)
REMARK    1  A    between atoms: C_2  and  N_3 
REMARK    2  A    between atoms: C_4  and  C_5 
REMARK    3  A    between atoms: C_6  and  O_7 
REMARK    4  A    between atoms: C_19  and  C_20 
REMARK       I    between atoms: C_20  and  N_21 
ROOT
HETATM    1  C   UNL     1     -35.571  41.876 -57.320  1.00  0.00     0.034 A 
HETATM    2  C   UNL     1     -36.693  41.047 -57.195  1.00  0.00     0.057 A 
HETATM    3  C   UNL     1     -37.269  40.846 -55.934  1.00  0.00     0.048 A 
HETATM    4  C   UNL     1     -36.703  41.463 -54.801  1.00  0.00     0.030 A 
HETATM    5  C   UNL     1     -35.577  42.260 -54.967  1.00  0.00     0.063 A 
HETATM    6  N   UNL     1     -35.267  42.713 -53.714  1.00  0.00    -0.277 N 
HETATM    7  H   UNL     1     -34.501  43.324 -53.454  1.00  0.00     0.189 HD
HETATM    8  N   UNL     1     -36.100  42.289 -52.748  1.00  0.00    -0.168 NA
HETATM    9  C   UNL     1     -36.994  41.518 -53.406  1.00  0.00     0.156 A 
HETATM   10  C   UNL     1     -34.980  42.489 -56.209  1.00  0.00     0.034 A 
ENDROOT
BRANCH   2  11
HETATM   11  N   UNL     1     -37.311  40.465 -58.313  1.00  0.00    -0.260 NA
HETATM   12  C   UNL     1     -36.610  39.639 -59.025  1.00  0.00     0.131 C 
BRANCH  12  13
HETATM   13  C   UNL     1     -37.186  38.989 -60.221  1.00  0.00     0.016 A 
HETATM   14  C   UNL     1     -38.551  38.695 -60.317  1.00  0.00     0.077 A 
HETATM   15  C   UNL     1     -39.060  38.077 -61.457  1.00  0.00     0.039 A 
HETATM   16  C   UNL     1     -38.206  37.759 -62.514  1.00  0.00     0.022 A 
HETATM   17  C   UNL     1     -36.847  38.058 -62.419  1.00  0.00     0.012 A 
HETATM   18 BR   UNL     1     -35.695  37.637 -63.859  1.00  0.00    -0.051 Br
HETATM   19  C   UNL     1     -36.326  38.668 -61.276  1.00  0.00     0.034 A 
BRANCH  14  20
HETATM   20  O   UNL     1     -39.448  38.983 -59.326  1.00  0.00    -0.360 OA
HETATM   21  H   UNL     1     -40.270  39.308 -59.760  1.00  0.00     0.217 HD
ENDBRANCH  14  20
ENDBRANCH  12  13
ENDBRANCH   2  11
BRANCH   9  22
HETATM   22  C   UNL     1     -38.105  40.863 -52.701  1.00  0.00     0.270 C 
HETATM   23  N   UNL     1     -39.188  41.672 -52.491  1.00  0.00    -0.365 N 
HETATM   24  H   UNL     1     -39.157  42.624 -52.836  1.00  0.00     0.159 HD
HETATM   25  H   UNL     1     -40.009  41.302 -52.037  1.00  0.00     0.159 HD
HETATM   26  O   UNL     1     -38.099  39.696 -52.324  1.00  0.00    -0.266 OA
ENDBRANCH   9  22
TORSDOF 4
ENDMDL
MODEL 10
REMARK VINA RESULT:      -7.2      4.044      8.162
REMARK  4 active torsions:
REMARK  status: ('A' for Active; 'I' for Inactive)
REMARK    1  A    between atoms: C_2  and  N_3 
REMARK    2  A    between atoms: C_4  and  C_5 
REMARK    3  A    between atoms: C_6  and  O_7 
REMARK    4  A    between atoms: C_19  and  C_20 
REMARK       I    between atoms: C_20  and  N_21 
ROOT
HETATM    1  C   UNL     1     -42.210  57.771 -53.296  1.00  0.00     0.034 A 
HETATM    2  C   UNL     1     -41.746  56.595 -53.900  1.00  0.00     0.057 A 
HETATM    3  C   UNL     1     -41.275  55.545 -53.103  1.00  0.00     0.048 A 
HETATM    4  C   UNL     1     -41.252  55.688 -51.701  1.00  0.00     0.030 A 
HETATM    5  C   UNL     1     -41.701  56.879 -51.144  1.00  0.00     0.063 A 
HETATM    6  N   UNL     1     -41.562  56.720 -49.793  1.00  0.00    -0.277 N 
HETATM    7  H   UNL     1     -41.793  57.391 -49.069  1.00  0.00     0.189 HD
HETATM    8  N   UNL     1     -41.072  55.525 -49.420  1.00  0.00    -0.168 NA
HETATM    9  C   UNL     1     -40.879  54.875 -50.590  1.00  0.00     0.156 A 
HETATM   10  C   UNL     1     -42.184  57.945 -51.907  1.00  0.00     0.034 A 
ENDROOT
BRANCH   2  11
HETATM   11  N   UNL     1     -41.810  56.404 -55.290  1.00  0.00    -0.260 NA
HETATM   12  C   UNL     1     -42.590  57.186 -55.969  1.00  0.00     0.131 C 
BRANCH  12  13
HETATM   13  C   UNL     1     -42.717  57.045 -57.435  1.00  0.00     0.016 A 
HETATM   14  C   UNL     1     -43.180  55.864 -58.027  1.00  0.00     0.077 A 
HETATM   15  C   UNL     1     -43.282  55.764 -59.412  1.00  0.00     0.039 A 
HETATM   16  C   UNL     1     -42.932  56.852 -60.215  1.00  0.00     0.022 A 
HETATM   17  C   UNL     1     -42.477  58.030 -59.623  1.00  0.00     0.012 A 
HETATM   18 BR   UNL     1     -42.015  59.505 -60.712  1.00  0.00    -0.051 Br
HETATM   19  C   UNL     1     -42.361  58.135 -58.235  1.00  0.00     0.034 A 
BRANCH  14  20
HETATM   20  O   UNL     1     -43.546  54.762 -57.306  1.00  0.00    -0.360 OA
HETATM   21  H   UNL     1     -43.045  53.995 -57.667  1.00  0.00     0.217 HD
ENDBRANCH  14  20
ENDBRANCH  12  13
ENDBRANCH   2  11
BRANCH   9  22
HETATM   22  C   UNL     1     -40.358  53.502 -50.625  1.00  0.00     0.270 C 
HETATM   23  N   UNL     1     -40.447  52.839 -49.431  1.00  0.00    -0.365 N 
HETATM   24  H   UNL     1     -40.863  53.317 -48.641  1.00  0.00     0.159 HD
HETATM   25  H   UNL     1     -40.137  51.882 -49.366  1.00  0.00     0.159 HD
HETATM   26  O   UNL     1     -39.883  52.962 -51.619  1.00  0.00    -0.266 OA
ENDBRANCH   9  22
TORSDOF 4
ENDMDL
