MODEL 1
REMARK VINA RESULT:      -8.5      0.000      0.000
REMARK  1 active torsions:
REMARK  status: ('A' for Active; 'I' for Inactive)
REMARK    1  A    between atoms: C_6  and  N_7 
ROOT
HETATM    1  N   UNL     1     -41.938  55.140 -52.014  1.00  0.00    -0.320 N 
HETATM    2  C   UNL     1     -43.294  55.237 -51.595  1.00  0.00     0.141 C 
HETATM    3  N   UNL     1     -43.957  54.207 -51.151  1.00  0.00    -0.380 N 
HETATM    4  H   UNL     1     -44.919  54.315 -50.865  1.00  0.00     0.158 HD
HETATM    5  H   UNL     1     -43.487  53.313 -51.093  1.00  0.00     0.158 HD
HETATM    6  S   UNL     1     -43.955  56.809 -51.759  1.00  0.00    -0.086 SA
HETATM    7  C   UNL     1     -42.553  57.332 -52.839  1.00  0.00     0.093 C 
HETATM    8  C   UNL     1     -41.357  56.448 -52.407  1.00  0.00     0.121 C 
HETATM    9  C   UNL     1     -42.166  58.791 -52.720  1.00  0.00     0.158 C 
HETATM   10  S   UNL     1     -40.919  58.871 -51.461  1.00  0.00     0.147 S 
HETATM   11  O   UNL     1     -41.495  59.447 -50.267  1.00  0.00    -0.228 OA
HETATM   12  O   UNL     1     -39.707  59.383 -52.065  1.00  0.00    -0.228 OA
HETATM   13  C   UNL     1     -40.709  57.132 -51.203  1.00  0.00     0.167 C 
ENDROOT
BRANCH   1  14
HETATM   14  C   UNL     1     -41.321  53.987 -52.545  1.00  0.00     0.048 A 
HETATM   15  C   UNL     1     -41.635  53.531 -53.851  1.00  0.00    -0.034 A 
HETATM   16  C   UNL     1     -41.060  52.342 -54.337  1.00  0.00     0.015 A 
HETATM   17  C   UNL     1     -42.588  54.254 -54.766  1.00  0.00     0.050 C 
HETATM   18  C   UNL     1     -40.161  51.604 -53.568  1.00  0.00    -0.061 A 
HETATM   19  C   UNL     1     -39.526  50.360 -54.115  1.00  0.00     0.048 C 
HETATM   20  C   UNL     1     -39.823  52.074 -52.299  1.00  0.00     0.015 A 
HETATM   21  C   UNL     1     -40.408  53.237 -51.767  1.00  0.00    -0.034 A 
HETATM   22  C   UNL     1     -40.007  53.626 -50.370  1.00  0.00     0.050 C 
ENDBRANCH   1  14
TORSDOF 1
ENDMDL
MODEL 2
REMARK VINA RESULT:      -8.5      0.155      1.957
REMARK  1 active torsions:
REMARK  status: ('A' for Active; 'I' for Inactive)
REMARK    1  A    between atoms: C_6  and  N_7 
ROOT
HETATM    1  N   UNL     1     -42.018  55.198 -51.892  1.00  0.00    -0.320 N 
HETATM    2  C   UNL     1     -43.362  55.338 -51.446  1.00  0.00     0.141 C 
HETATM    3  N   UNL     1     -44.046  54.331 -50.982  1.00  0.00    -0.380 N 
HETATM    4  H   UNL     1     -44.998  54.469 -50.677  1.00  0.00     0.158 HD
HETATM    5  H   UNL     1     -43.601  53.423 -50.929  1.00  0.00     0.158 HD
HETATM    6  S   UNL     1     -43.978  56.928 -51.605  1.00  0.00    -0.086 SA
HETATM    7  C   UNL     1     -42.584  57.404 -52.716  1.00  0.00     0.093 C 
HETATM    8  C   UNL     1     -41.406  56.486 -52.304  1.00  0.00     0.121 C 
HETATM    9  C   UNL     1     -42.151  58.851 -52.614  1.00  0.00     0.158 C 
HETATM   10  S   UNL     1     -40.876  58.900 -51.382  1.00  0.00     0.147 S 
HETATM   11  O   UNL     1     -41.410  59.499 -50.178  1.00  0.00    -0.228 OA
HETATM   12  O   UNL     1     -39.662  59.372 -52.013  1.00  0.00    -0.228 OA
HETATM   13  C   UNL     1     -40.713  57.156 -51.118  1.00  0.00     0.167 C 
ENDROOT
BRANCH   1  14
HETATM   14  C   UNL     1     -41.446  54.025 -52.429  1.00  0.00     0.048 A 
HETATM   15  C   UNL     1     -40.497  53.275 -51.689  1.00  0.00    -0.034 A 
HETATM   16  C   UNL     1     -39.888  52.146 -52.267  1.00  0.00     0.015 A 
HETATM   17  C   UNL     1     -40.077  53.636 -50.288  1.00  0.00     0.050 C 
HETATM   18  C   UNL     1     -40.214  51.728 -53.557  1.00  0.00    -0.061 A 
HETATM   19  C   UNL     1     -39.585  50.499 -54.146  1.00  0.00     0.048 C 
HETATM   20  C   UNL     1     -41.176  52.443 -54.269  1.00  0.00     0.015 A 
HETATM   21  C   UNL     1     -41.776  53.598 -53.736  1.00  0.00    -0.034 A 
HETATM   22  C   UNL     1     -42.766  54.319 -54.610  1.00  0.00     0.050 C 
ENDBRANCH   1  14
TORSDOF 1
ENDMDL
MODEL 3
REMARK VINA RESULT:      -8.0      1.349      1.545
REMARK  1 active torsions:
REMARK  status: ('A' for Active; 'I' for Inactive)
REMARK    1  A    between atoms: C_6  and  N_7 
ROOT
HETATM    1  N   UNL     1     -41.759  55.341 -52.408  1.00  0.00    -0.320 N 
HETATM    2  C   UNL     1     -43.013  55.503 -53.058  1.00  0.00     0.141 C 
HETATM    3  N   UNL     1     -43.937  54.585 -53.022  1.00  0.00    -0.380 N 
HETATM    4  H   UNL     1     -44.814  54.737 -53.499  1.00  0.00     0.158 HD
HETATM    5  H   UNL     1     -43.757  53.734 -52.506  1.00  0.00     0.158 HD
HETATM    6  S   UNL     1     -43.166  56.990 -53.897  1.00  0.00    -0.086 SA
HETATM    7  C   UNL     1     -41.348  57.287 -53.788  1.00  0.00     0.093 C 
HETATM    8  C   UNL     1     -40.890  56.540 -52.511  1.00  0.00     0.121 C 
HETATM    9  C   UNL     1     -40.945  58.743 -53.690  1.00  0.00     0.158 C 
HETATM   10  S   UNL     1     -40.872  59.119 -51.958  1.00  0.00     0.147 S 
HETATM   11  O   UNL     1     -42.014  59.933 -51.607  1.00  0.00    -0.228 OA
HETATM   12  O   UNL     1     -39.514  59.507 -51.640  1.00  0.00    -0.228 OA
HETATM   13  C   UNL     1     -41.133  57.483 -51.333  1.00  0.00     0.167 C 
ENDROOT
BRANCH   1  14
HETATM   14  C   UNL     1     -41.112  54.110 -52.162  1.00  0.00     0.048 A 
HETATM   15  C   UNL     1     -40.561  53.353 -53.228  1.00  0.00    -0.034 A 
HETATM   16  C   UNL     1     -39.980  52.097 -52.972  1.00  0.00     0.015 A 
HETATM   17  C   UNL     1     -40.579  53.820 -54.661  1.00  0.00     0.050 C 
HETATM   18  C   UNL     1     -39.912  51.582 -51.679  1.00  0.00    -0.061 A 
HETATM   19  C   UNL     1     -39.254  50.259 -51.415  1.00  0.00     0.048 C 
HETATM   20  C   UNL     1     -40.418  52.343 -50.626  1.00  0.00     0.015 A 
HETATM   21  C   UNL     1     -41.039  53.585 -50.851  1.00  0.00    -0.034 A 
HETATM   22  C   UNL     1     -41.594  54.300 -49.649  1.00  0.00     0.050 C 
ENDBRANCH   1  14
TORSDOF 1
ENDMDL
MODEL 4
REMARK VINA RESULT:      -7.9      1.411      2.285
REMARK  1 active torsions:
REMARK  status: ('A' for Active; 'I' for Inactive)
REMARK    1  A    between atoms: C_6  and  N_7 
ROOT
HETATM    1  N   UNL     1     -41.850  55.430 -52.483  1.00  0.00    -0.320 N 
HETATM    2  C   UNL     1     -43.058  55.634 -53.206  1.00  0.00     0.141 C 
HETATM    3  N   UNL     1     -44.001  54.736 -53.246  1.00  0.00    -0.380 N 
HETATM    4  H   UNL     1     -44.843  54.916 -53.772  1.00  0.00     0.158 HD
HETATM    5  H   UNL     1     -43.872  53.871 -52.737  1.00  0.00     0.158 HD
HETATM    6  S   UNL     1     -43.126  57.139 -54.022  1.00  0.00    -0.086 SA
HETATM    7  C   UNL     1     -41.313  57.393 -53.796  1.00  0.00     0.093 C 
HETATM    8  C   UNL     1     -40.951  56.611 -52.508  1.00  0.00     0.121 C 
HETATM    9  C   UNL     1     -40.885  58.837 -53.642  1.00  0.00     0.158 C 
HETATM   10  S   UNL     1     -40.912  59.178 -51.902  1.00  0.00     0.147 S 
HETATM   11  O   UNL     1     -42.057  60.011 -51.605  1.00  0.00    -0.228 OA
HETATM   12  O   UNL     1     -39.569  59.529 -51.493  1.00  0.00    -0.228 OA
HETATM   13  C   UNL     1     -41.247  57.537 -51.328  1.00  0.00     0.167 C 
ENDROOT
BRANCH   1  14
HETATM   14  C   UNL     1     -41.246  54.181 -52.224  1.00  0.00     0.048 A 
HETATM   15  C   UNL     1     -41.195  53.658 -50.906  1.00  0.00    -0.034 A 
HETATM   16  C   UNL     1     -40.530  52.444 -50.657  1.00  0.00     0.015 A 
HETATM   17  C   UNL     1     -41.813  54.356 -49.722  1.00  0.00     0.050 C 
HETATM   18  C   UNL     1     -39.931  51.721 -51.688  1.00  0.00    -0.061 A 
HETATM   19  C   UNL     1     -39.259  50.408 -51.413  1.00  0.00     0.048 C 
HETATM   20  C   UNL     1     -40.014  52.216 -52.988  1.00  0.00     0.015 A 
HETATM   21  C   UNL     1     -40.639  53.445 -53.267  1.00  0.00    -0.034 A 
HETATM   22  C   UNL     1     -40.629  53.907 -54.699  1.00  0.00     0.050 C 
ENDBRANCH   1  14
TORSDOF 1
ENDMDL
MODEL 5
REMARK VINA RESULT:      -6.5      2.892      3.509
REMARK  1 active torsions:
REMARK  status: ('A' for Active; 'I' for Inactive)
REMARK    1  A    between atoms: C_6  and  N_7 
ROOT
HETATM    1  N   UNL     1     -42.932  56.970 -53.923  1.00  0.00    -0.320 N 
HETATM    2  C   UNL     1     -44.272  57.259 -53.547  1.00  0.00     0.141 C 
HETATM    3  N   UNL     1     -44.784  56.837 -52.426  1.00  0.00    -0.380 N 
HETATM    4  H   UNL     1     -45.741  57.061 -52.195  1.00  0.00     0.158 HD
HETATM    5  H   UNL     1     -44.204  56.294 -51.800  1.00  0.00     0.158 HD
HETATM    6  S   UNL     1     -45.130  58.178 -54.711  1.00  0.00    -0.086 SA
HETATM    7  C   UNL     1     -43.846  57.836 -55.991  1.00  0.00     0.093 C 
HETATM    8  C   UNL     1     -42.533  57.615 -55.199  1.00  0.00     0.121 C 
HETATM    9  C   UNL     1     -43.641  58.945 -57.001  1.00  0.00     0.158 C 
HETATM   10  S   UNL     1     -42.367  59.987 -56.339  1.00  0.00     0.147 S 
HETATM   11  O   UNL     1     -42.967  61.215 -55.865  1.00  0.00    -0.228 OA
HETATM   12  O   UNL     1     -41.252  59.972 -57.262  1.00  0.00    -0.228 OA
HETATM   13  C   UNL     1     -41.932  58.995 -54.938  1.00  0.00     0.167 C 
ENDROOT
BRANCH   1  14
HETATM   14  C   UNL     1     -42.194  55.830 -53.532  1.00  0.00     0.048 A 
HETATM   15  C   UNL     1     -42.305  54.612 -54.250  1.00  0.00    -0.034 A 
HETATM   16  C   UNL     1     -41.615  53.469 -53.805  1.00  0.00     0.015 A 
HETATM   17  C   UNL     1     -43.157  54.461 -55.483  1.00  0.00     0.050 C 
HETATM   18  C   UNL     1     -40.797  53.510 -52.677  1.00  0.00    -0.061 A 
HETATM   19  C   UNL     1     -40.036  52.294 -52.237  1.00  0.00     0.048 C 
HETATM   20  C   UNL     1     -40.658  54.718 -51.994  1.00  0.00     0.015 A 
HETATM   21  C   UNL     1     -41.363  55.870 -52.389  1.00  0.00    -0.034 A 
HETATM   22  C   UNL     1     -41.176  57.106 -51.552  1.00  0.00     0.050 C 
ENDBRANCH   1  14
TORSDOF 1
ENDMDL
MODEL 6
REMARK VINA RESULT:      -6.5      2.638      4.076
REMARK  1 active torsions:
REMARK  status: ('A' for Active; 'I' for Inactive)
REMARK    1  A    between atoms: C_6  and  N_7 
ROOT
HETATM    1  N   UNL     1     -42.613  57.215 -52.402  1.00  0.00    -0.320 N 
HETATM    2  C   UNL     1     -42.058  58.146 -53.324  1.00  0.00     0.141 C 
HETATM    3  N   UNL     1     -41.306  57.770 -54.319  1.00  0.00    -0.380 N 
HETATM    4  H   UNL     1     -40.928  58.460 -54.951  1.00  0.00     0.158 HD
HETATM    5  H   UNL     1     -41.121  56.783 -54.444  1.00  0.00     0.158 HD
HETATM    6  S   UNL     1     -42.452  59.777 -52.978  1.00  0.00    -0.086 SA
HETATM    7  C   UNL     1     -43.028  59.323 -51.284  1.00  0.00     0.093 C 
HETATM    8  C   UNL     1     -43.501  57.852 -51.397  1.00  0.00     0.121 C 
HETATM    9  C   UNL     1     -44.159  60.173 -50.746  1.00  0.00     0.158 C 
HETATM   10  S   UNL     1     -45.660  59.356 -51.220  1.00  0.00     0.147 S 
HETATM   11  O   UNL     1     -46.281  60.102 -52.293  1.00  0.00    -0.228 OA
HETATM   12  O   UNL     1     -46.372  58.991 -50.014  1.00  0.00    -0.228 OA
HETATM   13  C   UNL     1     -44.944  57.886 -51.899  1.00  0.00     0.167 C 
ENDROOT
BRANCH   1  14
HETATM   14  C   UNL     1     -42.052  55.968 -52.051  1.00  0.00     0.048 A 
HETATM   15  C   UNL     1     -41.095  55.870 -51.009  1.00  0.00    -0.034 A 
HETATM   16  C   UNL     1     -40.497  54.630 -50.719  1.00  0.00     0.015 A 
HETATM   17  C   UNL     1     -40.656  57.051 -50.184  1.00  0.00     0.050 C 
HETATM   18  C   UNL     1     -40.841  53.477 -51.424  1.00  0.00    -0.061 A 
HETATM   19  C   UNL     1     -40.224  52.154 -51.077  1.00  0.00     0.048 C 
HETATM   20  C   UNL     1     -41.810  53.567 -52.422  1.00  0.00     0.015 A 
HETATM   21  C   UNL     1     -42.400  54.798 -52.763  1.00  0.00    -0.034 A 
HETATM   22  C   UNL     1     -43.399  54.788 -53.889  1.00  0.00     0.050 C 
ENDBRANCH   1  14
TORSDOF 1
ENDMDL
MODEL 7
REMARK VINA RESULT:      -6.3      2.987      4.304
REMARK  1 active torsions:
REMARK  status: ('A' for Active; 'I' for Inactive)
REMARK    1  A    between atoms: C_6  and  N_7 
ROOT
HETATM    1  N   UNL     1     -41.712  57.258 -53.451  1.00  0.00    -0.320 N 
HETATM    2  C   UNL     1     -41.021  58.490 -53.284  1.00  0.00     0.141 C 
HETATM    3  N   UNL     1     -39.740  58.540 -53.055  1.00  0.00    -0.380 N 
HETATM    4  H   UNL     1     -39.285  59.434 -52.940  1.00  0.00     0.158 HD
HETATM    5  H   UNL     1     -39.220  57.673 -53.005  1.00  0.00     0.158 HD
HETATM    6  S   UNL     1     -42.035  59.867 -53.386  1.00  0.00    -0.086 SA
HETATM    7  C   UNL     1     -43.545  58.821 -53.210  1.00  0.00     0.093 C 
HETATM    8  C   UNL     1     -43.149  57.437 -53.780  1.00  0.00     0.121 C 
HETATM    9  C   UNL     1     -44.766  59.335 -53.945  1.00  0.00     0.158 C 
HETATM   10  S   UNL     1     -44.723  58.590 -55.554  1.00  0.00     0.147 S 
HETATM   11  O   UNL     1     -44.340  59.592 -56.524  1.00  0.00    -0.228 OA
HETATM   12  O   UNL     1     -45.912  57.778 -55.704  1.00  0.00    -0.228 OA
HETATM   13  C   UNL     1     -43.349  57.504 -55.294  1.00  0.00     0.167 C 
ENDROOT
BRANCH   1  14
HETATM   14  C   UNL     1     -41.344  56.022 -52.875  1.00  0.00     0.048 A 
HETATM   15  C   UNL     1     -41.395  55.831 -51.471  1.00  0.00    -0.034 A 
HETATM   16  C   UNL     1     -40.960  54.616 -50.910  1.00  0.00     0.015 A 
HETATM   17  C   UNL     1     -41.884  56.889 -50.516  1.00  0.00     0.050 C 
HETATM   18  C   UNL     1     -40.495  53.574 -51.712  1.00  0.00    -0.061 A 
HETATM   19  C   UNL     1     -40.071  52.269 -51.104  1.00  0.00     0.048 C 
HETATM   20  C   UNL     1     -40.481  53.748 -53.095  1.00  0.00     0.015 A 
HETATM   21  C   UNL     1     -40.874  54.964 -53.686  1.00  0.00    -0.034 A 
HETATM   22  C   UNL     1     -40.773  55.059 -55.184  1.00  0.00     0.050 C 
ENDBRANCH   1  14
TORSDOF 1
ENDMDL
MODEL 8
REMARK VINA RESULT:      -6.3      3.350      6.696
REMARK  1 active torsions:
REMARK  status: ('A' for Active; 'I' for Inactive)
REMARK    1  A    between atoms: C_6  and  N_7 
ROOT
HETATM    1  N   UNL     1     -41.868  57.529 -51.678  1.00  0.00    -0.320 N 
HETATM    2  C   UNL     1     -41.535  57.156 -53.009  1.00  0.00     0.141 C 
HETATM    3  N   UNL     1     -41.249  58.037 -53.925  1.00  0.00    -0.380 N 
HETATM    4  H   UNL     1     -41.020  57.733 -54.860  1.00  0.00     0.158 HD
HETATM    5  H   UNL     1     -41.255  59.017 -53.676  1.00  0.00     0.158 HD
HETATM    6  S   UNL     1     -41.577  55.464 -53.280  1.00  0.00    -0.086 SA
HETATM    7  C   UNL     1     -42.496  55.191 -51.704  1.00  0.00     0.093 C 
HETATM    8  C   UNL     1     -42.080  56.364 -50.783  1.00  0.00     0.121 C 
HETATM    9  C   UNL     1     -42.197  53.879 -51.011  1.00  0.00     0.158 C 
HETATM   10  S   UNL     1     -40.855  54.202 -49.898  1.00  0.00     0.147 S 
HETATM   11  O   UNL     1     -39.648  53.614 -50.436  1.00  0.00    -0.228 OA
HETATM   12  O   UNL     1     -41.316  53.937 -48.551  1.00  0.00    -0.228 OA
HETATM   13  C   UNL     1     -40.769  55.958 -50.110  1.00  0.00     0.167 C 
ENDROOT
BRANCH   1  14
HETATM   14  C   UNL     1     -42.475  58.744 -51.290  1.00  0.00     0.048 A 
HETATM   15  C   UNL     1     -41.722  59.761 -50.650  1.00  0.00    -0.034 A 
HETATM   16  C   UNL     1     -42.358  60.936 -50.211  1.00  0.00     0.015 A 
HETATM   17  C   UNL     1     -40.242  59.645 -50.389  1.00  0.00     0.050 C 
HETATM   18  C   UNL     1     -43.723  61.138 -50.411  1.00  0.00    -0.061 A 
HETATM   19  C   UNL     1     -44.381  62.414 -49.972  1.00  0.00     0.048 C 
HETATM   20  C   UNL     1     -44.456  60.155 -51.074  1.00  0.00     0.015 A 
HETATM   21  C   UNL     1     -43.859  58.952 -51.493  1.00  0.00    -0.034 A 
HETATM   22  C   UNL     1     -44.753  57.940 -52.156  1.00  0.00     0.050 C 
ENDBRANCH   1  14
TORSDOF 1
ENDMDL
MODEL 9
REMARK VINA RESULT:      -6.3      3.379      5.159
REMARK  1 active torsions:
REMARK  status: ('A' for Active; 'I' for Inactive)
REMARK    1  A    between atoms: C_6  and  N_7 
ROOT
HETATM    1  N   UNL     1     -43.229  57.423 -54.885  1.00  0.00    -0.320 N 
HETATM    2  C   UNL     1     -44.303  57.315 -53.960  1.00  0.00     0.141 C 
HETATM    3  N   UNL     1     -45.318  56.525 -54.166  1.00  0.00    -0.380 N 
HETATM    4  H   UNL     1     -46.063  56.477 -53.486  1.00  0.00     0.158 HD
HETATM    5  H   UNL     1     -45.335  55.963 -55.007  1.00  0.00     0.158 HD
HETATM    6  S   UNL     1     -44.138  58.332 -52.591  1.00  0.00    -0.086 SA
HETATM    7  C   UNL     1     -42.808  59.305 -53.421  1.00  0.00     0.093 C 
HETATM    8  C   UNL     1     -42.143  58.320 -54.414  1.00  0.00     0.121 C 
HETATM    9  C   UNL     1     -41.754  59.868 -52.491  1.00  0.00     0.158 C 
HETATM   10  S   UNL     1     -40.474  58.643 -52.397  1.00  0.00     0.147 S 
HETATM   11  O   UNL     1     -40.543  57.991 -51.108  1.00  0.00    -0.228 OA
HETATM   12  O   UNL     1     -39.254  59.232 -52.907  1.00  0.00    -0.228 OA
HETATM   13  C   UNL     1     -41.099  57.531 -53.625  1.00  0.00     0.167 C 
ENDROOT
BRANCH   1  14
HETATM   14  C   UNL     1     -43.318  57.216 -56.279  1.00  0.00     0.048 A 
HETATM   15  C   UNL     1     -43.886  58.201 -57.125  1.00  0.00    -0.034 A 
HETATM   16  C   UNL     1     -44.028  57.949 -58.502  1.00  0.00     0.015 A 
HETATM   17  C   UNL     1     -44.379  59.532 -56.619  1.00  0.00     0.050 C 
HETATM   18  C   UNL     1     -43.598  56.748 -59.066  1.00  0.00    -0.061 A 
HETATM   19  C   UNL     1     -43.720  56.508 -60.542  1.00  0.00     0.048 C 
HETATM   20  C   UNL     1     -43.003  55.795 -58.240  1.00  0.00     0.015 A 
HETATM   21  C   UNL     1     -42.881  56.000 -56.853  1.00  0.00    -0.034 A 
HETATM   22  C   UNL     1     -42.267  54.886 -56.050  1.00  0.00     0.050 C 
ENDBRANCH   1  14
TORSDOF 1
ENDMDL
MODEL 10
REMARK VINA RESULT:      -6.2      4.041      4.839
REMARK  1 active torsions:
REMARK  status: ('A' for Active; 'I' for Inactive)
REMARK    1  A    between atoms: C_6  and  N_7 
ROOT
HETATM    1  N   UNL     1     -43.091  57.715 -55.634  1.00  0.00    -0.320 N 
HETATM    2  C   UNL     1     -44.507  57.830 -55.705  1.00  0.00     0.141 C 
HETATM    3  N   UNL     1     -45.295  57.193 -54.886  1.00  0.00    -0.380 N 
HETATM    4  H   UNL     1     -46.295  57.298 -54.968  1.00  0.00     0.158 HD
HETATM    5  H   UNL     1     -44.883  56.607 -54.171  1.00  0.00     0.158 HD
HETATM    6  S   UNL     1     -45.053  58.848 -56.970  1.00  0.00    -0.086 SA
HETATM    7  C   UNL     1     -43.389  58.822 -57.767  1.00  0.00     0.093 C 
HETATM    8  C   UNL     1     -42.388  58.586 -56.609  1.00  0.00     0.121 C 
HETATM    9  C   UNL     1     -43.015  60.090 -58.504  1.00  0.00     0.158 C 
HETATM   10  S   UNL     1     -42.174  61.116 -57.325  1.00  0.00     0.147 S 
HETATM   11  O   UNL     1     -43.050  62.199 -56.937  1.00  0.00    -0.228 OA
HETATM   12  O   UNL     1     -40.827  61.340 -57.808  1.00  0.00    -0.228 OA
HETATM   13  C   UNL     1     -42.091  59.953 -55.993  1.00  0.00     0.167 C 
ENDROOT
BRANCH   1  14
HETATM   14  C   UNL     1     -42.378  56.593 -55.159  1.00  0.00     0.048 A 
HETATM   15  C   UNL     1     -42.324  55.394 -55.913  1.00  0.00    -0.034 A 
HETATM   16  C   UNL     1     -41.665  54.264 -55.392  1.00  0.00     0.015 A 
HETATM   17  C   UNL     1     -42.964  55.247 -57.269  1.00  0.00     0.050 C 
HETATM   18  C   UNL     1     -41.038  54.302 -54.148  1.00  0.00    -0.061 A 
HETATM   19  C   UNL     1     -40.306  53.102 -53.622  1.00  0.00     0.048 C 
HETATM   20  C   UNL     1     -41.058  55.493 -53.424  1.00  0.00     0.015 A 
HETATM   21  C   UNL     1     -41.739  56.629 -53.898  1.00  0.00    -0.034 A 
HETATM   22  C   UNL     1     -41.737  57.846 -53.013  1.00  0.00     0.050 C 
ENDBRANCH   1  14
TORSDOF 1
ENDMDL
