MODEL 1
REMARK VINA RESULT:      -9.6      0.000      0.000
REMARK  9 active torsions:
REMARK  status: ('A' for Active; 'I' for Inactive)
REMARK    1  A    between atoms: C_3  and  C_4 
REMARK    2  A    between atoms: C_4  and  C_5 
REMARK    3  A    between atoms: C_5  and  N_6 
REMARK       I    between atoms: N_6  and  C_7 
REMARK    4  A    between atoms: C_7  and  C_8 
REMARK    5  A    between atoms: C_8  and  C_9 
REMARK    6  A    between atoms: C_9  and  C_10 
REMARK    7  A    between atoms: C_9  and  C_26 
REMARK    8  A    between atoms: C_14  and  C_15 
REMARK    9  A    between atoms: C_28  and  N_29 
ROOT
HETATM    1  C   UNL     1     -43.160  58.312 -56.364  1.00  0.00     0.062 C 
ENDROOT
BRANCH   1   2
HETATM    2  C   UNL     1     -42.067  59.279 -55.857  1.00  0.00     0.116 C 
BRANCH   2   3
HETATM    3  C   UNL     1     -42.232  59.750 -54.420  1.00  0.00     0.218 C 
HETATM    4  N   UNL     1     -41.237  59.350 -53.560  1.00  0.00    -0.361 N 
HETATM    5  H   UNL     1     -40.460  58.808 -53.921  1.00  0.00     0.162 HD
HETATM    6  O   UNL     1     -43.202  60.415 -54.059  1.00  0.00    -0.274 OA
BRANCH   4   7
HETATM    7  C   UNL     1     -41.245  59.638 -52.139  1.00  0.00     0.128 C 
BRANCH   7   8
HETATM    8  C   UNL     1     -40.748  58.473 -51.277  1.00  0.00     0.079 C 
BRANCH   8   9
HETATM    9  C   UNL     1     -41.677  57.304 -51.046  1.00  0.00     0.035 A 
HETATM   10  C   UNL     1     -41.236  56.078 -50.556  1.00  0.00     0.027 A 
HETATM   11  C   UNL     1     -42.169  55.079 -50.283  1.00  0.00     0.003 A 
HETATM   12  C   UNL     1     -43.519  55.328 -50.484  1.00  0.00     0.019 A 
HETATM   13  C   UNL     1     -43.883  56.574 -50.957  1.00  0.00     0.117 A 
HETATM   14  N   UNL     1     -43.000  57.556 -51.251  1.00  0.00    -0.266 NA
ENDBRANCH   8   9
ENDBRANCH   7   8
ENDBRANCH   4   7
ENDBRANCH   2   3
ENDBRANCH   1   2
BRANCH   1  15
HETATM   15  C   UNL     1     -43.586  57.284 -55.331  1.00  0.00    -0.021 C 
HETATM   16  C   UNL     1     -42.667  56.342 -54.732  1.00  0.00    -0.001 A 
HETATM   17  C   UNL     1     -43.420  55.318 -54.169  1.00  0.00     0.043 A 
HETATM   18  C   UNL     1     -41.269  56.198 -54.754  1.00  0.00     0.015 A 
HETATM   19  C   UNL     1     -42.858  54.100 -53.745  1.00  0.00     0.044 A 
HETATM   20  N   UNL     1     -44.730  55.728 -54.200  1.00  0.00    -0.365 N 
HETATM   21  C   UNL     1     -41.469  53.903 -53.884  1.00  0.00    -0.005 A 
HETATM   22  C   UNL     1     -40.697  54.989 -54.336  1.00  0.00     0.015 A 
HETATM   23  H   UNL     1     -45.516  55.165 -53.904  1.00  0.00     0.165 HD
HETATM   24  C   UNL     1     -44.833  56.938 -54.843  1.00  0.00     0.097 C 
BRANCH  21  25
HETATM   25  C   UNL     1     -40.821  52.588 -53.644  1.00  0.00     0.066 A 
HETATM   26  N   UNL     1     -40.157  52.480 -52.461  1.00  0.00    -0.260 NA
HETATM   27  C   UNL     1     -39.481  51.341 -52.202  1.00  0.00     0.117 A 
HETATM   28  C   UNL     1     -39.421  50.271 -53.072  1.00  0.00     0.019 A 
HETATM   29  C   UNL     1     -40.107  50.373 -54.274  1.00  0.00     0.004 A 
HETATM   30  C   UNL     1     -40.817  51.540 -54.565  1.00  0.00     0.032 A 
ENDBRANCH  21  25
ENDBRANCH   1  15
BRANCH   1  31
HETATM   31  C   UNL     1     -42.751  57.705 -57.703  1.00  0.00    -0.047 A 
HETATM   32  C   UNL     1     -43.492  56.609 -58.190  1.00  0.00     0.043 A 
HETATM   33  C   UNL     1     -43.299  56.136 -59.499  1.00  0.00     0.103 A 
HETATM   34  C   UNL     1     -42.339  56.716 -60.333  1.00  0.00     0.036 A 
HETATM   35  C   UNL     1     -41.597  57.795 -59.863  1.00  0.00     0.003 A 
HETATM   36  C   UNL     1     -41.822  58.296 -58.576  1.00  0.00     0.008 A 
BRANCH  33  37
HETATM   37  N   UNL     1     -44.156  55.064 -60.018  1.00  0.00    -0.116 N 
HETATM   38  O   UNL     1     -44.560  55.160 -61.186  1.00  0.00    -0.532 OA
HETATM   39  O   UNL     1     -44.418  54.115 -59.263  1.00  0.00    -0.532 OA
ENDBRANCH  33  37
ENDBRANCH   1  31
TORSDOF 9
ENDMDL
MODEL 2
REMARK VINA RESULT:      -9.1      1.844      2.592
REMARK  9 active torsions:
REMARK  status: ('A' for Active; 'I' for Inactive)
REMARK    1  A    between atoms: C_3  and  C_4 
REMARK    2  A    between atoms: C_4  and  C_5 
REMARK    3  A    between atoms: C_5  and  N_6 
REMARK       I    between atoms: N_6  and  C_7 
REMARK    4  A    between atoms: C_7  and  C_8 
REMARK    5  A    between atoms: C_8  and  C_9 
REMARK    6  A    between atoms: C_9  and  C_10 
REMARK    7  A    between atoms: C_9  and  C_26 
REMARK    8  A    between atoms: C_14  and  C_15 
REMARK    9  A    between atoms: C_28  and  N_29 
ROOT
HETATM    1  C   UNL     1     -43.802  57.768 -57.052  1.00  0.00     0.062 C 
ENDROOT
BRANCH   1   2
HETATM    2  C   UNL     1     -42.416  58.374 -57.365  1.00  0.00     0.116 C 
BRANCH   2   3
HETATM    3  C   UNL     1     -42.160  59.750 -56.770  1.00  0.00     0.218 C 
HETATM    4  N   UNL     1     -43.040  60.128 -55.784  1.00  0.00    -0.361 N 
HETATM    5  H   UNL     1     -43.767  59.483 -55.495  1.00  0.00     0.162 HD
HETATM    6  O   UNL     1     -41.250  60.474 -57.169  1.00  0.00    -0.274 OA
BRANCH   4   7
HETATM    7  C   UNL     1     -43.008  61.426 -55.138  1.00  0.00     0.128 C 
BRANCH   7   8
HETATM    8  C   UNL     1     -42.764  61.352 -53.628  1.00  0.00     0.079 C 
BRANCH   8   9
HETATM    9  C   UNL     1     -42.167  60.086 -53.059  1.00  0.00     0.035 A 
HETATM   10  C   UNL     1     -42.858  59.256 -52.181  1.00  0.00     0.027 A 
HETATM   11  C   UNL     1     -42.273  58.059 -51.773  1.00  0.00     0.003 A 
HETATM   12  C   UNL     1     -41.025  57.704 -52.263  1.00  0.00     0.019 A 
HETATM   13  C   UNL     1     -40.406  58.571 -53.143  1.00  0.00     0.117 A 
HETATM   14  N   UNL     1     -40.938  59.749 -53.541  1.00  0.00    -0.266 NA
ENDBRANCH   8   9
ENDBRANCH   7   8
ENDBRANCH   4   7
ENDBRANCH   2   3
ENDBRANCH   1   2
BRANCH   1  15
HETATM   15  C   UNL     1     -43.890  57.133 -55.676  1.00  0.00    -0.021 C 
HETATM   16  C   UNL     1     -42.850  56.291 -55.129  1.00  0.00    -0.001 A 
HETATM   17  C   UNL     1     -43.400  55.570 -54.077  1.00  0.00     0.043 A 
HETATM   18  C   UNL     1     -41.542  55.973 -55.534  1.00  0.00     0.015 A 
HETATM   19  C   UNL     1     -42.762  54.461 -53.493  1.00  0.00     0.044 A 
HETATM   20  N   UNL     1     -44.636  56.115 -53.827  1.00  0.00    -0.365 N 
HETATM   21  C   UNL     1     -41.502  54.060 -53.984  1.00  0.00    -0.005 A 
HETATM   22  C   UNL     1     -40.895  54.870 -54.962  1.00  0.00     0.015 A 
HETATM   23  H   UNL     1     -45.294  55.760 -53.147  1.00  0.00     0.165 HD
HETATM   24  C   UNL     1     -44.914  57.097 -54.747  1.00  0.00     0.097 C 
BRANCH  21  25
HETATM   25  C   UNL     1     -40.846  52.796 -53.563  1.00  0.00     0.066 A 
HETATM   26  N   UNL     1     -40.394  52.781 -52.280  1.00  0.00    -0.260 NA
HETATM   27  C   UNL     1     -39.722  51.694 -51.844  1.00  0.00     0.117 A 
HETATM   28  C   UNL     1     -39.462  50.589 -52.630  1.00  0.00     0.019 A 
HETATM   29  C   UNL     1     -39.931  50.597 -53.936  1.00  0.00     0.004 A 
HETATM   30  C   UNL     1     -40.633  51.707 -54.409  1.00  0.00     0.032 A 
ENDBRANCH  21  25
ENDBRANCH   1  15
BRANCH   1  31
HETATM   31  C   UNL     1     -44.244  56.843 -58.184  1.00  0.00    -0.047 A 
HETATM   32  C   UNL     1     -45.416  57.175 -58.894  1.00  0.00     0.043 A 
HETATM   33  C   UNL     1     -45.764  56.485 -60.067  1.00  0.00     0.103 A 
HETATM   34  C   UNL     1     -44.978  55.429 -60.535  1.00  0.00     0.036 A 
HETATM   35  C   UNL     1     -43.821  55.088 -59.841  1.00  0.00     0.003 A 
HETATM   36  C   UNL     1     -43.449  55.805 -58.698  1.00  0.00     0.008 A 
BRANCH  33  37
HETATM   37  N   UNL     1     -46.931  56.918 -60.845  1.00  0.00    -0.116 N 
HETATM   38  O   UNL     1     -47.372  56.143 -61.706  1.00  0.00    -0.532 OA
HETATM   39  O   UNL     1     -47.418  58.030 -60.589  1.00  0.00    -0.532 OA
ENDBRANCH  33  37
ENDBRANCH   1  31
TORSDOF 9
ENDMDL
MODEL 3
REMARK VINA RESULT:      -8.9      3.278      7.426
REMARK  9 active torsions:
REMARK  status: ('A' for Active; 'I' for Inactive)
REMARK    1  A    between atoms: C_3  and  C_4 
REMARK    2  A    between atoms: C_4  and  C_5 
REMARK    3  A    between atoms: C_5  and  N_6 
REMARK       I    between atoms: N_6  and  C_7 
REMARK    4  A    between atoms: C_7  and  C_8 
REMARK    5  A    between atoms: C_8  and  C_9 
REMARK    6  A    between atoms: C_9  and  C_10 
REMARK    7  A    between atoms: C_9  and  C_26 
REMARK    8  A    between atoms: C_14  and  C_15 
REMARK    9  A    between atoms: C_28  and  N_29 
ROOT
HETATM    1  C   UNL     1     -41.888  55.624 -50.217  1.00  0.00     0.062 C 
ENDROOT
BRANCH   1   2
HETATM    2  C   UNL     1     -40.536  55.016 -49.780  1.00  0.00     0.116 C 
BRANCH   2   3
HETATM    3  C   UNL     1     -40.618  53.628 -49.164  1.00  0.00     0.218 C 
HETATM    4  N   UNL     1     -40.382  52.592 -50.036  1.00  0.00    -0.361 N 
HETATM    5  H   UNL     1     -40.145  52.800 -51.000  1.00  0.00     0.162 HD
HETATM    6  O   UNL     1     -40.902  53.455 -47.981  1.00  0.00    -0.274 OA
BRANCH   4   7
HETATM    7  C   UNL     1     -40.478  51.194 -49.662  1.00  0.00     0.128 C 
BRANCH   7   8
HETATM    8  C   UNL     1     -39.697  50.258 -50.591  1.00  0.00     0.079 C 
BRANCH   8   9
HETATM    9  C   UNL     1     -39.709  50.545 -52.073  1.00  0.00     0.035 A 
HETATM   10  C   UNL     1     -39.688  49.538 -53.035  1.00  0.00     0.027 A 
HETATM   11  C   UNL     1     -39.795  49.880 -54.382  1.00  0.00     0.003 A 
HETATM   12  C   UNL     1     -39.941  51.212 -54.741  1.00  0.00     0.019 A 
HETATM   13  C   UNL     1     -39.970  52.155 -53.731  1.00  0.00     0.117 A 
HETATM   14  N   UNL     1     -39.847  51.856 -52.417  1.00  0.00    -0.266 NA
ENDBRANCH   8   9
ENDBRANCH   7   8
ENDBRANCH   4   7
ENDBRANCH   2   3
ENDBRANCH   1   2
BRANCH   1  15
HETATM   15  C   UNL     1     -42.570  54.847 -51.329  1.00  0.00    -0.021 C 
HETATM   16  C   UNL     1     -42.234  55.010 -52.725  1.00  0.00    -0.001 A 
HETATM   17  C   UNL     1     -43.280  54.487 -53.475  1.00  0.00     0.043 A 
HETATM   18  C   UNL     1     -41.208  55.689 -53.406  1.00  0.00     0.015 A 
HETATM   19  C   UNL     1     -43.422  54.719 -54.855  1.00  0.00     0.044 A 
HETATM   20  N   UNL     1     -44.098  53.817 -52.599  1.00  0.00    -0.365 N 
HETATM   21  C   UNL     1     -42.460  55.508 -55.519  1.00  0.00    -0.005 A 
HETATM   22  C   UNL     1     -41.338  55.928 -54.780  1.00  0.00     0.015 A 
HETATM   23  H   UNL     1     -44.973  53.376 -52.852  1.00  0.00     0.165 HD
HETATM   24  C   UNL     1     -43.646  53.977 -51.312  1.00  0.00     0.097 C 
BRANCH  21  25
HETATM   25  C   UNL     1     -42.630  55.962 -56.923  1.00  0.00     0.066 A 
HETATM   26  N   UNL     1     -42.273  57.254 -57.158  1.00  0.00    -0.260 NA
HETATM   27  C   UNL     1     -42.467  57.763 -58.393  1.00  0.00     0.117 A 
HETATM   28  C   UNL     1     -43.011  57.047 -59.440  1.00  0.00     0.019 A 
HETATM   29  C   UNL     1     -43.367  55.725 -59.206  1.00  0.00     0.004 A 
HETATM   30  C   UNL     1     -43.173  55.174 -57.939  1.00  0.00     0.032 A 
ENDBRANCH  21  25
ENDBRANCH   1  15
BRANCH   1  31
HETATM   31  C   UNL     1     -41.728  57.112 -50.516  1.00  0.00    -0.047 A 
HETATM   32  C   UNL     1     -40.426  57.653 -50.518  1.00  0.00     0.043 A 
HETATM   33  C   UNL     1     -40.192  58.959 -50.980  1.00  0.00     0.103 A 
HETATM   34  C   UNL     1     -41.249  59.764 -51.411  1.00  0.00     0.036 A 
HETATM   35  C   UNL     1     -42.540  59.245 -51.409  1.00  0.00     0.003 A 
HETATM   36  C   UNL     1     -42.768  57.928 -50.992  1.00  0.00     0.008 A 
BRANCH  33  37
HETATM   37  N   UNL     1     -38.815  59.461 -51.072  1.00  0.00    -0.116 N 
HETATM   38  O   UNL     1     -38.249  59.399 -52.173  1.00  0.00    -0.532 OA
HETATM   39  O   UNL     1     -38.300  59.930 -50.046  1.00  0.00    -0.532 OA
ENDBRANCH  33  37
ENDBRANCH   1  31
TORSDOF 9
ENDMDL
MODEL 4
REMARK VINA RESULT:      -8.4      1.727      2.868
REMARK  9 active torsions:
REMARK  status: ('A' for Active; 'I' for Inactive)
REMARK    1  A    between atoms: C_3  and  C_4 
REMARK    2  A    between atoms: C_4  and  C_5 
REMARK    3  A    between atoms: C_5  and  N_6 
REMARK       I    between atoms: N_6  and  C_7 
REMARK    4  A    between atoms: C_7  and  C_8 
REMARK    5  A    between atoms: C_8  and  C_9 
REMARK    6  A    between atoms: C_9  and  C_10 
REMARK    7  A    between atoms: C_9  and  C_26 
REMARK    8  A    between atoms: C_14  and  C_15 
REMARK    9  A    between atoms: C_28  and  N_29 
ROOT
HETATM    1  C   UNL     1     -44.286  57.255 -55.372  1.00  0.00     0.062 C 
ENDROOT
BRANCH   1   2
HETATM    2  C   UNL     1     -44.918  58.261 -54.384  1.00  0.00     0.116 C 
BRANCH   2   3
HETATM    3  C   UNL     1     -44.436  58.150 -52.946  1.00  0.00     0.218 C 
HETATM    4  N   UNL     1     -44.658  56.931 -52.352  1.00  0.00    -0.361 N 
HETATM    5  H   UNL     1     -45.089  56.188 -52.892  1.00  0.00     0.162 HD
HETATM    6  O   UNL     1     -43.912  59.095 -52.359  1.00  0.00    -0.274 OA
BRANCH   4   7
HETATM    7  C   UNL     1     -44.334  56.644 -50.968  1.00  0.00     0.128 C 
BRANCH   7   8
HETATM    8  C   UNL     1     -43.861  55.206 -50.737  1.00  0.00     0.079 C 
BRANCH   8   9
HETATM    9  C   UNL     1     -42.420  54.979 -50.343  1.00  0.00     0.035 A 
HETATM   10  C   UNL     1     -41.384  55.808 -50.765  1.00  0.00     0.027 A 
HETATM   11  C   UNL     1     -40.096  55.586 -50.283  1.00  0.00     0.003 A 
HETATM   12  C   UNL     1     -39.870  54.560 -49.378  1.00  0.00     0.019 A 
HETATM   13  C   UNL     1     -40.949  53.789 -48.992  1.00  0.00     0.117 A 
HETATM   14  N   UNL     1     -42.207  53.965 -49.458  1.00  0.00    -0.266 NA
ENDBRANCH   8   9
ENDBRANCH   7   8
ENDBRANCH   4   7
ENDBRANCH   2   3
ENDBRANCH   1   2
BRANCH   1  15
HETATM   15  C   UNL     1     -42.816  56.985 -55.102  1.00  0.00    -0.021 C 
HETATM   16  C   UNL     1     -42.259  55.652 -55.038  1.00  0.00    -0.001 A 
HETATM   17  C   UNL     1     -41.032  55.738 -54.392  1.00  0.00     0.043 A 
HETATM   18  C   UNL     1     -42.761  54.373 -55.335  1.00  0.00     0.015 A 
HETATM   19  C   UNL     1     -40.340  54.612 -53.911  1.00  0.00     0.044 A 
HETATM   20  N   UNL     1     -40.734  57.075 -54.287  1.00  0.00    -0.365 N 
HETATM   21  C   UNL     1     -40.904  53.333 -54.096  1.00  0.00    -0.005 A 
HETATM   22  C   UNL     1     -42.082  53.243 -54.860  1.00  0.00     0.015 A 
HETATM   23  H   UNL     1     -39.923  57.447 -53.812  1.00  0.00     0.165 HD
HETATM   24  C   UNL     1     -41.775  57.831 -54.766  1.00  0.00     0.097 C 
BRANCH  21  25
HETATM   25  C   UNL     1     -40.344  52.113 -53.458  1.00  0.00     0.066 A 
HETATM   26  N   UNL     1     -40.293  51.016 -54.260  1.00  0.00    -0.260 NA
HETATM   27  C   UNL     1     -39.865  49.850 -53.731  1.00  0.00     0.117 A 
HETATM   28  C   UNL     1     -39.474  49.703 -52.416  1.00  0.00     0.019 A 
HETATM   29  C   UNL     1     -39.514  50.824 -51.598  1.00  0.00     0.004 A 
HETATM   30  C   UNL     1     -39.949  52.042 -52.122  1.00  0.00     0.032 A 
ENDBRANCH  21  25
ENDBRANCH   1  15
BRANCH   1  31
HETATM   31  C   UNL     1     -44.580  57.669 -56.811  1.00  0.00    -0.047 A 
HETATM   32  C   UNL     1     -43.872  57.025 -57.846  1.00  0.00     0.043 A 
HETATM   33  C   UNL     1     -44.237  57.212 -59.190  1.00  0.00     0.103 A 
HETATM   34  C   UNL     1     -45.284  58.071 -59.533  1.00  0.00     0.036 A 
HETATM   35  C   UNL     1     -45.988  58.718 -58.522  1.00  0.00     0.003 A 
HETATM   36  C   UNL     1     -45.655  58.496 -57.180  1.00  0.00     0.008 A 
BRANCH  33  37
HETATM   37  N   UNL     1     -43.553  56.449 -60.241  1.00  0.00    -0.116 N 
HETATM   38  O   UNL     1     -42.317  56.527 -60.302  1.00  0.00    -0.532 OA
HETATM   39  O   UNL     1     -44.249  55.759 -61.002  1.00  0.00    -0.532 OA
ENDBRANCH  33  37
ENDBRANCH   1  31
TORSDOF 9
ENDMDL
MODEL 5
REMARK VINA RESULT:      -8.3      2.493      6.502
REMARK  9 active torsions:
REMARK  status: ('A' for Active; 'I' for Inactive)
REMARK    1  A    between atoms: C_3  and  C_4 
REMARK    2  A    between atoms: C_4  and  C_5 
REMARK    3  A    between atoms: C_5  and  N_6 
REMARK       I    between atoms: N_6  and  C_7 
REMARK    4  A    between atoms: C_7  and  C_8 
REMARK    5  A    between atoms: C_8  and  C_9 
REMARK    6  A    between atoms: C_9  and  C_10 
REMARK    7  A    between atoms: C_9  and  C_26 
REMARK    8  A    between atoms: C_14  and  C_15 
REMARK    9  A    between atoms: C_28  and  N_29 
ROOT
HETATM    1  C   UNL     1     -42.981  59.174 -53.968  1.00  0.00     0.062 C 
ENDROOT
BRANCH   1   2
HETATM    2  C   UNL     1     -43.553  60.065 -55.093  1.00  0.00     0.116 C 
BRANCH   2   3
HETATM    3  C   UNL     1     -42.755  60.067 -56.388  1.00  0.00     0.218 C 
HETATM    4  N   UNL     1     -43.469  59.714 -57.509  1.00  0.00    -0.361 N 
HETATM    5  H   UNL     1     -44.458  59.509 -57.422  1.00  0.00     0.162 HD
HETATM    6  O   UNL     1     -41.556  60.337 -56.416  1.00  0.00    -0.274 OA
BRANCH   4   7
HETATM    7  C   UNL     1     -42.877  59.590 -58.828  1.00  0.00     0.128 C 
BRANCH   7   8
HETATM    8  C   UNL     1     -42.400  58.171 -59.151  1.00  0.00     0.079 C 
BRANCH   8   9
HETATM    9  C   UNL     1     -43.429  57.142 -59.555  1.00  0.00     0.035 A 
HETATM   10  C   UNL     1     -43.138  55.784 -59.655  1.00  0.00     0.027 A 
HETATM   11  C   UNL     1     -44.165  54.887 -59.944  1.00  0.00     0.003 A 
HETATM   12  C   UNL     1     -45.460  55.357 -60.106  1.00  0.00     0.019 A 
HETATM   13  C   UNL     1     -45.676  56.716 -59.976  1.00  0.00     0.117 A 
HETATM   14  N   UNL     1     -44.697  57.613 -59.717  1.00  0.00    -0.266 NA
ENDBRANCH   8   9
ENDBRANCH   7   8
ENDBRANCH   4   7
ENDBRANCH   2   3
ENDBRANCH   1   2
BRANCH   1  15
HETATM   15  C   UNL     1     -43.588  57.783 -53.929  1.00  0.00    -0.021 C 
HETATM   16  C   UNL     1     -42.887  56.632 -53.405  1.00  0.00    -0.001 A 
HETATM   17  C   UNL     1     -43.531  55.495 -53.878  1.00  0.00     0.043 A 
HETATM   18  C   UNL     1     -41.682  56.464 -52.702  1.00  0.00     0.015 A 
HETATM   19  C   UNL     1     -42.969  54.208 -53.798  1.00  0.00     0.044 A 
HETATM   20  N   UNL     1     -44.705  55.916 -54.454  1.00  0.00    -0.365 N 
HETATM   21  C   UNL     1     -41.699  54.053 -53.205  1.00  0.00    -0.005 A 
HETATM   22  C   UNL     1     -41.110  55.188 -52.616  1.00  0.00     0.015 A 
HETATM   23  H   UNL     1     -45.360  55.312 -54.932  1.00  0.00     0.165 HD
HETATM   24  C   UNL     1     -44.776  57.288 -54.435  1.00  0.00     0.097 C 
BRANCH  21  25
HETATM   25  C   UNL     1     -40.948  52.772 -53.249  1.00  0.00     0.066 A 
HETATM   26  N   UNL     1     -40.238  52.482 -52.125  1.00  0.00    -0.260 NA
HETATM   27  C   UNL     1     -39.472  51.370 -52.115  1.00  0.00     0.117 A 
HETATM   28  C   UNL     1     -39.362  50.506 -53.185  1.00  0.00     0.019 A 
HETATM   29  C   UNL     1     -40.094  50.794 -54.329  1.00  0.00     0.004 A 
HETATM   30  C   UNL     1     -40.897  51.935 -54.364  1.00  0.00     0.032 A 
ENDBRANCH  21  25
ENDBRANCH   1  15
BRANCH   1  31
HETATM   31  C   UNL     1     -43.039  59.908 -52.631  1.00  0.00    -0.047 A 
HETATM   32  C   UNL     1     -44.306  60.243 -52.111  1.00  0.00     0.043 A 
HETATM   33  C   UNL     1     -44.438  60.733 -50.801  1.00  0.00     0.103 A 
HETATM   34  C   UNL     1     -43.313  60.936 -49.997  1.00  0.00     0.036 A 
HETATM   35  C   UNL     1     -42.056  60.614 -50.499  1.00  0.00     0.003 A 
HETATM   36  C   UNL     1     -41.928  60.083 -51.788  1.00  0.00     0.008 A 
BRANCH  33  37
HETATM   37  N   UNL     1     -45.776  60.975 -50.247  1.00  0.00    -0.116 N 
HETATM   38  O   UNL     1     -46.546  61.702 -50.892  1.00  0.00    -0.532 OA
HETATM   39  O   UNL     1     -46.066  60.428 -49.172  1.00  0.00    -0.532 OA
ENDBRANCH  33  37
ENDBRANCH   1  31
TORSDOF 9
ENDMDL
MODEL 6
REMARK VINA RESULT:      -8.3      2.768      7.301
REMARK  9 active torsions:
REMARK  status: ('A' for Active; 'I' for Inactive)
REMARK    1  A    between atoms: C_3  and  C_4 
REMARK    2  A    between atoms: C_4  and  C_5 
REMARK    3  A    between atoms: C_5  and  N_6 
REMARK       I    between atoms: N_6  and  C_7 
REMARK    4  A    between atoms: C_7  and  C_8 
REMARK    5  A    between atoms: C_8  and  C_9 
REMARK    6  A    between atoms: C_9  and  C_10 
REMARK    7  A    between atoms: C_9  and  C_26 
REMARK    8  A    between atoms: C_14  and  C_15 
REMARK    9  A    between atoms: C_28  and  N_29 
ROOT
HETATM    1  C   UNL     1     -41.767  55.811 -50.310  1.00  0.00     0.062 C 
ENDROOT
BRANCH   1   2
HETATM    2  C   UNL     1     -40.444  55.155 -49.852  1.00  0.00     0.116 C 
BRANCH   2   3
HETATM    3  C   UNL     1     -40.587  53.781 -49.217  1.00  0.00     0.218 C 
HETATM    4  N   UNL     1     -40.292  52.725 -50.047  1.00  0.00    -0.361 N 
HETATM    5  H   UNL     1     -39.978  52.912 -50.993  1.00  0.00     0.162 HD
HETATM    6  O   UNL     1     -40.966  53.635 -48.057  1.00  0.00    -0.274 OA
BRANCH   4   7
HETATM    7  C   UNL     1     -40.431  51.336 -49.653  1.00  0.00     0.128 C 
BRANCH   7   8
HETATM    8  C   UNL     1     -39.724  50.361 -50.600  1.00  0.00     0.079 C 
BRANCH   8   9
HETATM    9  C   UNL     1     -39.756  50.649 -52.082  1.00  0.00     0.035 A 
HETATM   10  C   UNL     1     -39.657  49.649 -53.046  1.00  0.00     0.027 A 
HETATM   11  C   UNL     1     -39.787  49.985 -54.392  1.00  0.00     0.003 A 
HETATM   12  C   UNL     1     -40.034  51.303 -54.748  1.00  0.00     0.019 A 
HETATM   13  C   UNL     1     -40.137  52.238 -53.736  1.00  0.00     0.117 A 
HETATM   14  N   UNL     1     -39.994  51.946 -52.423  1.00  0.00    -0.266 NA
ENDBRANCH   8   9
ENDBRANCH   7   8
ENDBRANCH   4   7
ENDBRANCH   2   3
ENDBRANCH   1   2
BRANCH   1  15
HETATM   15  C   UNL     1     -42.473  55.044 -51.413  1.00  0.00    -0.021 C 
HETATM   16  C   UNL     1     -42.170  55.222 -52.816  1.00  0.00    -0.001 A 
HETATM   17  C   UNL     1     -43.232  54.704 -53.546  1.00  0.00     0.043 A 
HETATM   18  C   UNL     1     -41.163  55.912 -53.513  1.00  0.00     0.015 A 
HETATM   19  C   UNL     1     -43.408  54.949 -54.920  1.00  0.00     0.044 A 
HETATM   20  N   UNL     1     -44.027  54.021 -52.658  1.00  0.00    -0.365 N 
HETATM   21  C   UNL     1     -42.464  55.749 -55.598  1.00  0.00    -0.005 A 
HETATM   22  C   UNL     1     -41.327  56.165 -54.882  1.00  0.00     0.015 A 
HETATM   23  H   UNL     1     -44.906  53.581 -52.894  1.00  0.00     0.165 HD
HETATM   24  C   UNL     1     -43.545  54.170 -51.380  1.00  0.00     0.097 C 
BRANCH  21  25
HETATM   25  C   UNL     1     -42.670  56.217 -56.993  1.00  0.00     0.066 A 
HETATM   26  N   UNL     1     -43.185  55.288 -57.842  1.00  0.00    -0.260 NA
HETATM   27  C   UNL     1     -43.333  55.615 -59.144  1.00  0.00     0.117 A 
HETATM   28  C   UNL     1     -42.988  56.843 -59.669  1.00  0.00     0.019 A 
HETATM   29  C   UNL     1     -42.471  57.797 -58.802  1.00  0.00     0.004 A 
HETATM   30  C   UNL     1     -42.312  57.486 -57.451  1.00  0.00     0.032 A 
ENDBRANCH  21  25
ENDBRANCH   1  15
BRANCH   1  31
HETATM   31  C   UNL     1     -41.542  57.286 -50.633  1.00  0.00    -0.047 A 
HETATM   32  C   UNL     1     -42.670  58.081 -50.924  1.00  0.00     0.043 A 
HETATM   33  C   UNL     1     -42.556  59.477 -51.030  1.00  0.00     0.103 A 
HETATM   34  C   UNL     1     -41.315  60.105 -50.889  1.00  0.00     0.036 A 
HETATM   35  C   UNL     1     -40.193  59.332 -50.607  1.00  0.00     0.003 A 
HETATM   36  C   UNL     1     -40.315  57.946 -50.455  1.00  0.00     0.008 A 
BRANCH  33  37
HETATM   37  N   UNL     1     -43.761  60.292 -51.229  1.00  0.00    -0.116 N 
HETATM   38  O   UNL     1     -43.963  61.226 -50.439  1.00  0.00    -0.532 OA
HETATM   39  O   UNL     1     -44.501  60.007 -52.181  1.00  0.00    -0.532 OA
ENDBRANCH  33  37
ENDBRANCH   1  31
TORSDOF 9
ENDMDL
MODEL 7
REMARK VINA RESULT:      -8.3      2.280      4.419
REMARK  9 active torsions:
REMARK  status: ('A' for Active; 'I' for Inactive)
REMARK    1  A    between atoms: C_3  and  C_4 
REMARK    2  A    between atoms: C_4  and  C_5 
REMARK    3  A    between atoms: C_5  and  N_6 
REMARK       I    between atoms: N_6  and  C_7 
REMARK    4  A    between atoms: C_7  and  C_8 
REMARK    5  A    between atoms: C_8  and  C_9 
REMARK    6  A    between atoms: C_9  and  C_10 
REMARK    7  A    between atoms: C_9  and  C_26 
REMARK    8  A    between atoms: C_14  and  C_15 
REMARK    9  A    between atoms: C_28  and  N_29 
ROOT
HETATM    1  C   UNL     1     -43.203  58.286 -56.403  1.00  0.00     0.062 C 
ENDROOT
BRANCH   1   2
HETATM    2  C   UNL     1     -42.078  59.303 -56.107  1.00  0.00     0.116 C 
BRANCH   2   3
HETATM    3  C   UNL     1     -42.208  60.641 -56.819  1.00  0.00     0.218 C 
HETATM    4  N   UNL     1     -43.475  61.176 -56.821  1.00  0.00    -0.361 N 
HETATM    5  H   UNL     1     -44.220  60.685 -56.339  1.00  0.00     0.162 HD
HETATM    6  O   UNL     1     -41.253  61.180 -57.374  1.00  0.00    -0.274 OA
BRANCH   4   7
HETATM    7  C   UNL     1     -43.821  62.408 -57.502  1.00  0.00     0.128 C 
BRANCH   7   8
HETATM    8  C   UNL     1     -44.679  62.193 -58.753  1.00  0.00     0.079 C 
BRANCH   8   9
HETATM    9  C   UNL     1     -45.339  60.849 -58.948  1.00  0.00     0.035 A 
HETATM   10  C   UNL     1     -45.039  60.011 -60.019  1.00  0.00     0.027 A 
HETATM   11  C   UNL     1     -45.623  58.747 -60.079  1.00  0.00     0.003 A 
HETATM   12  C   UNL     1     -46.472  58.336 -59.063  1.00  0.00     0.019 A 
HETATM   13  C   UNL     1     -46.710  59.214 -58.024  1.00  0.00     0.117 A 
HETATM   14  N   UNL     1     -46.176  60.455 -57.948  1.00  0.00    -0.266 NA
ENDBRANCH   8   9
ENDBRANCH   7   8
ENDBRANCH   4   7
ENDBRANCH   2   3
ENDBRANCH   1   2
BRANCH   1  15
HETATM   15  C   UNL     1     -43.526  57.381 -55.228  1.00  0.00    -0.021 C 
HETATM   16  C   UNL     1     -42.575  56.446 -54.669  1.00  0.00    -0.001 A 
HETATM   17  C   UNL     1     -43.286  55.522 -53.914  1.00  0.00     0.043 A 
HETATM   18  C   UNL     1     -41.201  56.221 -54.865  1.00  0.00     0.015 A 
HETATM   19  C   UNL     1     -42.725  54.317 -53.453  1.00  0.00     0.044 A 
HETATM   20  N   UNL     1     -44.569  56.001 -53.807  1.00  0.00    -0.365 N 
HETATM   21  C   UNL     1     -41.378  54.030 -53.757  1.00  0.00    -0.005 A 
HETATM   22  C   UNL     1     -40.630  55.025 -54.412  1.00  0.00     0.015 A 
HETATM   23  H   UNL     1     -45.329  55.511 -53.356  1.00  0.00     0.165 HD
HETATM   24  C   UNL     1     -44.707  57.151 -54.545  1.00  0.00     0.097 C 
BRANCH  21  25
HETATM   25  C   UNL     1     -40.762  52.706 -53.480  1.00  0.00     0.066 A 
HETATM   26  N   UNL     1     -40.223  52.571 -52.238  1.00  0.00    -0.260 NA
HETATM   27  C   UNL     1     -39.580  51.423 -51.935  1.00  0.00     0.117 A 
HETATM   28  C   UNL     1     -39.433  50.372 -52.816  1.00  0.00     0.019 A 
HETATM   29  C   UNL     1     -39.991  50.503 -54.081  1.00  0.00     0.004 A 
HETATM   30  C   UNL     1     -40.665  51.678 -54.418  1.00  0.00     0.032 A 
ENDBRANCH  21  25
ENDBRANCH   1  15
BRANCH   1  31
HETATM   31  C   UNL     1     -42.909  57.532 -57.697  1.00  0.00    -0.047 A 
HETATM   32  C   UNL     1     -43.714  56.419 -58.016  1.00  0.00     0.043 A 
HETATM   33  C   UNL     1     -43.629  55.810 -59.279  1.00  0.00     0.103 A 
HETATM   34  C   UNL     1     -42.716  56.267 -60.233  1.00  0.00     0.036 A 
HETATM   35  C   UNL     1     -41.911  57.361 -59.929  1.00  0.00     0.003 A 
HETATM   36  C   UNL     1     -42.028  57.998 -58.688  1.00  0.00     0.008 A 
BRANCH  33  37
HETATM   37  N   UNL     1     -44.551  54.721 -59.623  1.00  0.00    -0.116 N 
HETATM   38  O   UNL     1     -45.422  54.949 -60.476  1.00  0.00    -0.532 OA
HETATM   39  O   UNL     1     -44.401  53.631 -59.051  1.00  0.00    -0.532 OA
ENDBRANCH  33  37
ENDBRANCH   1  31
TORSDOF 9
ENDMDL
MODEL 8
REMARK VINA RESULT:      -8.2      2.600      6.881
REMARK  9 active torsions:
REMARK  status: ('A' for Active; 'I' for Inactive)
REMARK    1  A    between atoms: C_3  and  C_4 
REMARK    2  A    between atoms: C_4  and  C_5 
REMARK    3  A    between atoms: C_5  and  N_6 
REMARK       I    between atoms: N_6  and  C_7 
REMARK    4  A    between atoms: C_7  and  C_8 
REMARK    5  A    between atoms: C_8  and  C_9 
REMARK    6  A    between atoms: C_9  and  C_10 
REMARK    7  A    between atoms: C_9  and  C_26 
REMARK    8  A    between atoms: C_14  and  C_15 
REMARK    9  A    between atoms: C_28  and  N_29 
ROOT
HETATM    1  C   UNL     1     -41.322  56.043 -51.642  1.00  0.00     0.062 C 
ENDROOT
BRANCH   1   2
HETATM    2  C   UNL     1     -41.165  56.892 -50.360  1.00  0.00     0.116 C 
BRANCH   2   3
HETATM    3  C   UNL     1     -40.911  58.374 -50.590  1.00  0.00     0.218 C 
HETATM    4  N   UNL     1     -41.977  59.196 -50.311  1.00  0.00    -0.361 N 
HETATM    5  H   UNL     1     -42.834  58.790 -49.951  1.00  0.00     0.162 HD
HETATM    6  O   UNL     1     -39.838  58.792 -51.021  1.00  0.00    -0.274 OA
BRANCH   4   7
HETATM    7  C   UNL     1     -41.959  60.630 -50.528  1.00  0.00     0.128 C 
BRANCH   7   8
HETATM    8  C   UNL     1     -43.065  61.118 -51.468  1.00  0.00     0.079 C 
BRANCH   8   9
HETATM    9  C   UNL     1     -42.826  61.042 -52.958  1.00  0.00     0.035 A 
HETATM   10  C   UNL     1     -42.066  60.036 -53.548  1.00  0.00     0.027 A 
HETATM   11  C   UNL     1     -41.968  59.983 -54.937  1.00  0.00     0.003 A 
HETATM   12  C   UNL     1     -42.645  60.917 -55.708  1.00  0.00     0.019 A 
HETATM   13  C   UNL     1     -43.394  61.876 -55.053  1.00  0.00     0.117 A 
HETATM   14  N   UNL     1     -43.490  61.966 -53.707  1.00  0.00    -0.266 NA
ENDBRANCH   8   9
ENDBRANCH   7   8
ENDBRANCH   4   7
ENDBRANCH   2   3
ENDBRANCH   1   2
BRANCH   1  15
HETATM   15  C   UNL     1     -42.646  56.258 -52.353  1.00  0.00    -0.021 C 
HETATM   16  C   UNL     1     -42.776  56.266 -53.792  1.00  0.00    -0.001 A 
HETATM   17  C   UNL     1     -43.985  56.875 -54.104  1.00  0.00     0.043 A 
HETATM   18  C   UNL     1     -41.905  55.948 -54.849  1.00  0.00     0.015 A 
HETATM   19  C   UNL     1     -44.314  57.301 -55.404  1.00  0.00     0.044 A 
HETATM   20  N   UNL     1     -44.675  57.010 -52.925  1.00  0.00    -0.365 N 
HETATM   21  C   UNL     1     -43.387  57.096 -56.446  1.00  0.00    -0.005 A 
HETATM   22  C   UNL     1     -42.220  56.367 -56.148  1.00  0.00     0.015 A 
HETATM   23  H   UNL     1     -45.571  57.470 -52.832  1.00  0.00     0.165 HD
HETATM   24  C   UNL     1     -43.901  56.585 -51.872  1.00  0.00     0.097 C 
BRANCH  21  25
HETATM   25  C   UNL     1     -43.565  57.680 -57.800  1.00  0.00     0.066 A 
HETATM   26  N   UNL     1     -44.784  57.464 -58.364  1.00  0.00    -0.260 NA
HETATM   27  C   UNL     1     -44.999  57.901 -59.623  1.00  0.00     0.117 A 
HETATM   28  C   UNL     1     -44.049  58.557 -60.379  1.00  0.00     0.019 A 
HETATM   29  C   UNL     1     -42.808  58.789 -59.802  1.00  0.00     0.004 A 
HETATM   30  C   UNL     1     -42.562  58.351 -58.500  1.00  0.00     0.032 A 
ENDBRANCH  21  25
ENDBRANCH   1  15
BRANCH   1  31
HETATM   31  C   UNL     1     -41.013  54.578 -51.347  1.00  0.00    -0.047 A 
HETATM   32  C   UNL     1     -40.743  53.724 -52.437  1.00  0.00     0.043 A 
HETATM   33  C   UNL     1     -40.257  52.423 -52.225  1.00  0.00     0.103 A 
HETATM   34  C   UNL     1     -40.067  51.933 -50.930  1.00  0.00     0.036 A 
HETATM   35  C   UNL     1     -40.335  52.763 -49.846  1.00  0.00     0.003 A 
HETATM   36  C   UNL     1     -40.775  54.075 -50.057  1.00  0.00     0.008 A 
BRANCH  33  37
HETATM   37  N   UNL     1     -39.883  51.591 -53.376  1.00  0.00    -0.116 N 
HETATM   38  O   UNL     1     -39.518  50.427 -53.154  1.00  0.00    -0.532 OA
HETATM   39  O   UNL     1     -39.966  52.095 -54.506  1.00  0.00    -0.532 OA
ENDBRANCH  33  37
ENDBRANCH   1  31
TORSDOF 9
ENDMDL
MODEL 9
REMARK VINA RESULT:      -8.1      2.552      6.649
REMARK  9 active torsions:
REMARK  status: ('A' for Active; 'I' for Inactive)
REMARK    1  A    between atoms: C_3  and  C_4 
REMARK    2  A    between atoms: C_4  and  C_5 
REMARK    3  A    between atoms: C_5  and  N_6 
REMARK       I    between atoms: N_6  and  C_7 
REMARK    4  A    between atoms: C_7  and  C_8 
REMARK    5  A    between atoms: C_8  and  C_9 
REMARK    6  A    between atoms: C_9  and  C_10 
REMARK    7  A    between atoms: C_9  and  C_26 
REMARK    8  A    between atoms: C_14  and  C_15 
REMARK    9  A    between atoms: C_28  and  N_29 
ROOT
HETATM    1  C   UNL     1     -42.748  58.189 -53.985  1.00  0.00     0.062 C 
ENDROOT
BRANCH   1   2
HETATM    2  C   UNL     1     -43.681  57.377 -54.911  1.00  0.00     0.116 C 
BRANCH   2   3
HETATM    3  C   UNL     1     -43.287  57.365 -56.380  1.00  0.00     0.218 C 
HETATM    4  N   UNL     1     -43.391  56.141 -56.998  1.00  0.00    -0.361 N 
HETATM    5  H   UNL     1     -43.741  55.348 -56.471  1.00  0.00     0.162 HD
HETATM    6  O   UNL     1     -42.880  58.372 -56.954  1.00  0.00    -0.274 OA
BRANCH   4   7
HETATM    7  C   UNL     1     -43.001  55.905 -58.374  1.00  0.00     0.128 C 
BRANCH   7   8
HETATM    8  C   UNL     1     -44.105  55.263 -59.221  1.00  0.00     0.079 C 
BRANCH   8   9
HETATM    9  C   UNL     1     -45.179  56.155 -59.796  1.00  0.00     0.035 A 
HETATM   10  C   UNL     1     -46.262  55.661 -60.518  1.00  0.00     0.027 A 
HETATM   11  C   UNL     1     -47.259  56.540 -60.937  1.00  0.00     0.003 A 
HETATM   12  C   UNL     1     -47.169  57.885 -60.609  1.00  0.00     0.019 A 
HETATM   13  C   UNL     1     -46.074  58.300 -59.876  1.00  0.00     0.117 A 
HETATM   14  N   UNL     1     -45.079  57.476 -59.474  1.00  0.00    -0.266 NA
ENDBRANCH   8   9
ENDBRANCH   7   8
ENDBRANCH   4   7
ENDBRANCH   2   3
ENDBRANCH   1   2
BRANCH   1  15
HETATM   15  C   UNL     1     -42.108  57.357 -52.888  1.00  0.00    -0.021 C 
HETATM   16  C   UNL     1     -41.341  56.160 -53.153  1.00  0.00    -0.001 A 
HETATM   17  C   UNL     1     -41.255  55.443 -51.966  1.00  0.00     0.043 A 
HETATM   18  C   UNL     1     -40.850  55.559 -54.325  1.00  0.00     0.015 A 
HETATM   19  C   UNL     1     -40.822  54.106 -51.910  1.00  0.00     0.044 A 
HETATM   20  N   UNL     1     -41.724  56.266 -50.972  1.00  0.00    -0.365 N 
HETATM   21  C   UNL     1     -40.447  53.458 -53.106  1.00  0.00    -0.005 A 
HETATM   22  C   UNL     1     -40.417  54.227 -54.284  1.00  0.00     0.015 A 
HETATM   23  H   UNL     1     -41.831  55.994 -50.004  1.00  0.00     0.165 HD
HETATM   24  C   UNL     1     -42.184  57.443 -51.510  1.00  0.00     0.097 C 
BRANCH  21  25
HETATM   25  C   UNL     1     -40.163  52.001 -53.170  1.00  0.00     0.066 A 
HETATM   26  N   UNL     1     -39.768  51.440 -51.995  1.00  0.00    -0.260 NA
HETATM   27  C   UNL     1     -39.422  50.135 -51.988  1.00  0.00     0.117 A 
HETATM   28  C   UNL     1     -39.443  49.330 -53.109  1.00  0.00     0.019 A 
HETATM   29  C   UNL     1     -39.856  49.898 -54.307  1.00  0.00     0.004 A 
HETATM   30  C   UNL     1     -40.223  51.244 -54.340  1.00  0.00     0.032 A 
ENDBRANCH  21  25
ENDBRANCH   1  15
BRANCH   1  31
HETATM   31  C   UNL     1     -43.465  59.435 -53.471  1.00  0.00    -0.047 A 
HETATM   32  C   UNL     1     -44.483  59.267 -52.510  1.00  0.00     0.043 A 
HETATM   33  C   UNL     1     -45.039  60.377 -51.851  1.00  0.00     0.103 A 
HETATM   34  C   UNL     1     -44.623  61.674 -52.163  1.00  0.00     0.036 A 
HETATM   35  C   UNL     1     -43.623  61.855 -53.114  1.00  0.00     0.003 A 
HETATM   36  C   UNL     1     -43.037  60.747 -53.736  1.00  0.00     0.008 A 
BRANCH  33  37
HETATM   37  N   UNL     1     -46.021  60.169 -50.780  1.00  0.00    -0.116 N 
HETATM   38  O   UNL     1     -46.426  59.014 -50.584  1.00  0.00    -0.532 OA
HETATM   39  O   UNL     1     -46.380  61.158 -50.124  1.00  0.00    -0.532 OA
ENDBRANCH  33  37
ENDBRANCH   1  31
TORSDOF 9
ENDMDL
MODEL 10
REMARK VINA RESULT:      -7.9      2.737      5.931
REMARK  9 active torsions:
REMARK  status: ('A' for Active; 'I' for Inactive)
REMARK    1  A    between atoms: C_3  and  C_4 
REMARK    2  A    between atoms: C_4  and  C_5 
REMARK    3  A    between atoms: C_5  and  N_6 
REMARK       I    between atoms: N_6  and  C_7 
REMARK    4  A    between atoms: C_7  and  C_8 
REMARK    5  A    between atoms: C_8  and  C_9 
REMARK    6  A    between atoms: C_9  and  C_10 
REMARK    7  A    between atoms: C_9  and  C_26 
REMARK    8  A    between atoms: C_14  and  C_15 
REMARK    9  A    between atoms: C_28  and  N_29 
ROOT
HETATM    1  C   UNL     1     -44.963  58.473 -56.624  1.00  0.00     0.062 C 
ENDROOT
BRANCH   1   2
HETATM    2  C   UNL     1     -46.475  58.369 -56.926  1.00  0.00     0.116 C 
BRANCH   2   3
HETATM    3  C   UNL     1     -46.830  58.110 -58.382  1.00  0.00     0.218 C 
HETATM    4  N   UNL     1     -46.834  56.786 -58.752  1.00  0.00    -0.361 N 
HETATM    5  H   UNL     1     -46.636  56.077 -58.054  1.00  0.00     0.162 HD
HETATM    6  O   UNL     1     -47.067  59.025 -59.168  1.00  0.00    -0.274 OA
BRANCH   4   7
HETATM    7  C   UNL     1     -47.080  56.335 -60.108  1.00  0.00     0.128 C 
BRANCH   7   8
HETATM    8  C   UNL     1     -45.833  55.780 -60.803  1.00  0.00     0.079 C 
BRANCH   8   9
HETATM    9  C   UNL     1     -44.482  56.304 -60.378  1.00  0.00     0.035 A 
HETATM   10  C   UNL     1     -43.505  55.494 -59.806  1.00  0.00     0.027 A 
HETATM   11  C   UNL     1     -42.250  56.033 -59.527  1.00  0.00     0.003 A 
HETATM   12  C   UNL     1     -41.989  57.358 -59.841  1.00  0.00     0.019 A 
HETATM   13  C   UNL     1     -43.002  58.097 -60.422  1.00  0.00     0.117 A 
HETATM   14  N   UNL     1     -44.235  57.609 -60.685  1.00  0.00    -0.266 NA
ENDBRANCH   8   9
ENDBRANCH   7   8
ENDBRANCH   4   7
ENDBRANCH   2   3
ENDBRANCH   1   2
BRANCH   1  15
HETATM   15  C   UNL     1     -44.590  58.006 -55.229  1.00  0.00    -0.021 C 
HETATM   16  C   UNL     1     -43.455  57.152 -54.960  1.00  0.00    -0.001 A 
HETATM   17  C   UNL     1     -43.633  56.599 -53.698  1.00  0.00     0.043 A 
HETATM   18  C   UNL     1     -42.380  56.689 -55.739  1.00  0.00     0.015 A 
HETATM   19  C   UNL     1     -42.871  55.515 -53.224  1.00  0.00     0.044 A 
HETATM   20  N   UNL     1     -44.686  57.263 -53.119  1.00  0.00    -0.365 N 
HETATM   21  C   UNL     1     -41.874  54.965 -54.055  1.00  0.00    -0.005 A 
HETATM   22  C   UNL     1     -41.615  55.609 -55.279  1.00  0.00     0.015 A 
HETATM   23  H   UNL     1     -45.080  57.040 -52.215  1.00  0.00     0.165 HD
HETATM   24  C   UNL     1     -45.231  58.155 -54.011  1.00  0.00     0.097 C 
BRANCH  21  25
HETATM   25  C   UNL     1     -41.157  53.708 -53.718  1.00  0.00     0.066 A 
HETATM   26  N   UNL     1     -40.745  53.609 -52.425  1.00  0.00    -0.260 NA
HETATM   27  C   UNL     1     -40.024  52.529 -52.058  1.00  0.00     0.117 A 
HETATM   28  C   UNL     1     -39.673  51.512 -52.923  1.00  0.00     0.019 A 
HETATM   29  C   UNL     1     -40.101  51.605 -54.241  1.00  0.00     0.004 A 
HETATM   30  C   UNL     1     -40.852  52.710 -54.644  1.00  0.00     0.032 A 
ENDBRANCH  21  25
ENDBRANCH   1  15
BRANCH   1  31
HETATM   31  C   UNL     1     -44.450  59.870 -56.963  1.00  0.00    -0.047 A 
HETATM   32  C   UNL     1     -43.165  59.986 -57.532  1.00  0.00     0.043 A 
HETATM   33  C   UNL     1     -42.718  61.214 -58.050  1.00  0.00     0.103 A 
HETATM   34  C   UNL     1     -43.521  62.355 -57.977  1.00  0.00     0.036 A 
HETATM   35  C   UNL     1     -44.789  62.255 -57.412  1.00  0.00     0.003 A 
HETATM   36  C   UNL     1     -45.253  61.023 -56.938  1.00  0.00     0.008 A 
BRANCH  33  37
HETATM   37  N   UNL     1     -41.420  61.284 -58.732  1.00  0.00    -0.116 N 
HETATM   38  O   UNL     1     -40.415  61.506 -58.041  1.00  0.00    -0.532 OA
HETATM   39  O   UNL     1     -41.401  61.106 -59.960  1.00  0.00    -0.532 OA
ENDBRANCH  33  37
ENDBRANCH   1  31
TORSDOF 9
ENDMDL
