MODEL 1
REMARK VINA RESULT:      -8.5      0.000      0.000
REMARK  7 active torsions:
REMARK  status: ('A' for Active; 'I' for Inactive)
REMARK    1  A    between atoms: C_3  and  O_4 
REMARK    2  A    between atoms: O_4  and  C_5 
REMARK    3  A    between atoms: C_5  and  C_6 
REMARK       I    between atoms: C_6  and  N_7 
REMARK    4  A    between atoms: N_7  and  C_8 
REMARK    5  A    between atoms: C_9  and  C_10 
REMARK       I    between atoms: C_10  and  N_11 
REMARK    6  A    between atoms: N_11  and  C_12 
REMARK    7  A    between atoms: C_12  and  C_13 
ROOT
HETATM    1  C   UNL     1     -43.206  56.681 -52.255  1.00  0.00     0.050 A 
HETATM    2  C   UNL     1     -43.382  57.063 -53.602  1.00  0.00     0.058 A 
HETATM    3  C   UNL     1     -44.300  58.070 -53.948  1.00  0.00     0.019 A 
HETATM    4  C   UNL     1     -45.070  58.686 -52.967  1.00  0.00     0.001 A 
HETATM    5  C   UNL     1     -44.924  58.301 -51.640  1.00  0.00     0.002 A 
HETATM    6  C   UNL     1     -43.999  57.311 -51.287  1.00  0.00     0.030 A 
ENDROOT
BRANCH   1   7
HETATM    7  N   UNL     1     -42.191  55.750 -51.900  1.00  0.00    -0.324 N 
HETATM    8  C   UNL     1     -42.381  54.427 -51.518  1.00  0.00     0.246 C 
HETATM    9  O   UNL     1     -43.423  53.797 -51.675  1.00  0.00    -0.271 OA
HETATM   10  H   UNL     1     -41.237  56.090 -51.941  1.00  0.00     0.169 HD
BRANCH   8  11
HETATM   11  C   UNL     1     -41.130  53.799 -50.889  1.00  0.00     0.278 C 
BRANCH  11  12
HETATM   12  O   UNL     1     -40.195  53.549 -51.929  1.00  0.00    -0.342 OA
BRANCH  12  13
HETATM   13  C   UNL     1     -40.024  52.261 -52.354  1.00  0.00     0.075 A 
HETATM   14  C   UNL     1     -40.163  52.060 -53.742  1.00  0.00    -0.029 A 
HETATM   15  C   UNL     1     -40.476  53.209 -54.660  1.00  0.00     0.051 C 
HETATM   16  C   UNL     1     -39.975  50.776 -54.275  1.00  0.00     0.009 A 
HETATM   17  C   UNL     1     -39.666  49.704 -53.441  1.00  0.00     0.001 A 
HETATM   18  C   UNL     1     -39.537  49.907 -52.068  1.00  0.00     0.003 A 
HETATM   19  C   UNL     1     -39.712  51.182 -51.525  1.00  0.00     0.037 A 
ENDBRANCH  12  13
ENDBRANCH  11  12
ENDBRANCH   8  11
ENDBRANCH   1   7
BRANCH   2  20
HETATM   20  C   UNL     1     -42.649  56.435 -54.729  1.00  0.00     0.254 C 
HETATM   21  N   UNL     1     -43.431  55.817 -55.681  1.00  0.00    -0.353 N 
HETATM   22  H   UNL     1     -44.432  55.992 -55.666  1.00  0.00     0.163 HD
HETATM   23  O   UNL     1     -41.429  56.509 -54.794  1.00  0.00    -0.268 OA
BRANCH  21  24
HETATM   24  C   UNL     1     -42.858  55.318 -56.914  1.00  0.00     0.162 C 
BRANCH  24  25
HETATM   25  C   UNL     1     -43.282  56.166 -58.075  1.00  0.00    -0.023 A 
HETATM   26  C   UNL     1     -42.872  55.849 -59.366  1.00  0.00     0.125 A 
HETATM   27  N   UNL     1     -43.223  56.546 -60.468  1.00  0.00    -0.273 NA
HETATM   28  C   UNL     1     -43.985  57.644 -60.271  1.00  0.00     0.116 A 
HETATM   29  C   UNL     1     -44.429  58.059 -59.027  1.00  0.00     0.020 A 
HETATM   30  C   UNL     1     -44.078  57.301 -57.912  1.00  0.00     0.012 A 
ENDBRANCH  24  25
ENDBRANCH  21  24
ENDBRANCH   2  20
TORSDOF 7
ENDMDL
MODEL 2
REMARK VINA RESULT:      -8.3      1.938      7.016
REMARK  7 active torsions:
REMARK  status: ('A' for Active; 'I' for Inactive)
REMARK    1  A    between atoms: C_3  and  O_4 
REMARK    2  A    between atoms: O_4  and  C_5 
REMARK    3  A    between atoms: C_5  and  C_6 
REMARK       I    between atoms: C_6  and  N_7 
REMARK    4  A    between atoms: N_7  and  C_8 
REMARK    5  A    between atoms: C_9  and  C_10 
REMARK       I    between atoms: C_10  and  N_11 
REMARK    6  A    between atoms: N_11  and  C_12 
REMARK    7  A    between atoms: C_12  and  C_13 
ROOT
HETATM    1  C   UNL     1     -41.203  52.850 -53.855  1.00  0.00     0.050 A 
HETATM    2  C   UNL     1     -41.020  53.247 -52.514  1.00  0.00     0.058 A 
HETATM    3  C   UNL     1     -40.103  52.578 -51.686  1.00  0.00     0.019 A 
HETATM    4  C   UNL     1     -39.380  51.493 -52.172  1.00  0.00     0.001 A 
HETATM    5  C   UNL     1     -39.568  51.077 -53.484  1.00  0.00     0.002 A 
HETATM    6  C   UNL     1     -40.468  51.751 -54.318  1.00  0.00     0.030 A 
ENDROOT
BRANCH   1   7
HETATM    7  N   UNL     1     -42.041  53.607 -54.719  1.00  0.00    -0.324 N 
HETATM    8  C   UNL     1     -41.810  54.903 -55.167  1.00  0.00     0.246 C 
HETATM    9  O   UNL     1     -40.732  55.487 -55.090  1.00  0.00    -0.271 OA
HETATM   10  H   UNL     1     -42.884  53.147 -55.043  1.00  0.00     0.169 HD
BRANCH   8  11
HETATM   11  C   UNL     1     -43.047  55.546 -55.808  1.00  0.00     0.278 C 
BRANCH  11  12
HETATM   12  O   UNL     1     -43.060  55.192 -57.185  1.00  0.00    -0.342 OA
BRANCH  12  13
HETATM   13  C   UNL     1     -42.993  56.193 -58.114  1.00  0.00     0.075 A 
HETATM   14  C   UNL     1     -43.608  55.913 -59.350  1.00  0.00    -0.029 A 
HETATM   15  C   UNL     1     -44.285  54.591 -59.592  1.00  0.00     0.051 C 
HETATM   16  C   UNL     1     -43.618  56.891 -60.354  1.00  0.00     0.009 A 
HETATM   17  C   UNL     1     -43.012  58.128 -60.140  1.00  0.00     0.001 A 
HETATM   18  C   UNL     1     -42.398  58.398 -58.919  1.00  0.00     0.003 A 
HETATM   19  C   UNL     1     -42.391  57.436 -57.905  1.00  0.00     0.037 A 
ENDBRANCH  12  13
ENDBRANCH  11  12
ENDBRANCH   8  11
ENDBRANCH   1   7
BRANCH   2  20
HETATM   20  C   UNL     1     -41.777  54.357 -51.882  1.00  0.00     0.254 C 
HETATM   21  N   UNL     1     -41.030  55.453 -51.510  1.00  0.00    -0.353 N 
HETATM   22  H   UNL     1     -40.078  55.525 -51.856  1.00  0.00     0.163 HD
HETATM   23  O   UNL     1     -42.991  54.281 -51.746  1.00  0.00    -0.268 OA
BRANCH  21  24
HETATM   24  C   UNL     1     -41.665  56.669 -51.043  1.00  0.00     0.162 C 
BRANCH  24  25
HETATM   25  C   UNL     1     -41.730  57.686 -52.142  1.00  0.00    -0.023 A 
HETATM   26  C   UNL     1     -40.616  58.459 -52.454  1.00  0.00     0.125 A 
HETATM   27  N   UNL     1     -40.582  59.383 -53.439  1.00  0.00    -0.273 NA
HETATM   28  C   UNL     1     -41.732  59.581 -54.121  1.00  0.00     0.116 A 
HETATM   29  C   UNL     1     -42.902  58.881 -53.876  1.00  0.00     0.020 A 
HETATM   30  C   UNL     1     -42.896  57.912 -52.875  1.00  0.00     0.012 A 
ENDBRANCH  24  25
ENDBRANCH  21  24
ENDBRANCH   2  20
TORSDOF 7
ENDMDL
MODEL 3
REMARK VINA RESULT:      -8.2      1.867      5.270
REMARK  7 active torsions:
REMARK  status: ('A' for Active; 'I' for Inactive)
REMARK    1  A    between atoms: C_3  and  O_4 
REMARK    2  A    between atoms: O_4  and  C_5 
REMARK    3  A    between atoms: C_5  and  C_6 
REMARK       I    between atoms: C_6  and  N_7 
REMARK    4  A    between atoms: N_7  and  C_8 
REMARK    5  A    between atoms: C_9  and  C_10 
REMARK       I    between atoms: C_10  and  N_11 
REMARK    6  A    between atoms: N_11  and  C_12 
REMARK    7  A    between atoms: C_12  and  C_13 
ROOT
HETATM    1  C   UNL     1     -42.366  56.228 -56.385  1.00  0.00     0.050 A 
HETATM    2  C   UNL     1     -42.923  57.324 -55.693  1.00  0.00     0.058 A 
HETATM    3  C   UNL     1     -43.999  58.046 -56.238  1.00  0.00     0.019 A 
HETATM    4  C   UNL     1     -44.512  57.706 -57.486  1.00  0.00     0.001 A 
HETATM    5  C   UNL     1     -43.956  56.644 -58.189  1.00  0.00     0.002 A 
HETATM    6  C   UNL     1     -42.896  55.911 -57.642  1.00  0.00     0.030 A 
ENDROOT
BRANCH   1   7
HETATM    7  N   UNL     1     -41.361  55.429 -55.774  1.00  0.00    -0.324 N 
HETATM    8  C   UNL     1     -41.567  54.383 -54.881  1.00  0.00     0.246 C 
HETATM    9  O   UNL     1     -42.648  53.832 -54.688  1.00  0.00    -0.271 OA
HETATM   10  H   UNL     1     -40.402  55.643 -56.024  1.00  0.00     0.169 HD
BRANCH   8  11
HETATM   11  C   UNL     1     -40.285  53.948 -54.159  1.00  0.00     0.278 C 
BRANCH  11  12
HETATM   12  O   UNL     1     -40.146  52.543 -54.322  1.00  0.00    -0.342 OA
BRANCH  12  13
HETATM   13  C   UNL     1     -40.003  51.771 -53.203  1.00  0.00     0.075 A 
HETATM   14  C   UNL     1     -39.809  50.395 -53.440  1.00  0.00    -0.029 A 
HETATM   15  C   UNL     1     -39.766  49.853 -54.842  1.00  0.00     0.051 C 
HETATM   16  C   UNL     1     -39.622  49.528 -52.354  1.00  0.00     0.009 A 
HETATM   17  C   UNL     1     -39.640  50.017 -51.049  1.00  0.00     0.001 A 
HETATM   18  C   UNL     1     -39.841  51.376 -50.820  1.00  0.00     0.003 A 
HETATM   19  C   UNL     1     -40.018  52.253 -51.892  1.00  0.00     0.037 A 
ENDBRANCH  12  13
ENDBRANCH  11  12
ENDBRANCH   8  11
ENDBRANCH   1   7
BRANCH   2  20
HETATM   20  C   UNL     1     -42.418  57.801 -54.381  1.00  0.00     0.254 C 
HETATM   21  N   UNL     1     -43.323  57.761 -53.342  1.00  0.00    -0.353 N 
HETATM   22  H   UNL     1     -44.185  57.241 -53.476  1.00  0.00     0.163 HD
HETATM   23  O   UNL     1     -41.257  58.168 -54.259  1.00  0.00    -0.268 OA
BRANCH  21  24
HETATM   24  C   UNL     1     -42.912  58.033 -51.980  1.00  0.00     0.162 C 
BRANCH  24  25
HETATM   25  C   UNL     1     -42.611  56.757 -51.254  1.00  0.00    -0.023 A 
HETATM   26  C   UNL     1     -41.572  56.701 -50.330  1.00  0.00     0.125 A 
HETATM   27  N   UNL     1     -41.245  55.599 -49.619  1.00  0.00    -0.273 NA
HETATM   28  C   UNL     1     -41.960  54.481 -49.874  1.00  0.00     0.116 A 
HETATM   29  C   UNL     1     -42.997  54.424 -50.790  1.00  0.00     0.020 A 
HETATM   30  C   UNL     1     -43.332  55.585 -51.484  1.00  0.00     0.012 A 
ENDBRANCH  24  25
ENDBRANCH  21  24
ENDBRANCH   2  20
TORSDOF 7
ENDMDL
MODEL 4
REMARK VINA RESULT:      -8.0      1.642      5.293
REMARK  7 active torsions:
REMARK  status: ('A' for Active; 'I' for Inactive)
REMARK    1  A    between atoms: C_3  and  O_4 
REMARK    2  A    between atoms: O_4  and  C_5 
REMARK    3  A    between atoms: C_5  and  C_6 
REMARK       I    between atoms: C_6  and  N_7 
REMARK    4  A    between atoms: N_7  and  C_8 
REMARK    5  A    between atoms: C_9  and  C_10 
REMARK       I    between atoms: C_10  and  N_11 
REMARK    6  A    between atoms: N_11  and  C_12 
REMARK    7  A    between atoms: C_12  and  C_13 
ROOT
HETATM    1  C   UNL     1     -43.176  56.128 -57.860  1.00  0.00     0.050 A 
HETATM    2  C   UNL     1     -43.901  57.297 -57.545  1.00  0.00     0.058 A 
HETATM    3  C   UNL     1     -45.016  57.678 -58.310  1.00  0.00     0.019 A 
HETATM    4  C   UNL     1     -45.405  56.921 -59.411  1.00  0.00     0.001 A 
HETATM    5  C   UNL     1     -44.684  55.782 -59.747  1.00  0.00     0.002 A 
HETATM    6  C   UNL     1     -43.583  55.388 -58.977  1.00  0.00     0.030 A 
ENDROOT
BRANCH   1   7
HETATM    7  N   UNL     1     -42.126  55.684 -57.010  1.00  0.00    -0.324 N 
HETATM    8  C   UNL     1     -42.256  54.856 -55.901  1.00  0.00     0.246 C 
HETATM    9  O   UNL     1     -43.251  54.183 -55.644  1.00  0.00    -0.271 OA
HETATM   10  H   UNL     1     -41.192  55.999 -57.247  1.00  0.00     0.169 HD
BRANCH   8  11
HETATM   11  C   UNL     1     -41.002  54.834 -55.017  1.00  0.00     0.278 C 
BRANCH  11  12
HETATM   12  O   UNL     1     -41.337  54.186 -53.797  1.00  0.00    -0.342 OA
BRANCH  12  13
HETATM   13  C   UNL     1     -40.721  53.003 -53.499  1.00  0.00     0.075 A 
HETATM   14  C   UNL     1     -40.281  52.870 -52.167  1.00  0.00    -0.029 A 
HETATM   15  C   UNL     1     -40.494  53.976 -51.171  1.00  0.00     0.051 C 
HETATM   16  C   UNL     1     -39.666  51.678 -51.760  1.00  0.00     0.009 A 
HETATM   17  C   UNL     1     -39.477  50.635 -52.666  1.00  0.00     0.001 A 
HETATM   18  C   UNL     1     -39.907  50.775 -53.984  1.00  0.00     0.003 A 
HETATM   19  C   UNL     1     -40.531  51.953 -54.401  1.00  0.00     0.037 A 
ENDBRANCH  12  13
ENDBRANCH  11  12
ENDBRANCH   8  11
ENDBRANCH   1   7
BRANCH   2  20
HETATM   20  C   UNL     1     -43.541  58.201 -56.424  1.00  0.00     0.254 C 
HETATM   21  N   UNL     1     -44.474  58.305 -55.416  1.00  0.00    -0.353 N 
HETATM   22  H   UNL     1     -45.235  57.633 -55.395  1.00  0.00     0.163 HD
HETATM   23  O   UNL     1     -42.460  58.777 -56.414  1.00  0.00    -0.268 OA
BRANCH  21  24
HETATM   24  C   UNL     1     -44.177  59.015 -54.189  1.00  0.00     0.162 C 
BRANCH  24  25
HETATM   25  C   UNL     1     -44.197  58.078 -53.019  1.00  0.00    -0.023 A 
HETATM   26  C   UNL     1     -45.007  58.343 -51.918  1.00  0.00     0.125 A 
HETATM   27  N   UNL     1     -45.100  57.544 -50.833  1.00  0.00    -0.273 NA
HETATM   28  C   UNL     1     -44.310  56.447 -50.821  1.00  0.00     0.116 A 
HETATM   29  C   UNL     1     -43.454  56.105 -51.854  1.00  0.00     0.020 A 
HETATM   30  C   UNL     1     -43.404  56.931 -52.974  1.00  0.00     0.012 A 
ENDBRANCH  24  25
ENDBRANCH  21  24
ENDBRANCH   2  20
TORSDOF 7
ENDMDL
MODEL 5
REMARK VINA RESULT:      -7.9      1.711      5.461
REMARK  7 active torsions:
REMARK  status: ('A' for Active; 'I' for Inactive)
REMARK    1  A    between atoms: C_3  and  O_4 
REMARK    2  A    between atoms: O_4  and  C_5 
REMARK    3  A    between atoms: C_5  and  C_6 
REMARK       I    between atoms: C_6  and  N_7 
REMARK    4  A    between atoms: N_7  and  C_8 
REMARK    5  A    between atoms: C_9  and  C_10 
REMARK       I    between atoms: C_10  and  N_11 
REMARK    6  A    between atoms: N_11  and  C_12 
REMARK    7  A    between atoms: C_12  and  C_13 
ROOT
HETATM    1  C   UNL     1     -40.283  53.162 -52.311  1.00  0.00     0.050 A 
HETATM    2  C   UNL     1     -40.652  53.409 -53.650  1.00  0.00     0.058 A 
HETATM    3  C   UNL     1     -40.512  52.412 -54.630  1.00  0.00     0.019 A 
HETATM    4  C   UNL     1     -39.978  51.170 -54.297  1.00  0.00     0.001 A 
HETATM    5  C   UNL     1     -39.588  50.922 -52.987  1.00  0.00     0.002 A 
HETATM    6  C   UNL     1     -39.742  51.907 -52.004  1.00  0.00     0.030 A 
ENDROOT
BRANCH   1   7
HETATM    7  N   UNL     1     -40.541  54.132 -51.304  1.00  0.00    -0.324 N 
HETATM    8  C   UNL     1     -41.790  54.556 -50.867  1.00  0.00     0.246 C 
HETATM    9  O   UNL     1     -42.847  53.975 -51.102  1.00  0.00    -0.271 OA
HETATM   10  H   UNL     1     -39.729  54.545 -50.860  1.00  0.00     0.169 HD
BRANCH   8  11
HETATM   11  C   UNL     1     -41.728  55.833 -50.018  1.00  0.00     0.278 C 
BRANCH  11  12
HETATM   12  O   UNL     1     -41.336  56.904 -50.867  1.00  0.00    -0.342 OA
BRANCH  12  13
HETATM   13  C   UNL     1     -42.311  57.620 -51.503  1.00  0.00     0.075 A 
HETATM   14  C   UNL     1     -41.850  58.584 -52.422  1.00  0.00    -0.029 A 
HETATM   15  C   UNL     1     -40.378  58.780 -52.660  1.00  0.00     0.051 C 
HETATM   16  C   UNL     1     -42.778  59.345 -53.146  1.00  0.00     0.009 A 
HETATM   17  C   UNL     1     -44.146  59.163 -52.952  1.00  0.00     0.001 A 
HETATM   18  C   UNL     1     -44.597  58.215 -52.036  1.00  0.00     0.003 A 
HETATM   19  C   UNL     1     -43.683  57.441 -51.315  1.00  0.00     0.037 A 
ENDBRANCH  12  13
ENDBRANCH  11  12
ENDBRANCH   8  11
ENDBRANCH   1   7
BRANCH   2  20
HETATM   20  C   UNL     1     -41.183  54.713 -54.120  1.00  0.00     0.254 C 
HETATM   21  N   UNL     1     -42.526  54.737 -54.425  1.00  0.00    -0.353 N 
HETATM   22  H   UNL     1     -43.098  53.951 -54.131  1.00  0.00     0.163 HD
HETATM   23  O   UNL     1     -40.451  55.693 -54.190  1.00  0.00    -0.268 OA
BRANCH  21  24
HETATM   24  C   UNL     1     -43.204  55.980 -54.729  1.00  0.00     0.162 C 
BRANCH  24  25
HETATM   25  C   UNL     1     -42.967  56.376 -56.155  1.00  0.00    -0.023 A 
HETATM   26  C   UNL     1     -43.148  55.454 -57.181  1.00  0.00     0.125 A 
HETATM   27  N   UNL     1     -42.975  55.732 -58.492  1.00  0.00    -0.273 NA
HETATM   28  C   UNL     1     -42.556  56.981 -58.795  1.00  0.00     0.116 A 
HETATM   29  C   UNL     1     -42.325  57.965 -57.849  1.00  0.00     0.020 A 
HETATM   30  C   UNL     1     -42.543  57.659 -56.508  1.00  0.00     0.012 A 
ENDBRANCH  24  25
ENDBRANCH  21  24
ENDBRANCH   2  20
TORSDOF 7
ENDMDL
MODEL 6
REMARK VINA RESULT:      -7.9      1.506      2.221
REMARK  7 active torsions:
REMARK  status: ('A' for Active; 'I' for Inactive)
REMARK    1  A    between atoms: C_3  and  O_4 
REMARK    2  A    between atoms: O_4  and  C_5 
REMARK    3  A    between atoms: C_5  and  C_6 
REMARK       I    between atoms: C_6  and  N_7 
REMARK    4  A    between atoms: N_7  and  C_8 
REMARK    5  A    between atoms: C_9  and  C_10 
REMARK       I    between atoms: C_10  and  N_11 
REMARK    6  A    between atoms: N_11  and  C_12 
REMARK    7  A    between atoms: C_12  and  C_13 
ROOT
HETATM    1  C   UNL     1     -44.582  57.463 -52.111  1.00  0.00     0.050 A 
HETATM    2  C   UNL     1     -44.545  57.614 -53.513  1.00  0.00     0.058 A 
HETATM    3  C   UNL     1     -44.969  58.810 -54.118  1.00  0.00     0.019 A 
HETATM    4  C   UNL     1     -45.460  59.854 -53.340  1.00  0.00     0.001 A 
HETATM    5  C   UNL     1     -45.524  59.709 -51.960  1.00  0.00     0.002 A 
HETATM    6  C   UNL     1     -45.087  58.526 -51.352  1.00  0.00     0.030 A 
ENDROOT
BRANCH   1   7
HETATM    7  N   UNL     1     -44.039  56.300 -51.500  1.00  0.00    -0.324 N 
HETATM    8  C   UNL     1     -42.757  56.161 -50.982  1.00  0.00     0.246 C 
HETATM    9  O   UNL     1     -41.993  57.094 -50.747  1.00  0.00    -0.271 OA
HETATM   10  H   UNL     1     -44.657  55.499 -51.431  1.00  0.00     0.169 HD
BRANCH   8  11
HETATM   11  C   UNL     1     -42.378  54.702 -50.699  1.00  0.00     0.278 C 
BRANCH  11  12
HETATM   12  O   UNL     1     -41.007  54.531 -51.035  1.00  0.00    -0.342 OA
BRANCH  12  13
HETATM   13  C   UNL     1     -40.700  53.915 -52.216  1.00  0.00     0.075 A 
HETATM   14  C   UNL     1     -40.228  52.592 -52.102  1.00  0.00    -0.029 A 
HETATM   15  C   UNL     1     -40.087  51.937 -50.755  1.00  0.00     0.051 C 
HETATM   16  C   UNL     1     -39.916  51.868 -53.261  1.00  0.00     0.009 A 
HETATM   17  C   UNL     1     -40.059  52.453 -54.518  1.00  0.00     0.001 A 
HETATM   18  C   UNL     1     -40.518  53.763 -54.626  1.00  0.00     0.003 A 
HETATM   19  C   UNL     1     -40.842  54.493 -53.479  1.00  0.00     0.037 A 
ENDBRANCH  12  13
ENDBRANCH  11  12
ENDBRANCH   8  11
ENDBRANCH   1   7
BRANCH   2  20
HETATM   20  C   UNL     1     -44.088  56.545 -54.436  1.00  0.00     0.254 C 
HETATM   21  N   UNL     1     -43.505  56.975 -55.608  1.00  0.00    -0.353 N 
HETATM   22  H   UNL     1     -43.247  57.955 -55.683  1.00  0.00     0.163 HD
HETATM   23  O   UNL     1     -44.209  55.366 -54.128  1.00  0.00    -0.268 OA
BRANCH  21  24
HETATM   24  C   UNL     1     -42.864  56.044 -56.512  1.00  0.00     0.162 C 
BRANCH  24  25
HETATM   25  C   UNL     1     -42.660  56.671 -57.859  1.00  0.00    -0.023 A 
HETATM   26  C   UNL     1     -42.880  55.935 -59.019  1.00  0.00     0.125 A 
HETATM   27  N   UNL     1     -42.738  56.427 -60.270  1.00  0.00    -0.273 NA
HETATM   28  C   UNL     1     -42.311  57.705 -60.372  1.00  0.00     0.116 A 
HETATM   29  C   UNL     1     -42.043  58.515 -59.281  1.00  0.00     0.020 A 
HETATM   30  C   UNL     1     -42.229  57.990 -58.004  1.00  0.00     0.012 A 
ENDBRANCH  24  25
ENDBRANCH  21  24
ENDBRANCH   2  20
TORSDOF 7
ENDMDL
MODEL 7
REMARK VINA RESULT:      -7.8      2.205      7.457
REMARK  7 active torsions:
REMARK  status: ('A' for Active; 'I' for Inactive)
REMARK    1  A    between atoms: C_3  and  O_4 
REMARK    2  A    between atoms: O_4  and  C_5 
REMARK    3  A    between atoms: C_5  and  C_6 
REMARK       I    between atoms: C_6  and  N_7 
REMARK    4  A    between atoms: N_7  and  C_8 
REMARK    5  A    between atoms: C_9  and  C_10 
REMARK       I    between atoms: C_10  and  N_11 
REMARK    6  A    between atoms: N_11  and  C_12 
REMARK    7  A    between atoms: C_12  and  C_13 
ROOT
HETATM    1  C   UNL     1     -40.001  52.098 -53.274  1.00  0.00     0.050 A 
HETATM    2  C   UNL     1     -39.970  52.005 -51.867  1.00  0.00     0.058 A 
HETATM    3  C   UNL     1     -39.757  50.769 -51.233  1.00  0.00     0.019 A 
HETATM    4  C   UNL     1     -39.601  49.611 -51.987  1.00  0.00     0.001 A 
HETATM    5  C   UNL     1     -39.654  49.684 -53.373  1.00  0.00     0.002 A 
HETATM    6  C   UNL     1     -39.849  50.915 -54.010  1.00  0.00     0.030 A 
ENDROOT
BRANCH   1   7
HETATM    7  N   UNL     1     -40.095  53.367 -53.908  1.00  0.00    -0.324 N 
HETATM    8  C   UNL     1     -41.263  54.066 -54.187  1.00  0.00     0.246 C 
HETATM    9  O   UNL     1     -42.363  53.812 -53.702  1.00  0.00    -0.271 OA
HETATM   10  H   UNL     1     -39.219  53.802 -54.173  1.00  0.00     0.169 HD
BRANCH   8  11
HETATM   11  C   UNL     1     -41.047  55.232 -55.161  1.00  0.00     0.278 C 
BRANCH  11  12
HETATM   12  O   UNL     1     -42.249  55.991 -55.210  1.00  0.00    -0.342 OA
BRANCH  12  13
HETATM   13  C   UNL     1     -42.682  56.444 -56.424  1.00  0.00     0.075 A 
HETATM   14  C   UNL     1     -42.753  57.846 -56.555  1.00  0.00    -0.029 A 
HETATM   15  C   UNL     1     -42.367  58.747 -55.415  1.00  0.00     0.051 C 
HETATM   16  C   UNL     1     -43.156  58.405 -57.776  1.00  0.00     0.009 A 
HETATM   17  C   UNL     1     -43.499  57.585 -58.849  1.00  0.00     0.001 A 
HETATM   18  C   UNL     1     -43.436  56.200 -58.712  1.00  0.00     0.003 A 
HETATM   19  C   UNL     1     -43.025  55.629 -57.505  1.00  0.00     0.037 A 
ENDBRANCH  12  13
ENDBRANCH  11  12
ENDBRANCH   8  11
ENDBRANCH   1   7
BRANCH   2  20
HETATM   20  C   UNL     1     -40.175  53.170 -50.970  1.00  0.00     0.254 C 
HETATM   21  N   UNL     1     -41.488  53.514 -50.728  1.00  0.00    -0.353 N 
HETATM   22  H   UNL     1     -42.213  52.858 -51.001  1.00  0.00     0.163 HD
HETATM   23  O   UNL     1     -39.217  53.744 -50.468  1.00  0.00    -0.268 OA
BRANCH  21  24
HETATM   24  C   UNL     1     -41.830  54.517 -49.740  1.00  0.00     0.162 C 
BRANCH  24  25
HETATM   25  C   UNL     1     -42.127  55.829 -50.401  1.00  0.00    -0.023 A 
HETATM   26  C   UNL     1     -41.215  56.878 -50.326  1.00  0.00     0.125 A 
HETATM   27  N   UNL     1     -41.394  58.084 -50.907  1.00  0.00    -0.273 NA
HETATM   28  C   UNL     1     -42.563  58.273 -51.559  1.00  0.00     0.116 A 
HETATM   29  C   UNL     1     -43.545  57.304 -51.674  1.00  0.00     0.020 A 
HETATM   30  C   UNL     1     -43.318  56.059 -51.091  1.00  0.00     0.012 A 
ENDBRANCH  24  25
ENDBRANCH  21  24
ENDBRANCH   2  20
TORSDOF 7
ENDMDL
MODEL 8
REMARK VINA RESULT:      -7.8      1.993      7.411
REMARK  7 active torsions:
REMARK  status: ('A' for Active; 'I' for Inactive)
REMARK    1  A    between atoms: C_3  and  O_4 
REMARK    2  A    between atoms: O_4  and  C_5 
REMARK    3  A    between atoms: C_5  and  C_6 
REMARK       I    between atoms: C_6  and  N_7 
REMARK    4  A    between atoms: N_7  and  C_8 
REMARK    5  A    between atoms: C_9  and  C_10 
REMARK       I    between atoms: C_10  and  N_11 
REMARK    6  A    between atoms: N_11  and  C_12 
REMARK    7  A    between atoms: C_12  and  C_13 
ROOT
HETATM    1  C   UNL     1     -43.651  56.580 -53.652  1.00  0.00     0.050 A 
HETATM    2  C   UNL     1     -43.071  55.355 -53.260  1.00  0.00     0.058 A 
HETATM    3  C   UNL     1     -43.129  54.928 -51.922  1.00  0.00     0.019 A 
HETATM    4  C   UNL     1     -43.736  55.726 -50.957  1.00  0.00     0.001 A 
HETATM    5  C   UNL     1     -44.289  56.946 -51.325  1.00  0.00     0.002 A 
HETATM    6  C   UNL     1     -44.250  57.367 -52.660  1.00  0.00     0.030 A 
ENDROOT
BRANCH   1   7
HETATM    7  N   UNL     1     -43.695  56.946 -55.025  1.00  0.00    -0.324 N 
HETATM    8  C   UNL     1     -42.879  57.875 -55.659  1.00  0.00     0.246 C 
HETATM    9  O   UNL     1     -41.837  58.326 -55.189  1.00  0.00    -0.271 OA
HETATM   10  H   UNL     1     -44.388  56.473 -55.594  1.00  0.00     0.169 HD
BRANCH   8  11
HETATM   11  C   UNL     1     -43.392  58.278 -57.048  1.00  0.00     0.278 C 
BRANCH  11  12
HETATM   12  O   UNL     1     -44.588  57.552 -57.301  1.00  0.00    -0.342 OA
BRANCH  12  13
HETATM   13  C   UNL     1     -44.657  56.788 -58.432  1.00  0.00     0.075 A 
HETATM   14  C   UNL     1     -45.819  56.967 -59.210  1.00  0.00    -0.029 A 
HETATM   15  C   UNL     1     -46.885  57.942 -58.792  1.00  0.00     0.051 C 
HETATM   16  C   UNL     1     -45.964  56.249 -60.406  1.00  0.00     0.009 A 
HETATM   17  C   UNL     1     -44.978  55.356 -60.818  1.00  0.00     0.001 A 
HETATM   18  C   UNL     1     -43.835  55.177 -60.042  1.00  0.00     0.003 A 
HETATM   19  C   UNL     1     -43.671  55.893 -58.853  1.00  0.00     0.037 A 
ENDBRANCH  12  13
ENDBRANCH  11  12
ENDBRANCH   8  11
ENDBRANCH   1   7
BRANCH   2  20
HETATM   20  C   UNL     1     -42.356  54.455 -54.200  1.00  0.00     0.254 C 
HETATM   21  N   UNL     1     -41.044  54.179 -53.881  1.00  0.00    -0.353 N 
HETATM   22  H   UNL     1     -40.713  54.431 -52.955  1.00  0.00     0.163 HD
HETATM   23  O   UNL     1     -42.936  53.981 -55.168  1.00  0.00    -0.268 OA
BRANCH  21  24
HETATM   24  C   UNL     1     -40.288  53.184 -54.614  1.00  0.00     0.162 C 
BRANCH  24  25
HETATM   25  C   UNL     1     -40.031  51.980 -53.758  1.00  0.00    -0.023 A 
HETATM   26  C   UNL     1     -39.833  52.118 -52.388  1.00  0.00     0.125 A 
HETATM   27  N   UNL     1     -39.616  51.087 -51.543  1.00  0.00    -0.273 NA
HETATM   28  C   UNL     1     -39.545  49.857 -52.097  1.00  0.00     0.116 A 
HETATM   29  C   UNL     1     -39.706  49.612 -53.451  1.00  0.00     0.020 A 
HETATM   30  C   UNL     1     -39.961  50.693 -54.292  1.00  0.00     0.012 A 
ENDBRANCH  24  25
ENDBRANCH  21  24
ENDBRANCH   2  20
TORSDOF 7
ENDMDL
MODEL 9
REMARK VINA RESULT:      -7.7      1.665      5.316
REMARK  7 active torsions:
REMARK  status: ('A' for Active; 'I' for Inactive)
REMARK    1  A    between atoms: C_3  and  O_4 
REMARK    2  A    between atoms: O_4  and  C_5 
REMARK    3  A    between atoms: C_5  and  C_6 
REMARK       I    between atoms: C_6  and  N_7 
REMARK    4  A    between atoms: N_7  and  C_8 
REMARK    5  A    between atoms: C_9  and  C_10 
REMARK       I    between atoms: C_10  and  N_11 
REMARK    6  A    between atoms: N_11  and  C_12 
REMARK    7  A    between atoms: C_12  and  C_13 
ROOT
HETATM    1  C   UNL     1     -43.250  56.092 -57.045  1.00  0.00     0.050 A 
HETATM    2  C   UNL     1     -43.816  57.332 -56.680  1.00  0.00     0.058 A 
HETATM    3  C   UNL     1     -44.117  58.299 -57.654  1.00  0.00     0.019 A 
HETATM    4  C   UNL     1     -43.833  58.057 -58.995  1.00  0.00     0.001 A 
HETATM    5  C   UNL     1     -43.254  56.850 -59.365  1.00  0.00     0.002 A 
HETATM    6  C   UNL     1     -42.968  55.876 -58.400  1.00  0.00     0.030 A 
ENDROOT
BRANCH   1   7
HETATM    7  N   UNL     1     -43.062  55.074 -56.071  1.00  0.00    -0.324 N 
HETATM    8  C   UNL     1     -41.977  54.943 -55.212  1.00  0.00     0.246 C 
HETATM    9  O   UNL     1     -41.149  55.824 -54.992  1.00  0.00    -0.271 OA
HETATM   10  H   UNL     1     -43.800  54.384 -55.995  1.00  0.00     0.169 HD
BRANCH   8  11
HETATM   11  C   UNL     1     -41.918  53.574 -54.523  1.00  0.00     0.278 C 
BRANCH  11  12
HETATM   12  O   UNL     1     -40.607  53.402 -54.001  1.00  0.00    -0.342 OA
BRANCH  12  13
HETATM   13  C   UNL     1     -40.240  52.160 -53.561  1.00  0.00     0.075 A 
HETATM   14  C   UNL     1     -39.914  52.076 -52.193  1.00  0.00    -0.029 A 
HETATM   15  C   UNL     1     -39.980  53.291 -51.309  1.00  0.00     0.051 C 
HETATM   16  C   UNL     1     -39.556  50.837 -51.644  1.00  0.00     0.009 A 
HETATM   17  C   UNL     1     -39.508  49.698 -52.445  1.00  0.00     0.001 A 
HETATM   18  C   UNL     1     -39.823  49.787 -53.799  1.00  0.00     0.003 A 
HETATM   19  C   UNL     1     -40.192  51.014 -54.357  1.00  0.00     0.037 A 
ENDBRANCH  12  13
ENDBRANCH  11  12
ENDBRANCH   8  11
ENDBRANCH   1   7
BRANCH   2  20
HETATM   20  C   UNL     1     -44.110  57.711 -55.275  1.00  0.00     0.254 C 
HETATM   21  N   UNL     1     -43.095  58.361 -54.606  1.00  0.00    -0.353 N 
HETATM   22  H   UNL     1     -42.311  58.710 -55.148  1.00  0.00     0.163 HD
HETATM   23  O   UNL     1     -45.206  57.473 -54.784  1.00  0.00    -0.268 OA
BRANCH  21  24
HETATM   24  C   UNL     1     -43.309  58.935 -53.294  1.00  0.00     0.162 C 
BRANCH  24  25
HETATM   25  C   UNL     1     -42.579  58.148 -52.248  1.00  0.00    -0.023 A 
HETATM   26  C   UNL     1     -43.130  56.979 -51.732  1.00  0.00     0.125 A 
HETATM   27  N   UNL     1     -42.532  56.201 -50.803  1.00  0.00    -0.273 NA
HETATM   28  C   UNL     1     -41.343  56.634 -50.328  1.00  0.00     0.116 A 
HETATM   29  C   UNL     1     -40.719  57.793 -50.758  1.00  0.00     0.020 A 
HETATM   30  C   UNL     1     -41.345  58.557 -51.740  1.00  0.00     0.012 A 
ENDBRANCH  24  25
ENDBRANCH  21  24
ENDBRANCH   2  20
TORSDOF 7
ENDMDL
MODEL 10
REMARK VINA RESULT:      -7.7      2.246      7.001
REMARK  7 active torsions:
REMARK  status: ('A' for Active; 'I' for Inactive)
REMARK    1  A    between atoms: C_3  and  O_4 
REMARK    2  A    between atoms: O_4  and  C_5 
REMARK    3  A    between atoms: C_5  and  C_6 
REMARK       I    between atoms: C_6  and  N_7 
REMARK    4  A    between atoms: N_7  and  C_8 
REMARK    5  A    between atoms: C_9  and  C_10 
REMARK       I    between atoms: C_10  and  N_11 
REMARK    6  A    between atoms: N_11  and  C_12 
REMARK    7  A    between atoms: C_12  and  C_13 
ROOT
HETATM    1  C   UNL     1     -41.061  52.827 -53.639  1.00  0.00     0.050 A 
HETATM    2  C   UNL     1     -41.236  53.260 -52.308  1.00  0.00     0.058 A 
HETATM    3  C   UNL     1     -40.462  52.716 -51.269  1.00  0.00     0.019 A 
HETATM    4  C   UNL     1     -39.529  51.719 -51.536  1.00  0.00     0.001 A 
HETATM    5  C   UNL     1     -39.364  51.267 -52.839  1.00  0.00     0.002 A 
HETATM    6  C   UNL     1     -40.120  51.818 -53.881  1.00  0.00     0.030 A 
ENDROOT
BRANCH   1   7
HETATM    7  N   UNL     1     -41.759  53.468 -54.700  1.00  0.00    -0.324 N 
HETATM    8  C   UNL     1     -41.416  54.670 -55.307  1.00  0.00     0.246 C 
HETATM    9  O   UNL     1     -40.325  55.224 -55.194  1.00  0.00    -0.271 OA
HETATM   10  H   UNL     1     -42.583  52.991 -55.047  1.00  0.00     0.169 HD
BRANCH   8  11
HETATM   11  C   UNL     1     -42.540  55.246 -56.178  1.00  0.00     0.278 C 
BRANCH  11  12
HETATM   12  O   UNL     1     -42.277  56.629 -56.375  1.00  0.00    -0.342 OA
BRANCH  12  13
HETATM   13  C   UNL     1     -43.259  57.528 -56.063  1.00  0.00     0.075 A 
HETATM   14  C   UNL     1     -43.190  58.758 -56.747  1.00  0.00    -0.029 A 
HETATM   15  C   UNL     1     -42.098  59.024 -57.747  1.00  0.00     0.051 C 
HETATM   16  C   UNL     1     -44.172  59.731 -56.515  1.00  0.00     0.009 A 
HETATM   17  C   UNL     1     -45.201  59.494 -55.607  1.00  0.00     0.001 A 
HETATM   18  C   UNL     1     -45.260  58.279 -54.927  1.00  0.00     0.003 A 
HETATM   19  C   UNL     1     -44.295  57.296 -55.156  1.00  0.00     0.037 A 
ENDBRANCH  12  13
ENDBRANCH  11  12
ENDBRANCH   8  11
ENDBRANCH   1   7
BRANCH   2  20
HETATM   20  C   UNL     1     -42.238  54.279 -51.908  1.00  0.00     0.254 C 
HETATM   21  N   UNL     1     -41.727  55.445 -51.380  1.00  0.00    -0.353 N 
HETATM   22  H   UNL     1     -40.731  55.619 -51.476  1.00  0.00     0.163 HD
HETATM   23  O   UNL     1     -43.433  54.077 -52.080  1.00  0.00    -0.268 OA
BRANCH  21  24
HETATM   24  C   UNL     1     -42.580  56.584 -51.110  1.00  0.00     0.162 C 
BRANCH  24  25
HETATM   25  C   UNL     1     -42.234  57.729 -52.014  1.00  0.00    -0.023 A 
HETATM   26  C   UNL     1     -41.117  57.661 -52.841  1.00  0.00     0.125 A 
HETATM   27  N   UNL     1     -40.745  58.637 -53.697  1.00  0.00    -0.273 NA
HETATM   28  C   UNL     1     -41.497  59.760 -53.698  1.00  0.00     0.116 A 
HETATM   29  C   UNL     1     -42.614  59.937 -52.899  1.00  0.00     0.020 A 
HETATM   30  C   UNL     1     -42.992  58.900 -52.049  1.00  0.00     0.012 A 
ENDBRANCH  24  25
ENDBRANCH  21  24
ENDBRANCH   2  20
TORSDOF 7
ENDMDL
