MODEL 1
REMARK VINA RESULT:      -9.7      0.000      0.000
REMARK  6 active torsions:
REMARK  status: ('A' for Active; 'I' for Inactive)
REMARK    1  A    between atoms: C_7  and  C_8 
REMARK    2  A    between atoms: C_8  and  C_9 
REMARK    3  A    between atoms: C_9  and  N_10 
REMARK    4  A    between atoms: C_12  and  C_13 
REMARK    5  A    between atoms: C_13  and  N_14 
REMARK    6  A    between atoms: C_36  and  O_37 
ROOT
HETATM    1  N   UNL     1     -42.306  56.360 -51.367  1.00  0.00    -0.054 N 
HETATM    2  H   UNL     1     -43.120  55.772 -51.073  1.00  0.00     0.281 HD
HETATM    3  C   UNL     1     -41.841  55.728 -52.696  1.00  0.00     0.240 C 
HETATM    4  C   UNL     1     -41.099  54.400 -52.521  1.00  0.00    -0.020 A 
HETATM    5  C   UNL     1     -40.697  53.948 -51.247  1.00  0.00    -0.048 A 
HETATM    6  C   UNL     1     -41.014  54.730 -50.003  1.00  0.00     0.067 C 
HETATM    7  C   UNL     1     -41.261  56.201 -50.294  1.00  0.00     0.241 C 
HETATM    8  C   UNL     1     -40.752  53.615 -53.638  1.00  0.00     0.010 A 
HETATM    9  C   UNL     1     -40.085  52.397 -53.488  1.00  0.00     0.001 A 
HETATM   10  C   UNL     1     -39.734  51.945 -52.224  1.00  0.00     0.001 A 
HETATM   11  C   UNL     1     -40.036  52.716 -51.108  1.00  0.00     0.008 A 
ENDROOT
BRANCH   1  12
HETATM   12  C   UNL     1     -42.812  57.823 -51.444  1.00  0.00     0.319 C 
BRANCH  12  13
HETATM   13  C   UNL     1     -44.311  57.974 -51.200  1.00  0.00     0.188 C 
HETATM   14  O   UNL     1     -44.933  57.010 -50.747  1.00  0.00    -0.290 OA
BRANCH  13  15
HETATM   15  C   UNL     1     -44.995  59.231 -51.505  1.00  0.00     0.046 A 
HETATM   16  C   UNL     1     -45.374  59.593 -52.796  1.00  0.00     0.020 A 
HETATM   17  C   UNL     1     -45.172  58.914 -54.107  1.00  0.00     0.069 C 
HETATM   18  N   UNL     1     -46.047  60.784 -52.725  1.00  0.00    -0.358 N 
HETATM   19  H   UNL     1     -46.456  61.274 -53.511  1.00  0.00     0.166 HD
HETATM   20  C   UNL     1     -46.112  61.218 -51.424  1.00  0.00     0.043 A 
HETATM   21  C   UNL     1     -45.439  60.286 -50.632  1.00  0.00     0.009 A 
HETATM   22  C   UNL     1     -46.727  62.363 -50.906  1.00  0.00     0.033 A 
HETATM   23  C   UNL     1     -45.379  60.546 -49.244  1.00  0.00     0.051 A 
HETATM   24  C   UNL     1     -45.988  61.689 -48.700  1.00  0.00     0.069 A 
HETATM   25  C   UNL     1     -46.657  62.582 -49.528  1.00  0.00     0.039 A 
BRANCH  24  26
HETATM   26  O   UNL     1     -45.849  61.799 -47.342  1.00  0.00    -0.356 OA
HETATM   27  C   UNL     1     -44.753  61.106 -46.752  1.00  0.00     0.210 C 
ENDBRANCH  24  26
ENDBRANCH  13  15
ENDBRANCH  12  13
ENDBRANCH   1  12
BRANCH   3  28
HETATM   28  C   UNL     1     -43.001  55.656 -53.733  1.00  0.00     0.173 C 
BRANCH  28  29
HETATM   29  N   UNL     1     -42.711  55.895 -55.142  1.00  0.00    -0.278 N 
HETATM   30  C   UNL     1     -43.055  55.108 -56.207  1.00  0.00     0.261 A 
HETATM   31  O   UNL     1     -43.583  54.009 -56.185  1.00  0.00    -0.267 OA
HETATM   32  C   UNL     1     -42.794  55.880 -57.420  1.00  0.00     0.048 A 
HETATM   33  C   UNL     1     -42.380  57.139 -57.025  1.00  0.00     0.048 A 
HETATM   34  C   UNL     1     -42.976  55.553 -58.748  1.00  0.00     0.018 A 
HETATM   35  C   UNL     1     -42.363  57.155 -55.565  1.00  0.00     0.261 A 
HETATM   36  C   UNL     1     -42.124  58.145 -57.934  1.00  0.00     0.018 A 
HETATM   37  O   UNL     1     -42.142  58.135 -54.880  1.00  0.00    -0.267 OA
HETATM   38  C   UNL     1     -42.295  57.838 -59.288  1.00  0.00     0.001 A 
HETATM   39  C   UNL     1     -42.716  56.553 -59.691  1.00  0.00     0.001 A 
ENDBRANCH  28  29
ENDBRANCH   3  28
TORSDOF 6
ENDMDL
MODEL 2
REMARK VINA RESULT:      -9.7      2.053      3.023
REMARK  6 active torsions:
REMARK  status: ('A' for Active; 'I' for Inactive)
REMARK    1  A    between atoms: C_7  and  C_8 
REMARK    2  A    between atoms: C_8  and  C_9 
REMARK    3  A    between atoms: C_9  and  N_10 
REMARK    4  A    between atoms: C_12  and  C_13 
REMARK    5  A    between atoms: C_13  and  N_14 
REMARK    6  A    between atoms: C_36  and  O_37 
ROOT
HETATM    1  N   UNL     1     -41.850  55.125 -50.955  1.00  0.00    -0.054 N 
HETATM    2  H   UNL     1     -42.569  54.457 -50.592  1.00  0.00     0.281 HD
HETATM    3  C   UNL     1     -41.752  54.798 -52.460  1.00  0.00     0.240 C 
HETATM    4  C   UNL     1     -41.009  53.494 -52.761  1.00  0.00    -0.020 A 
HETATM    5  C   UNL     1     -40.299  52.806 -51.755  1.00  0.00    -0.048 A 
HETATM    6  C   UNL     1     -40.274  53.302 -50.336  1.00  0.00     0.067 C 
HETATM    7  C   UNL     1     -40.567  54.791 -50.241  1.00  0.00     0.241 C 
HETATM    8  C   UNL     1     -40.973  52.970 -54.068  1.00  0.00     0.010 A 
HETATM    9  C   UNL     1     -40.308  51.775 -54.351  1.00  0.00     0.001 A 
HETATM   10  C   UNL     1     -39.649  51.087 -53.342  1.00  0.00     0.001 A 
HETATM   11  C   UNL     1     -39.642  51.600 -52.050  1.00  0.00     0.008 A 
ENDROOT
BRANCH   1  12
HETATM   12  C   UNL     1     -42.338  56.550 -50.593  1.00  0.00     0.319 C 
BRANCH  12  13
HETATM   13  C   UNL     1     -41.322  57.649 -50.893  1.00  0.00     0.188 C 
HETATM   14  O   UNL     1     -40.291  57.695 -50.220  1.00  0.00    -0.290 OA
BRANCH  13  15
HETATM   15  C   UNL     1     -41.571  58.628 -51.952  1.00  0.00     0.046 A 
HETATM   16  C   UNL     1     -41.062  58.494 -53.242  1.00  0.00     0.020 A 
HETATM   17  C   UNL     1     -40.171  57.461 -53.845  1.00  0.00     0.069 C 
HETATM   18  N   UNL     1     -41.534  59.534 -53.998  1.00  0.00    -0.358 N 
HETATM   19  H   UNL     1     -41.342  59.678 -54.981  1.00  0.00     0.166 HD
HETATM   20  C   UNL     1     -42.331  60.353 -53.237  1.00  0.00     0.043 A 
HETATM   21  C   UNL     1     -42.355  59.834 -51.941  1.00  0.00     0.009 A 
HETATM   22  C   UNL     1     -43.030  61.504 -53.616  1.00  0.00     0.033 A 
HETATM   23  C   UNL     1     -43.122  60.537 -50.983  1.00  0.00     0.051 A 
HETATM   24  C   UNL     1     -43.832  61.695 -51.338  1.00  0.00     0.069 A 
HETATM   25  C   UNL     1     -43.786  62.165 -52.645  1.00  0.00     0.039 A 
BRANCH  24  26
HETATM   26  O   UNL     1     -44.530  62.258 -50.304  1.00  0.00    -0.356 OA
HETATM   27  C   UNL     1     -44.936  61.384 -49.254  1.00  0.00     0.210 C 
ENDBRANCH  24  26
ENDBRANCH  13  15
ENDBRANCH  12  13
ENDBRANCH   1  12
BRANCH   3  28
HETATM   28  C   UNL     1     -43.141  54.895 -53.159  1.00  0.00     0.173 C 
BRANCH  28  29
HETATM   29  N   UNL     1     -43.390  55.981 -54.099  1.00  0.00    -0.278 N 
HETATM   30  C   UNL     1     -43.160  55.983 -55.448  1.00  0.00     0.261 A 
HETATM   31  O   UNL     1     -42.615  55.120 -56.115  1.00  0.00    -0.267 OA
HETATM   32  C   UNL     1     -43.811  57.170 -55.998  1.00  0.00     0.048 A 
HETATM   33  C   UNL     1     -44.480  57.791 -54.959  1.00  0.00     0.048 A 
HETATM   34  C   UNL     1     -43.888  57.630 -57.296  1.00  0.00     0.018 A 
HETATM   35  C   UNL     1     -44.237  57.006 -53.752  1.00  0.00     0.261 A 
HETATM   36  C   UNL     1     -45.266  58.908 -55.157  1.00  0.00     0.018 A 
HETATM   37  O   UNL     1     -44.755  57.209 -52.671  1.00  0.00    -0.267 OA
HETATM   38  C   UNL     1     -45.356  59.399 -56.464  1.00  0.00     0.001 A 
HETATM   39  C   UNL     1     -44.672  58.767 -57.523  1.00  0.00     0.001 A 
ENDBRANCH  28  29
ENDBRANCH   3  28
TORSDOF 6
ENDMDL
MODEL 3
REMARK VINA RESULT:      -9.7      2.829      7.730
REMARK  6 active torsions:
REMARK  status: ('A' for Active; 'I' for Inactive)
REMARK    1  A    between atoms: C_7  and  C_8 
REMARK    2  A    between atoms: C_8  and  C_9 
REMARK    3  A    between atoms: C_9  and  N_10 
REMARK    4  A    between atoms: C_12  and  C_13 
REMARK    5  A    between atoms: C_13  and  N_14 
REMARK    6  A    between atoms: C_36  and  O_37 
ROOT
HETATM    1  N   UNL     1     -43.127  56.346 -52.979  1.00  0.00    -0.054 N 
HETATM    2  H   UNL     1     -42.285  56.898 -52.693  1.00  0.00     0.281 HD
HETATM    3  C   UNL     1     -43.710  57.134 -54.171  1.00  0.00     0.240 C 
HETATM    4  C   UNL     1     -44.423  58.427 -53.767  1.00  0.00    -0.020 A 
HETATM    5  C   UNL     1     -44.700  58.720 -52.416  1.00  0.00    -0.048 A 
HETATM    6  C   UNL     1     -44.272  57.794 -51.311  1.00  0.00     0.067 C 
HETATM    7  C   UNL     1     -44.065  56.370 -51.800  1.00  0.00     0.241 C 
HETATM    8  C   UNL     1     -44.868  59.340 -54.743  1.00  0.00     0.010 A 
HETATM    9  C   UNL     1     -45.509  60.528 -54.385  1.00  0.00     0.001 A 
HETATM   10  C   UNL     1     -45.736  60.823 -53.048  1.00  0.00     0.001 A 
HETATM   11  C   UNL     1     -45.336  59.923 -52.066  1.00  0.00     0.008 A 
ENDROOT
BRANCH   1  12
HETATM   12  C   UNL     1     -42.641  54.906 -53.280  1.00  0.00     0.319 C 
BRANCH  12  13
HETATM   13  C   UNL     1     -41.179  54.657 -52.920  1.00  0.00     0.188 C 
HETATM   14  O   UNL     1     -40.307  55.233 -53.574  1.00  0.00    -0.290 OA
BRANCH  13  15
HETATM   15  C   UNL     1     -40.822  53.750 -51.828  1.00  0.00     0.046 A 
HETATM   16  C   UNL     1     -40.917  54.109 -50.485  1.00  0.00     0.020 A 
HETATM   17  C   UNL     1     -41.311  55.391 -49.835  1.00  0.00     0.069 C 
HETATM   18  N   UNL     1     -40.578  53.019 -49.727  1.00  0.00    -0.358 N 
HETATM   19  H   UNL     1     -40.578  52.986 -48.715  1.00  0.00     0.166 HD
HETATM   20  C   UNL     1     -40.253  51.959 -50.536  1.00  0.00     0.043 A 
HETATM   21  C   UNL     1     -40.367  52.386 -51.860  1.00  0.00     0.009 A 
HETATM   22  C   UNL     1     -39.879  50.659 -50.178  1.00  0.00     0.033 A 
HETATM   23  C   UNL     1     -40.068  51.440 -52.867  1.00  0.00     0.051 A 
HETATM   24  C   UNL     1     -39.689  50.129 -52.534  1.00  0.00     0.069 A 
HETATM   25  C   UNL     1     -39.602  49.748 -51.201  1.00  0.00     0.039 A 
BRANCH  24  26
HETATM   26  O   UNL     1     -39.438  49.331 -53.618  1.00  0.00    -0.356 OA
HETATM   27  C   UNL     1     -39.858  49.824 -54.888  1.00  0.00     0.210 C 
ENDBRANCH  24  26
ENDBRANCH  13  15
ENDBRANCH  12  13
ENDBRANCH   1  12
BRANCH   3  28
HETATM   28  C   UNL     1     -42.653  57.335 -55.297  1.00  0.00     0.173 C 
BRANCH  28  29
HETATM   29  N   UNL     1     -42.930  56.819 -56.632  1.00  0.00    -0.278 N 
HETATM   30  C   UNL     1     -43.138  55.516 -56.995  1.00  0.00     0.261 A 
HETATM   31  O   UNL     1     -43.037  54.521 -56.297  1.00  0.00    -0.267 OA
HETATM   32  C   UNL     1     -43.642  55.522 -58.366  1.00  0.00     0.048 A 
HETATM   33  C   UNL     1     -43.796  56.843 -58.742  1.00  0.00     0.048 A 
HETATM   34  C   UNL     1     -44.013  54.478 -59.189  1.00  0.00     0.018 A 
HETATM   35  C   UNL     1     -43.373  57.670 -57.616  1.00  0.00     0.261 A 
HETATM   36  C   UNL     1     -44.331  57.199 -59.964  1.00  0.00     0.018 A 
HETATM   37  O   UNL     1     -43.469  58.881 -57.564  1.00  0.00    -0.267 OA
HETATM   38  C   UNL     1     -44.710  56.160 -60.820  1.00  0.00     0.001 A 
HETATM   39  C   UNL     1     -44.551  54.812 -60.437  1.00  0.00     0.001 A 
ENDBRANCH  28  29
ENDBRANCH   3  28
TORSDOF 6
ENDMDL
MODEL 4
REMARK VINA RESULT:      -9.7      2.035      3.446
REMARK  6 active torsions:
REMARK  status: ('A' for Active; 'I' for Inactive)
REMARK    1  A    between atoms: C_7  and  C_8 
REMARK    2  A    between atoms: C_8  and  C_9 
REMARK    3  A    between atoms: C_9  and  N_10 
REMARK    4  A    between atoms: C_12  and  C_13 
REMARK    5  A    between atoms: C_13  and  N_14 
REMARK    6  A    between atoms: C_36  and  O_37 
ROOT
HETATM    1  N   UNL     1     -41.404  55.642 -51.437  1.00  0.00    -0.054 N 
HETATM    2  H   UNL     1     -42.247  55.153 -51.056  1.00  0.00     0.281 HD
HETATM    3  C   UNL     1     -41.257  55.086 -52.869  1.00  0.00     0.240 C 
HETATM    4  C   UNL     1     -40.721  53.653 -52.923  1.00  0.00    -0.020 A 
HETATM    5  C   UNL     1     -40.207  53.020 -51.773  1.00  0.00    -0.048 A 
HETATM    6  C   UNL     1     -40.198  53.709 -50.437  1.00  0.00     0.067 C 
HETATM    7  C   UNL     1     -40.246  55.223 -50.569  1.00  0.00     0.241 C 
HETATM    8  C   UNL     1     -40.682  52.943 -54.139  1.00  0.00     0.010 A 
HETATM    9  C   UNL     1     -40.205  51.632 -54.197  1.00  0.00     0.001 A 
HETATM   10  C   UNL     1     -39.742  51.006 -53.048  1.00  0.00     0.001 A 
HETATM   11  C   UNL     1     -39.740  51.697 -51.841  1.00  0.00     0.008 A 
ENDROOT
BRANCH   1  12
HETATM   12  C   UNL     1     -41.673  57.163 -51.316  1.00  0.00     0.319 C 
BRANCH  12  13
HETATM   13  C   UNL     1     -43.152  57.536 -51.350  1.00  0.00     0.188 C 
HETATM   14  O   UNL     1     -43.966  56.756 -50.851  1.00  0.00    -0.290 OA
BRANCH  13  15
HETATM   15  C   UNL     1     -43.594  58.787 -51.968  1.00  0.00     0.046 A 
HETATM   16  C   UNL     1     -43.326  60.039 -51.418  1.00  0.00     0.020 A 
HETATM   17  C   UNL     1     -42.636  60.431 -50.156  1.00  0.00     0.069 C 
HETATM   18  N   UNL     1     -43.812  60.993 -52.272  1.00  0.00    -0.358 N 
HETATM   19  H   UNL     1     -43.739  61.993 -52.135  1.00  0.00     0.166 HD
HETATM   20  C   UNL     1     -44.401  60.402 -53.361  1.00  0.00     0.043 A 
HETATM   21  C   UNL     1     -44.311  59.019 -53.194  1.00  0.00     0.009 A 
HETATM   22  C   UNL     1     -44.995  61.003 -54.477  1.00  0.00     0.033 A 
HETATM   23  C   UNL     1     -44.868  58.212 -54.212  1.00  0.00     0.051 A 
HETATM   24  C   UNL     1     -45.470  58.790 -55.341  1.00  0.00     0.069 A 
HETATM   25  C   UNL     1     -45.525  60.173 -55.468  1.00  0.00     0.039 A 
BRANCH  24  26
HETATM   26  O   UNL     1     -45.957  57.879 -56.239  1.00  0.00    -0.356 OA
HETATM   27  C   UNL     1     -45.872  58.229 -57.618  1.00  0.00     0.210 C 
ENDBRANCH  24  26
ENDBRANCH  13  15
ENDBRANCH  12  13
ENDBRANCH   1  12
BRANCH   3  28
HETATM   28  C   UNL     1     -42.559  55.292 -53.700  1.00  0.00     0.173 C 
BRANCH  28  29
HETATM   29  N   UNL     1     -42.453  55.613 -55.118  1.00  0.00    -0.278 N 
HETATM   30  C   UNL     1     -43.004  54.930 -56.169  1.00  0.00     0.261 A 
HETATM   31  O   UNL     1     -43.606  53.871 -56.139  1.00  0.00    -0.267 OA
HETATM   32  C   UNL     1     -42.860  55.771 -57.356  1.00  0.00     0.048 A 
HETATM   33  C   UNL     1     -42.299  56.967 -56.947  1.00  0.00     0.048 A 
HETATM   34  C   UNL     1     -43.252  55.554 -58.661  1.00  0.00     0.018 A 
HETATM   35  C   UNL     1     -42.074  56.875 -55.508  1.00  0.00     0.261 A 
HETATM   36  C   UNL     1     -42.099  58.018 -57.820  1.00  0.00     0.018 A 
HETATM   37  O   UNL     1     -41.684  57.785 -54.803  1.00  0.00    -0.267 OA
HETATM   38  C   UNL     1     -42.483  57.822 -59.151  1.00  0.00     0.001 A 
HETATM   39  C   UNL     1     -43.053  56.601 -59.567  1.00  0.00     0.001 A 
ENDBRANCH  28  29
ENDBRANCH   3  28
TORSDOF 6
ENDMDL
MODEL 5
REMARK VINA RESULT:      -9.6      3.279      7.683
REMARK  6 active torsions:
REMARK  status: ('A' for Active; 'I' for Inactive)
REMARK    1  A    between atoms: C_7  and  C_8 
REMARK    2  A    between atoms: C_8  and  C_9 
REMARK    3  A    between atoms: C_9  and  N_10 
REMARK    4  A    between atoms: C_12  and  C_13 
REMARK    5  A    between atoms: C_13  and  N_14 
REMARK    6  A    between atoms: C_36  and  O_37 
ROOT
HETATM    1  N   UNL     1     -42.442  57.863 -54.738  1.00  0.00    -0.054 N 
HETATM    2  H   UNL     1     -43.441  57.905 -54.431  1.00  0.00     0.281 HD
HETATM    3  C   UNL     1     -41.703  57.234 -53.538  1.00  0.00     0.240 C 
HETATM    4  C   UNL     1     -41.528  58.186 -52.352  1.00  0.00    -0.020 A 
HETATM    5  C   UNL     1     -41.820  59.561 -52.467  1.00  0.00    -0.048 A 
HETATM    6  C   UNL     1     -42.352  60.144 -53.747  1.00  0.00     0.067 C 
HETATM    7  C   UNL     1     -42.008  59.289 -54.956  1.00  0.00     0.241 C 
HETATM    8  C   UNL     1     -41.021  57.722 -51.123  1.00  0.00     0.010 A 
HETATM    9  C   UNL     1     -40.869  58.580 -50.031  1.00  0.00     0.001 A 
HETATM   10  C   UNL     1     -41.201  59.922 -50.147  1.00  0.00     0.001 A 
HETATM   11  C   UNL     1     -41.673  60.413 -51.360  1.00  0.00     0.008 A 
ENDROOT
BRANCH   1  12
HETATM   12  C   UNL     1     -42.410  57.059 -56.061  1.00  0.00     0.319 C 
BRANCH  12  13
HETATM   13  C   UNL     1     -43.378  57.573 -57.123  1.00  0.00     0.188 C 
HETATM   14  O   UNL     1     -44.574  57.657 -56.836  1.00  0.00    -0.290 OA
BRANCH  13  15
HETATM   15  C   UNL     1     -42.897  57.950 -58.453  1.00  0.00     0.046 A 
HETATM   16  C   UNL     1     -42.871  57.064 -59.528  1.00  0.00     0.020 A 
HETATM   17  C   UNL     1     -43.232  55.621 -59.622  1.00  0.00     0.069 C 
HETATM   18  N   UNL     1     -42.436  57.747 -60.633  1.00  0.00    -0.358 N 
HETATM   19  H   UNL     1     -42.339  57.357 -61.562  1.00  0.00     0.166 HD
HETATM   20  C   UNL     1     -42.165  59.053 -60.310  1.00  0.00     0.043 A 
HETATM   21  C   UNL     1     -42.414  59.213 -58.946  1.00  0.00     0.009 A 
HETATM   22  C   UNL     1     -41.728  60.094 -61.138  1.00  0.00     0.033 A 
HETATM   23  C   UNL     1     -42.191  60.497 -58.399  1.00  0.00     0.051 A 
HETATM   24  C   UNL     1     -41.751  61.557 -59.207  1.00  0.00     0.069 A 
HETATM   25  C   UNL     1     -41.528  61.352 -60.564  1.00  0.00     0.039 A 
BRANCH  24  26
HETATM   26  O   UNL     1     -41.586  62.738 -58.534  1.00  0.00    -0.356 OA
HETATM   27  C   UNL     1     -40.332  63.396 -58.692  1.00  0.00     0.210 C 
ENDBRANCH  24  26
ENDBRANCH  13  15
ENDBRANCH  12  13
ENDBRANCH   1  12
BRANCH   3  28
HETATM   28  C   UNL     1     -42.319  55.859 -53.142  1.00  0.00     0.173 C 
BRANCH  28  29
HETATM   29  N   UNL     1     -41.462  54.681 -53.101  1.00  0.00    -0.278 N 
HETATM   30  C   UNL     1     -40.882  54.111 -52.000  1.00  0.00     0.261 A 
HETATM   31  O   UNL     1     -40.887  54.527 -50.854  1.00  0.00    -0.267 OA
HETATM   32  C   UNL     1     -40.350  52.814 -52.412  1.00  0.00     0.048 A 
HETATM   33  C   UNL     1     -40.709  52.623 -53.733  1.00  0.00     0.048 A 
HETATM   34  C   UNL     1     -39.685  51.847 -51.686  1.00  0.00     0.018 A 
HETATM   35  C   UNL     1     -41.452  53.805 -54.159  1.00  0.00     0.261 A 
HETATM   36  C   UNL     1     -40.424  51.452 -54.408  1.00  0.00     0.018 A 
HETATM   37  O   UNL     1     -42.003  53.932 -55.236  1.00  0.00    -0.267 OA
HETATM   38  C   UNL     1     -39.745  50.457 -53.697  1.00  0.00     0.001 A 
HETATM   39  C   UNL     1     -39.377  50.654 -52.349  1.00  0.00     0.001 A 
ENDBRANCH  28  29
ENDBRANCH   3  28
TORSDOF 6
ENDMDL
MODEL 6
REMARK VINA RESULT:      -9.6      2.297      4.214
REMARK  6 active torsions:
REMARK  status: ('A' for Active; 'I' for Inactive)
REMARK    1  A    between atoms: C_7  and  C_8 
REMARK    2  A    between atoms: C_8  and  C_9 
REMARK    3  A    between atoms: C_9  and  N_10 
REMARK    4  A    between atoms: C_12  and  C_13 
REMARK    5  A    between atoms: C_13  and  N_14 
REMARK    6  A    between atoms: C_36  and  O_37 
ROOT
HETATM    1  N   UNL     1     -42.210  55.733 -51.452  1.00  0.00    -0.054 N 
HETATM    2  H   UNL     1     -42.932  55.080 -51.067  1.00  0.00     0.281 HD
HETATM    3  C   UNL     1     -41.980  55.238 -52.895  1.00  0.00     0.240 C 
HETATM    4  C   UNL     1     -41.170  53.942 -52.981  1.00  0.00    -0.020 A 
HETATM    5  C   UNL     1     -40.519  53.408 -51.850  1.00  0.00    -0.048 A 
HETATM    6  C   UNL     1     -40.625  54.066 -50.502  1.00  0.00     0.067 C 
HETATM    7  C   UNL     1     -40.977  55.541 -50.608  1.00  0.00     0.241 C 
HETATM    8  C   UNL     1     -41.011  53.271 -54.209  1.00  0.00     0.010 A 
HETATM    9  C   UNL     1     -40.283  52.083 -54.297  1.00  0.00     0.001 A 
HETATM   10  C   UNL     1     -39.684  51.546 -53.165  1.00  0.00     0.001 A 
HETATM   11  C   UNL     1     -39.799  52.206 -51.947  1.00  0.00     0.008 A 
ENDROOT
BRANCH   1  12
HETATM   12  C   UNL     1     -42.776  57.168 -51.301  1.00  0.00     0.319 C 
BRANCH  12  13
HETATM   13  C   UNL     1     -41.988  58.228 -52.064  1.00  0.00     0.188 C 
HETATM   14  O   UNL     1     -40.770  58.079 -52.189  1.00  0.00    -0.290 OA
BRANCH  13  15
HETATM   15  C   UNL     1     -42.661  59.398 -52.628  1.00  0.00     0.046 A 
HETATM   16  C   UNL     1     -43.501  60.222 -51.882  1.00  0.00     0.020 A 
HETATM   17  C   UNL     1     -43.955  60.137 -50.464  1.00  0.00     0.069 C 
HETATM   18  N   UNL     1     -43.909  61.255 -52.683  1.00  0.00    -0.358 N 
HETATM   19  H   UNL     1     -44.510  62.017 -52.396  1.00  0.00     0.166 HD
HETATM   20  C   UNL     1     -43.369  61.127 -53.938  1.00  0.00     0.043 A 
HETATM   21  C   UNL     1     -42.603  59.959 -53.953  1.00  0.00     0.009 A 
HETATM   22  C   UNL     1     -43.503  61.970 -55.047  1.00  0.00     0.033 A 
HETATM   23  C   UNL     1     -41.956  59.631 -55.165  1.00  0.00     0.051 A 
HETATM   24  C   UNL     1     -42.076  60.460 -56.293  1.00  0.00     0.069 A 
HETATM   25  C   UNL     1     -42.840  61.619 -56.225  1.00  0.00     0.039 A 
BRANCH  24  26
HETATM   26  O   UNL     1     -41.387  60.011 -57.388  1.00  0.00    -0.356 OA
HETATM   27  C   UNL     1     -41.538  60.761 -58.591  1.00  0.00     0.210 C 
ENDBRANCH  24  26
ENDBRANCH  13  15
ENDBRANCH  12  13
ENDBRANCH   1  12
BRANCH   3  28
HETATM   28  C   UNL     1     -43.311  55.191 -53.704  1.00  0.00     0.173 C 
BRANCH  28  29
HETATM   29  N   UNL     1     -43.527  56.157 -54.774  1.00  0.00    -0.278 N 
HETATM   30  C   UNL     1     -43.092  56.075 -56.069  1.00  0.00     0.261 A 
HETATM   31  O   UNL     1     -42.360  55.232 -56.560  1.00  0.00    -0.267 OA
HETATM   32  C   UNL     1     -43.775  57.123 -56.823  1.00  0.00     0.048 A 
HETATM   33  C   UNL     1     -44.660  57.742 -55.960  1.00  0.00     0.048 A 
HETATM   34  C   UNL     1     -43.699  57.462 -58.159  1.00  0.00     0.018 A 
HETATM   35  C   UNL     1     -44.523  57.095 -54.658  1.00  0.00     0.261 A 
HETATM   36  C   UNL     1     -45.522  58.734 -56.381  1.00  0.00     0.018 A 
HETATM   37  O   UNL     1     -45.222  57.323 -53.689  1.00  0.00    -0.267 OA
HETATM   38  C   UNL     1     -45.461  59.101 -57.729  1.00  0.00     0.001 A 
HETATM   39  C   UNL     1     -44.556  58.471 -58.610  1.00  0.00     0.001 A 
ENDBRANCH  28  29
ENDBRANCH   3  28
TORSDOF 6
ENDMDL
MODEL 7
REMARK VINA RESULT:      -9.5      2.081      6.933
REMARK  6 active torsions:
REMARK  status: ('A' for Active; 'I' for Inactive)
REMARK    1  A    between atoms: C_7  and  C_8 
REMARK    2  A    between atoms: C_8  and  C_9 
REMARK    3  A    between atoms: C_9  and  N_10 
REMARK    4  A    between atoms: C_12  and  C_13 
REMARK    5  A    between atoms: C_13  and  N_14 
REMARK    6  A    between atoms: C_36  and  O_37 
ROOT
HETATM    1  N   UNL     1     -42.464  55.440 -54.118  1.00  0.00    -0.054 N 
HETATM    2  H   UNL     1     -41.579  55.957 -54.328  1.00  0.00     0.281 HD
HETATM    3  C   UNL     1     -42.274  54.934 -52.673  1.00  0.00     0.240 C 
HETATM    4  C   UNL     1     -41.301  53.758 -52.553  1.00  0.00    -0.020 A 
HETATM    5  C   UNL     1     -40.824  53.083 -53.695  1.00  0.00    -0.048 A 
HETATM    6  C   UNL     1     -41.218  53.513 -55.081  1.00  0.00     0.067 C 
HETATM    7  C   UNL     1     -42.523  54.293 -55.092  1.00  0.00     0.241 C 
HETATM    8  C   UNL     1     -40.894  53.285 -51.290  1.00  0.00     0.010 A 
HETATM    9  C   UNL     1     -39.998  52.220 -51.170  1.00  0.00     0.001 A 
HETATM   10  C   UNL     1     -39.503  51.593 -52.305  1.00  0.00     0.001 A 
HETATM   11  C   UNL     1     -39.915  52.020 -53.563  1.00  0.00     0.008 A 
ENDROOT
BRANCH   1  12
HETATM   12  C   UNL     1     -43.630  56.433 -54.349  1.00  0.00     0.319 C 
BRANCH  12  13
HETATM   13  C   UNL     1     -43.320  57.528 -55.365  1.00  0.00     0.188 C 
HETATM   14  O   UNL     1     -42.160  57.936 -55.454  1.00  0.00    -0.290 OA
BRANCH  13  15
HETATM   15  C   UNL     1     -44.377  58.086 -56.209  1.00  0.00     0.046 A 
HETATM   16  C   UNL     1     -45.260  59.069 -55.767  1.00  0.00     0.020 A 
HETATM   17  C   UNL     1     -45.409  59.732 -54.439  1.00  0.00     0.069 C 
HETATM   18  N   UNL     1     -46.071  59.418 -56.814  1.00  0.00    -0.358 N 
HETATM   19  H   UNL     1     -46.795  60.125 -56.784  1.00  0.00     0.166 HD
HETATM   20  C   UNL     1     -45.753  58.683 -57.928  1.00  0.00     0.043 A 
HETATM   21  C   UNL     1     -44.714  57.816 -57.582  1.00  0.00     0.009 A 
HETATM   22  C   UNL     1     -46.310  58.739 -59.211  1.00  0.00     0.033 A 
HETATM   23  C   UNL     1     -44.233  56.955 -58.594  1.00  0.00     0.051 A 
HETATM   24  C   UNL     1     -44.776  56.991 -59.889  1.00  0.00     0.069 A 
HETATM   25  C   UNL     1     -45.801  57.880 -60.188  1.00  0.00     0.039 A 
BRANCH  24  26
HETATM   26  O   UNL     1     -44.201  56.102 -60.757  1.00  0.00    -0.356 OA
HETATM   27  C   UNL     1     -44.982  54.967 -61.123  1.00  0.00     0.210 C 
ENDBRANCH  24  26
ENDBRANCH  13  15
ENDBRANCH  12  13
ENDBRANCH   1  12
BRANCH   3  28
HETATM   28  C   UNL     1     -41.956  56.103 -51.693  1.00  0.00     0.173 C 
BRANCH  28  29
HETATM   29  N   UNL     1     -42.867  57.239 -51.622  1.00  0.00    -0.278 N 
HETATM   30  C   UNL     1     -44.118  57.270 -51.067  1.00  0.00     0.261 A 
HETATM   31  O   UNL     1     -44.756  56.337 -50.610  1.00  0.00    -0.267 OA
HETATM   32  C   UNL     1     -44.524  58.671 -50.990  1.00  0.00     0.048 A 
HETATM   33  C   UNL     1     -43.457  59.434 -51.430  1.00  0.00     0.048 A 
HETATM   34  C   UNL     1     -45.683  59.243 -50.507  1.00  0.00     0.018 A 
HETATM   35  C   UNL     1     -42.386  58.513 -51.799  1.00  0.00     0.261 A 
HETATM   36  C   UNL     1     -43.486  60.814 -51.411  1.00  0.00     0.018 A 
HETATM   37  O   UNL     1     -41.266  58.846 -52.134  1.00  0.00    -0.267 OA
HETATM   38  C   UNL     1     -44.652  61.419 -50.931  1.00  0.00     0.001 A 
HETATM   39  C   UNL     1     -45.741  60.641 -50.485  1.00  0.00     0.001 A 
ENDBRANCH  28  29
ENDBRANCH   3  28
TORSDOF 6
ENDMDL
MODEL 8
REMARK VINA RESULT:      -9.3      2.515      7.854
REMARK  6 active torsions:
REMARK  status: ('A' for Active; 'I' for Inactive)
REMARK    1  A    between atoms: C_7  and  C_8 
REMARK    2  A    between atoms: C_8  and  C_9 
REMARK    3  A    between atoms: C_9  and  N_10 
REMARK    4  A    between atoms: C_12  and  C_13 
REMARK    5  A    between atoms: C_13  and  N_14 
REMARK    6  A    between atoms: C_36  and  O_37 
ROOT
HETATM    1  N   UNL     1     -43.568  57.799 -55.460  1.00  0.00    -0.054 N 
HETATM    2  H   UNL     1     -44.496  57.450 -55.793  1.00  0.00     0.281 HD
HETATM    3  C   UNL     1     -43.503  57.357 -53.983  1.00  0.00     0.240 C 
HETATM    4  C   UNL     1     -44.395  58.183 -53.052  1.00  0.00    -0.020 A 
HETATM    5  C   UNL     1     -45.020  59.366 -53.495  1.00  0.00    -0.048 A 
HETATM    6  C   UNL     1     -44.870  59.848 -54.912  1.00  0.00     0.067 C 
HETATM    7  C   UNL     1     -43.617  59.301 -55.576  1.00  0.00     0.241 C 
HETATM    8  C   UNL     1     -44.575  57.807 -51.707  1.00  0.00     0.010 A 
HETATM    9  C   UNL     1     -45.396  58.547 -50.852  1.00  0.00     0.001 A 
HETATM   10  C   UNL     1     -46.039  59.686 -51.315  1.00  0.00     0.001 A 
HETATM   11  C   UNL     1     -45.851  60.097 -52.630  1.00  0.00     0.008 A 
ENDROOT
BRANCH   1  12
HETATM   12  C   UNL     1     -42.495  57.199 -56.403  1.00  0.00     0.319 C 
BRANCH  12  13
HETATM   13  C   UNL     1     -43.049  56.703 -57.736  1.00  0.00     0.188 C 
HETATM   14  O   UNL     1     -43.296  55.501 -57.858  1.00  0.00    -0.290 OA
BRANCH  13  15
HETATM   15  C   UNL     1     -43.275  57.631 -58.844  1.00  0.00     0.046 A 
HETATM   16  C   UNL     1     -44.199  57.389 -59.858  1.00  0.00     0.020 A 
HETATM   17  C   UNL     1     -45.090  56.223 -60.118  1.00  0.00     0.069 C 
HETATM   18  N   UNL     1     -44.214  58.476 -60.691  1.00  0.00    -0.358 N 
HETATM   19  H   UNL     1     -44.807  58.584 -61.504  1.00  0.00     0.166 HD
HETATM   20  C   UNL     1     -43.318  59.421 -60.257  1.00  0.00     0.043 A 
HETATM   21  C   UNL     1     -42.688  58.916 -59.118  1.00  0.00     0.009 A 
HETATM   22  C   UNL     1     -43.036  60.682 -60.794  1.00  0.00     0.033 A 
HETATM   23  C   UNL     1     -41.713  59.737 -58.507  1.00  0.00     0.051 A 
HETATM   24  C   UNL     1     -41.411  61.005 -59.027  1.00  0.00     0.069 A 
HETATM   25  C   UNL     1     -42.073  61.469 -60.158  1.00  0.00     0.039 A 
BRANCH  24  26
HETATM   26  O   UNL     1     -40.450  61.681 -58.323  1.00  0.00    -0.356 OA
HETATM   27  C   UNL     1     -39.801  62.757 -58.994  1.00  0.00     0.210 C 
ENDBRANCH  24  26
ENDBRANCH  13  15
ENDBRANCH  12  13
ENDBRANCH   1  12
BRANCH   3  28
HETATM   28  C   UNL     1     -43.710  55.820 -53.836  1.00  0.00     0.173 C 
BRANCH  28  29
HETATM   29  N   UNL     1     -42.557  54.971 -53.561  1.00  0.00    -0.278 N 
HETATM   30  C   UNL     1     -41.888  54.835 -52.375  1.00  0.00     0.261 A 
HETATM   31  O   UNL     1     -42.058  55.464 -51.344  1.00  0.00    -0.267 OA
HETATM   32  C   UNL     1     -40.994  53.687 -52.509  1.00  0.00     0.048 A 
HETATM   33  C   UNL     1     -41.228  53.127 -53.752  1.00  0.00     0.048 A 
HETATM   34  C   UNL     1     -40.114  53.125 -51.607  1.00  0.00     0.018 A 
HETATM   35  C   UNL     1     -42.255  53.932 -54.407  1.00  0.00     0.261 A 
HETATM   36  C   UNL     1     -40.596  51.972 -54.165  1.00  0.00     0.018 A 
HETATM   37  O   UNL     1     -42.773  53.667 -55.474  1.00  0.00    -0.267 OA
HETATM   38  C   UNL     1     -39.694  51.385 -53.272  1.00  0.00     0.001 A 
HETATM   39  C   UNL     1     -39.454  51.957 -52.005  1.00  0.00     0.001 A 
ENDBRANCH  28  29
ENDBRANCH   3  28
TORSDOF 6
ENDMDL
MODEL 9
REMARK VINA RESULT:      -9.3      2.149      7.447
REMARK  6 active torsions:
REMARK  status: ('A' for Active; 'I' for Inactive)
REMARK    1  A    between atoms: C_7  and  C_8 
REMARK    2  A    between atoms: C_8  and  C_9 
REMARK    3  A    between atoms: C_9  and  N_10 
REMARK    4  A    between atoms: C_12  and  C_13 
REMARK    5  A    between atoms: C_13  and  N_14 
REMARK    6  A    between atoms: C_36  and  O_37 
ROOT
HETATM    1  N   UNL     1     -43.793  57.465 -51.689  1.00  0.00    -0.054 N 
HETATM    2  H   UNL     1     -43.073  58.124 -51.312  1.00  0.00     0.281 HD
HETATM    3  C   UNL     1     -44.068  57.978 -53.117  1.00  0.00     0.240 C 
HETATM    4  C   UNL     1     -44.902  59.261 -53.163  1.00  0.00    -0.020 A 
HETATM    5  C   UNL     1     -45.534  59.765 -52.007  1.00  0.00    -0.048 A 
HETATM    6  C   UNL     1     -45.382  59.088 -50.673  1.00  0.00     0.067 C 
HETATM    7  C   UNL     1     -45.007  57.621 -50.811  1.00  0.00     0.241 C 
HETATM    8  C   UNL     1     -45.104  59.947 -54.375  1.00  0.00     0.010 A 
HETATM    9  C   UNL     1     -45.855  61.124 -54.426  1.00  0.00     0.001 A 
HETATM   10  C   UNL     1     -46.434  61.632 -53.271  1.00  0.00     0.001 A 
HETATM   11  C   UNL     1     -46.277  60.955 -52.067  1.00  0.00     0.008 A 
ENDROOT
BRANCH   1  12
HETATM   12  C   UNL     1     -43.199  56.038 -51.575  1.00  0.00     0.319 C 
BRANCH  12  13
HETATM   13  C   UNL     1     -41.852  55.982 -50.860  1.00  0.00     0.188 C 
HETATM   14  O   UNL     1     -41.389  57.027 -50.397  1.00  0.00    -0.290 OA
BRANCH  13  15
HETATM   15  C   UNL     1     -41.124  54.719 -50.734  1.00  0.00     0.046 A 
HETATM   16  C   UNL     1     -40.784  54.161 -49.503  1.00  0.00     0.020 A 
HETATM   17  C   UNL     1     -40.988  54.653 -48.111  1.00  0.00     0.069 C 
HETATM   18  N   UNL     1     -40.177  52.955 -49.734  1.00  0.00    -0.358 N 
HETATM   19  H   UNL     1     -39.844  52.321 -49.020  1.00  0.00     0.166 HD
HETATM   20  C   UNL     1     -40.100  52.711 -51.083  1.00  0.00     0.043 A 
HETATM   21  C   UNL     1     -40.657  53.807 -51.744  1.00  0.00     0.009 A 
HETATM   22  C   UNL     1     -39.584  51.594 -51.749  1.00  0.00     0.033 A 
HETATM   23  C   UNL     1     -40.674  53.763 -53.157  1.00  0.00     0.051 A 
HETATM   24  C   UNL     1     -40.161  52.654 -53.849  1.00  0.00     0.069 A 
HETATM   25  C   UNL     1     -39.627  51.581 -53.145  1.00  0.00     0.039 A 
BRANCH  24  26
HETATM   26  O   UNL     1     -40.253  52.758 -55.211  1.00  0.00    -0.356 OA
HETATM   27  C   UNL     1     -40.416  54.069 -55.744  1.00  0.00     0.210 C 
ENDBRANCH  24  26
ENDBRANCH  13  15
ENDBRANCH  12  13
ENDBRANCH   1  12
BRANCH   3  28
HETATM   28  C   UNL     1     -42.759  58.062 -53.958  1.00  0.00     0.173 C 
BRANCH  28  29
HETATM   29  N   UNL     1     -42.828  57.875 -55.402  1.00  0.00    -0.278 N 
HETATM   30  C   UNL     1     -42.292  58.678 -56.372  1.00  0.00     0.261 A 
HETATM   31  O   UNL     1     -41.737  59.755 -56.229  1.00  0.00    -0.267 OA
HETATM   32  C   UNL     1     -42.381  57.951 -57.636  1.00  0.00     0.048 A 
HETATM   33  C   UNL     1     -42.895  56.698 -57.355  1.00  0.00     0.048 A 
HETATM   34  C   UNL     1     -41.979  58.309 -58.907  1.00  0.00     0.018 A 
HETATM   35  C   UNL     1     -43.146  56.642 -55.918  1.00  0.00     0.261 A 
HETATM   36  C   UNL     1     -43.035  55.729 -58.328  1.00  0.00     0.018 A 
HETATM   37  O   UNL     1     -43.506  55.652 -55.311  1.00  0.00    -0.267 OA
HETATM   38  C   UNL     1     -42.640  56.068 -59.626  1.00  0.00     0.001 A 
HETATM   39  C   UNL     1     -42.118  57.347 -59.913  1.00  0.00     0.001 A 
ENDBRANCH  28  29
ENDBRANCH   3  28
TORSDOF 6
ENDMDL
MODEL 10
REMARK VINA RESULT:      -9.3      2.746      7.599
REMARK  6 active torsions:
REMARK  status: ('A' for Active; 'I' for Inactive)
REMARK    1  A    between atoms: C_7  and  C_8 
REMARK    2  A    between atoms: C_8  and  C_9 
REMARK    3  A    between atoms: C_9  and  N_10 
REMARK    4  A    between atoms: C_12  and  C_13 
REMARK    5  A    between atoms: C_13  and  N_14 
REMARK    6  A    between atoms: C_36  and  O_37 
ROOT
HETATM    1  N   UNL     1     -43.584  57.951 -55.465  1.00  0.00    -0.054 N 
HETATM    2  H   UNL     1     -44.514  57.624 -55.815  1.00  0.00     0.281 HD
HETATM    3  C   UNL     1     -43.551  57.498 -53.991  1.00  0.00     0.240 C 
HETATM    4  C   UNL     1     -44.438  58.337 -53.067  1.00  0.00    -0.020 A 
HETATM    5  C   UNL     1     -45.031  59.537 -53.512  1.00  0.00    -0.048 A 
HETATM    6  C   UNL     1     -44.849  60.024 -54.923  1.00  0.00     0.067 C 
HETATM    7  C   UNL     1     -43.599  59.453 -55.573  1.00  0.00     0.241 C 
HETATM    8  C   UNL     1     -44.647  57.957 -51.727  1.00  0.00     0.010 A 
HETATM    9  C   UNL     1     -45.463  58.709 -50.880  1.00  0.00     0.001 A 
HETATM   10  C   UNL     1     -46.075  59.865 -51.345  1.00  0.00     0.001 A 
HETATM   11  C   UNL     1     -45.859  60.280 -52.654  1.00  0.00     0.008 A 
ENDROOT
BRANCH   1  12
HETATM   12  C   UNL     1     -42.511  57.333 -56.396  1.00  0.00     0.319 C 
BRANCH  12  13
HETATM   13  C   UNL     1     -42.684  57.696 -57.869  1.00  0.00     0.188 C 
HETATM   14  O   UNL     1     -41.735  58.214 -58.461  1.00  0.00    -0.290 OA
BRANCH  13  15
HETATM   15  C   UNL     1     -43.949  57.440 -58.558  1.00  0.00     0.046 A 
HETATM   16  C   UNL     1     -44.324  56.176 -59.006  1.00  0.00     0.020 A 
HETATM   17  C   UNL     1     -43.610  54.867 -58.971  1.00  0.00     0.069 C 
HETATM   18  N   UNL     1     -45.583  56.268 -59.540  1.00  0.00    -0.358 N 
HETATM   19  H   UNL     1     -46.114  55.497 -59.924  1.00  0.00     0.166 HD
HETATM   20  C   UNL     1     -46.039  57.560 -59.464  1.00  0.00     0.043 A 
HETATM   21  C   UNL     1     -45.032  58.331 -58.881  1.00  0.00     0.009 A 
HETATM   22  C   UNL     1     -47.272  58.085 -59.864  1.00  0.00     0.033 A 
HETATM   23  C   UNL     1     -45.295  59.710 -58.712  1.00  0.00     0.051 A 
HETATM   24  C   UNL     1     -46.524  60.261 -59.107  1.00  0.00     0.069 A 
HETATM   25  C   UNL     1     -47.501  59.450 -59.673  1.00  0.00     0.039 A 
BRANCH  24  26
HETATM   26  O   UNL     1     -46.630  61.607 -58.874  1.00  0.00    -0.356 OA
HETATM   27  C   UNL     1     -45.519  62.238 -58.245  1.00  0.00     0.210 C 
ENDBRANCH  24  26
ENDBRANCH  13  15
ENDBRANCH  12  13
ENDBRANCH   1  12
BRANCH   3  28
HETATM   28  C   UNL     1     -43.793  55.965 -53.856  1.00  0.00     0.173 C 
BRANCH  28  29
HETATM   29  N   UNL     1     -42.657  55.085 -53.608  1.00  0.00    -0.278 N 
HETATM   30  C   UNL     1     -42.007  54.879 -52.422  1.00  0.00     0.261 A 
HETATM   31  O   UNL     1     -42.183  55.458 -51.363  1.00  0.00    -0.267 OA
HETATM   32  C   UNL     1     -41.129  53.725 -52.602  1.00  0.00     0.048 A 
HETATM   33  C   UNL     1     -41.353  53.233 -53.875  1.00  0.00     0.048 A 
HETATM   34  C   UNL     1     -40.271  53.105 -51.717  1.00  0.00     0.018 A 
HETATM   35  C   UNL     1     -42.358  54.085 -54.502  1.00  0.00     0.261 A 
HETATM   36  C   UNL     1     -40.732  52.090 -54.337  1.00  0.00     0.018 A 
HETATM   37  O   UNL     1     -42.865  53.883 -55.588  1.00  0.00    -0.267 OA
HETATM   38  C   UNL     1     -39.852  51.444 -53.462  1.00  0.00     0.001 A 
HETATM   39  C   UNL     1     -39.623  51.948 -52.164  1.00  0.00     0.001 A 
ENDBRANCH  28  29
ENDBRANCH   3  28
TORSDOF 6
ENDMDL
