MODEL 1
REMARK VINA RESULT:      -9.3      0.000      0.000
REMARK  2 active torsions:
REMARK  status: ('A' for Active; 'I' for Inactive)
REMARK       I    between atoms: C_2  and  N_3 
REMARK       I    between atoms: C_2  and  N_21 
REMARK    1  A    between atoms: N_3  and  C_4 
REMARK    2  A    between atoms: C_7  and  C_10 
ROOT
HETATM    1  C   UNL     1     -43.720  58.351 -51.725  1.00  0.00     0.036 A 
HETATM    2  C   UNL     1     -45.045  58.175 -51.308  1.00  0.00     0.030 A 
HETATM    3  C   UNL     1     -45.720  59.193 -50.624  1.00  0.00     0.014 A 
HETATM    4  C   UNL     1     -45.069  60.396 -50.330  1.00  0.00    -0.024 A 
HETATM    5  C   UNL     1     -43.734  60.558 -50.713  1.00  0.00     0.014 A 
HETATM    6  C   UNL     1     -43.065  59.544 -51.407  1.00  0.00     0.030 A 
ENDROOT
BRANCH   1   7
HETATM    7  N   UNL     1     -43.110  57.293 -52.430  1.00  0.00    -0.309 N 
HETATM    8  C   UNL     1     -42.446  56.206 -51.883  1.00  0.00     0.327 C 
HETATM    9  O   UNL     1     -42.192  56.105 -50.685  1.00  0.00    -0.247 OA
HETATM   10  N   UNL     1     -42.092  55.245 -52.825  1.00  0.00    -0.299 N 
HETATM   11  C   UNL     1     -42.528  55.187 -54.231  1.00  0.00     0.138 C 
HETATM   12  C   UNL     1     -41.268  54.127 -52.578  1.00  0.00     0.045 A 
HETATM   13  C   UNL     1     -42.090  53.832 -54.799  1.00  0.00     0.061 C 
HETATM   14  C   UNL     1     -41.212  53.311 -53.709  1.00  0.00    -0.030 A 
HETATM   15  C   UNL     1     -40.452  52.150 -53.724  1.00  0.00     0.009 A 
HETATM   16  C   UNL     1     -39.728  51.816 -52.580  1.00  0.00     0.001 A 
HETATM   17  C   UNL     1     -39.780  52.636 -51.444  1.00  0.00     0.002 A 
HETATM   18  C   UNL     1     -40.556  53.798 -51.437  1.00  0.00     0.030 A 
HETATM   19  H   UNL     1     -42.934  57.459 -53.407  1.00  0.00     0.170 HD
ENDBRANCH   1   7
BRANCH   4  20
HETATM   20  C   UNL     1     -45.779  61.493 -49.640  1.00  0.00     0.001 A 
HETATM   21  C   UNL     1     -46.580  62.265 -50.397  1.00  0.00     0.104 A 
HETATM   22  N   UNL     1     -47.315  63.297 -49.878  1.00  0.00    -0.332 N 
HETATM   23  C   UNL     1     -47.331  63.651 -48.549  1.00  0.00     0.256 A 
HETATM   24  H   UNL     1     -47.909  63.853 -50.482  1.00  0.00     0.168 HD
HETATM   25  O   UNL     1     -48.014  64.583 -48.138  1.00  0.00    -0.267 OA
HETATM   26  C   UNL     1     -46.475  62.843 -47.648  1.00  0.00     0.043 A 
HETATM   27  C   UNL     1     -46.436  63.139 -46.280  1.00  0.00     0.018 A 
HETATM   28  C   UNL     1     -45.712  61.792 -48.186  1.00  0.00    -0.008 A 
HETATM   29  C   UNL     1     -45.626  62.388 -45.431  1.00  0.00     0.001 A 
HETATM   30  C   UNL     1     -44.855  61.348 -45.949  1.00  0.00     0.001 A 
HETATM   31  C   UNL     1     -44.895  61.054 -47.316  1.00  0.00     0.013 A 
ENDBRANCH   4  20
TORSDOF 2
ENDMDL
MODEL 2
REMARK VINA RESULT:      -9.0      6.809     10.195
REMARK  2 active torsions:
REMARK  status: ('A' for Active; 'I' for Inactive)
REMARK       I    between atoms: C_2  and  N_3 
REMARK       I    between atoms: C_2  and  N_21 
REMARK    1  A    between atoms: N_3  and  C_4 
REMARK    2  A    between atoms: C_7  and  C_10 
ROOT
HETATM    1  C   UNL     1     -42.801  56.151 -56.227  1.00  0.00     0.036 A 
HETATM    2  C   UNL     1     -43.240  54.823 -56.180  1.00  0.00     0.030 A 
HETATM    3  C   UNL     1     -42.654  53.907 -55.299  1.00  0.00     0.014 A 
HETATM    4  C   UNL     1     -41.603  54.305 -54.465  1.00  0.00    -0.024 A 
HETATM    5  C   UNL     1     -41.138  55.622 -54.539  1.00  0.00     0.014 A 
HETATM    6  C   UNL     1     -41.735  56.539 -55.412  1.00  0.00     0.030 A 
ENDROOT
BRANCH   1   7
HETATM    7  N   UNL     1     -43.454  57.024 -57.122  1.00  0.00    -0.309 N 
HETATM    8  C   UNL     1     -42.889  57.671 -58.211  1.00  0.00     0.327 C 
HETATM    9  O   UNL     1     -41.684  57.658 -58.451  1.00  0.00    -0.247 OA
HETATM   10  N   UNL     1     -43.820  58.338 -58.999  1.00  0.00    -0.299 N 
HETATM   11  C   UNL     1     -45.287  58.242 -58.904  1.00  0.00     0.138 C 
HETATM   12  C   UNL     1     -43.510  59.211 -60.064  1.00  0.00     0.045 A 
HETATM   13  C   UNL     1     -45.882  58.953 -60.125  1.00  0.00     0.061 C 
HETATM   14  C   UNL     1     -44.679  59.616 -60.710  1.00  0.00    -0.030 A 
HETATM   15  C   UNL     1     -44.642  60.491 -61.787  1.00  0.00     0.009 A 
HETATM   16  C   UNL     1     -43.403  60.973 -62.208  1.00  0.00     0.001 A 
HETATM   17  C   UNL     1     -42.227  60.569 -61.558  1.00  0.00     0.002 A 
HETATM   18  C   UNL     1     -42.276  59.681 -60.481  1.00  0.00     0.030 A 
HETATM   19  H   UNL     1     -44.335  57.396 -56.809  1.00  0.00     0.170 HD
ENDBRANCH   1   7
BRANCH   4  20
HETATM   20  C   UNL     1     -40.997  53.360 -53.505  1.00  0.00     0.001 A 
HETATM   21  C   UNL     1     -40.411  52.265 -54.022  1.00  0.00     0.104 A 
HETATM   22  N   UNL     1     -39.791  51.324 -53.245  1.00  0.00    -0.332 N 
HETATM   23  C   UNL     1     -39.682  51.392 -51.875  1.00  0.00     0.256 A 
HETATM   24  H   UNL     1     -39.358  50.514 -53.674  1.00  0.00     0.168 HD
HETATM   25  O   UNL     1     -39.109  50.522 -51.229  1.00  0.00    -0.267 OA
HETATM   26  C   UNL     1     -40.301  52.575 -51.230  1.00  0.00     0.043 A 
HETATM   27  C   UNL     1     -40.235  52.719 -49.839  1.00  0.00     0.018 A 
HETATM   28  C   UNL     1     -40.949  53.532 -52.030  1.00  0.00    -0.008 A 
HETATM   29  C   UNL     1     -40.822  53.824 -49.227  1.00  0.00     0.001 A 
HETATM   30  C   UNL     1     -41.478  54.779 -50.004  1.00  0.00     0.001 A 
HETATM   31  C   UNL     1     -41.544  54.633 -51.393  1.00  0.00     0.013 A 
ENDBRANCH   4  20
TORSDOF 2
ENDMDL
MODEL 3
REMARK VINA RESULT:      -8.9      6.697     10.320
REMARK  2 active torsions:
REMARK  status: ('A' for Active; 'I' for Inactive)
REMARK       I    between atoms: C_2  and  N_3 
REMARK       I    between atoms: C_2  and  N_21 
REMARK    1  A    between atoms: N_3  and  C_4 
REMARK    2  A    between atoms: C_7  and  C_10 
ROOT
HETATM    1  C   UNL     1     -42.565  56.391 -56.382  1.00  0.00     0.036 A 
HETATM    2  C   UNL     1     -42.857  55.032 -56.213  1.00  0.00     0.030 A 
HETATM    3  C   UNL     1     -42.429  54.347 -55.071  1.00  0.00     0.014 A 
HETATM    4  C   UNL     1     -41.683  55.008 -54.089  1.00  0.00    -0.024 A 
HETATM    5  C   UNL     1     -41.359  56.356 -54.276  1.00  0.00     0.014 A 
HETATM    6  C   UNL     1     -41.799  57.042 -55.413  1.00  0.00     0.030 A 
ENDROOT
BRANCH   1   7
HETATM    7  N   UNL     1     -43.049  57.024 -57.546  1.00  0.00    -0.309 N 
HETATM    8  C   UNL     1     -44.238  57.726 -57.675  1.00  0.00     0.327 C 
HETATM    9  O   UNL     1     -45.094  57.768 -56.795  1.00  0.00    -0.247 OA
HETATM   10  N   UNL     1     -44.365  58.373 -58.900  1.00  0.00    -0.299 N 
HETATM   11  C   UNL     1     -43.316  58.543 -59.920  1.00  0.00     0.138 C 
HETATM   12  C   UNL     1     -45.532  59.015 -59.364  1.00  0.00     0.045 A 
HETATM   13  C   UNL     1     -43.845  59.525 -60.973  1.00  0.00     0.061 C 
HETATM   14  C   UNL     1     -45.279  59.657 -60.578  1.00  0.00    -0.030 A 
HETATM   15  C   UNL     1     -46.275  60.351 -61.250  1.00  0.00     0.009 A 
HETATM   16  C   UNL     1     -47.552  60.386 -60.689  1.00  0.00     0.001 A 
HETATM   17  C   UNL     1     -47.810  59.740 -59.471  1.00  0.00     0.002 A 
HETATM   18  C   UNL     1     -46.796  59.051 -58.800  1.00  0.00     0.030 A 
HETATM   19  H   UNL     1     -42.618  56.743 -58.410  1.00  0.00     0.170 HD
ENDBRANCH   1   7
BRANCH   4  20
HETATM   20  C   UNL     1     -41.254  54.307 -52.862  1.00  0.00     0.001 A 
HETATM   21  C   UNL     1     -41.489  54.934 -51.694  1.00  0.00     0.104 A 
HETATM   22  N   UNL     1     -41.166  54.383 -50.483  1.00  0.00    -0.332 N 
HETATM   23  C   UNL     1     -40.588  53.145 -50.319  1.00  0.00     0.256 A 
HETATM   24  H   UNL     1     -41.363  54.886 -49.626  1.00  0.00     0.168 HD
HETATM   25  O   UNL     1     -40.325  52.698 -49.208  1.00  0.00    -0.267 OA
HETATM   26  C   UNL     1     -40.301  52.389 -51.562  1.00  0.00     0.043 A 
HETATM   27  C   UNL     1     -39.713  51.121 -51.481  1.00  0.00     0.018 A 
HETATM   28  C   UNL     1     -40.622  52.964 -52.804  1.00  0.00    -0.008 A 
HETATM   29  C   UNL     1     -39.434  50.411 -52.647  1.00  0.00     0.001 A 
HETATM   30  C   UNL     1     -39.736  50.970 -53.888  1.00  0.00     0.001 A 
HETATM   31  C   UNL     1     -40.323  52.237 -53.967  1.00  0.00     0.013 A 
ENDBRANCH   4  20
TORSDOF 2
ENDMDL
MODEL 4
REMARK VINA RESULT:      -8.9      6.487     10.211
REMARK  2 active torsions:
REMARK  status: ('A' for Active; 'I' for Inactive)
REMARK       I    between atoms: C_2  and  N_3 
REMARK       I    between atoms: C_2  and  N_21 
REMARK    1  A    between atoms: N_3  and  C_4 
REMARK    2  A    between atoms: C_7  and  C_10 
ROOT
HETATM    1  C   UNL     1     -42.923  57.205 -56.033  1.00  0.00     0.036 A 
HETATM    2  C   UNL     1     -43.165  55.826 -56.002  1.00  0.00     0.030 A 
HETATM    3  C   UNL     1     -42.659  55.036 -54.964  1.00  0.00     0.014 A 
HETATM    4  C   UNL     1     -41.885  55.613 -53.951  1.00  0.00    -0.024 A 
HETATM    5  C   UNL     1     -41.611  56.983 -54.003  1.00  0.00     0.014 A 
HETATM    6  C   UNL     1     -42.128  57.773 -55.035  1.00  0.00     0.030 A 
ENDROOT
BRANCH   1   7
HETATM    7  N   UNL     1     -43.484  57.943 -57.096  1.00  0.00    -0.309 N 
HETATM    8  C   UNL     1     -42.812  58.452 -58.197  1.00  0.00     0.327 C 
HETATM    9  O   UNL     1     -41.589  58.430 -58.310  1.00  0.00    -0.247 OA
HETATM   10  N   UNL     1     -43.660  58.995 -59.157  1.00  0.00    -0.299 N 
HETATM   11  C   UNL     1     -45.129  58.886 -59.199  1.00  0.00     0.138 C 
HETATM   12  C   UNL     1     -43.246  59.728 -60.289  1.00  0.00     0.045 A 
HETATM   13  C   UNL     1     -45.598  59.422 -60.557  1.00  0.00     0.061 C 
HETATM   14  C   UNL     1     -44.344  60.025 -61.099  1.00  0.00    -0.030 A 
HETATM   15  C   UNL     1     -44.200  60.754 -62.271  1.00  0.00     0.009 A 
HETATM   16  C   UNL     1     -42.926  61.198 -62.623  1.00  0.00     0.001 A 
HETATM   17  C   UNL     1     -41.822  60.904 -61.811  1.00  0.00     0.002 A 
HETATM   18  C   UNL     1     -41.977  60.162 -60.636  1.00  0.00     0.030 A 
HETATM   19  H   UNL     1     -44.394  58.336 -56.926  1.00  0.00     0.170 HD
ENDBRANCH   1   7
BRANCH   4  20
HETATM   20  C   UNL     1     -41.373  54.798 -52.830  1.00  0.00     0.001 A 
HETATM   21  C   UNL     1     -41.527  55.307 -51.594  1.00  0.00     0.104 A 
HETATM   22  N   UNL     1     -41.122  54.643 -50.467  1.00  0.00    -0.332 N 
HETATM   23  C   UNL     1     -40.536  53.398 -50.464  1.00  0.00     0.256 A 
HETATM   24  H   UNL     1     -41.259  55.059 -49.553  1.00  0.00     0.168 HD
HETATM   25  O   UNL     1     -40.197  52.847 -49.423  1.00  0.00    -0.267 OA
HETATM   26  C   UNL     1     -40.336  52.768 -51.792  1.00  0.00     0.043 A 
HETATM   27  C   UNL     1     -39.746  51.501 -51.875  1.00  0.00     0.018 A 
HETATM   28  C   UNL     1     -40.741  53.459 -52.947  1.00  0.00    -0.008 A 
HETATM   29  C   UNL     1     -39.548  50.909 -53.120  1.00  0.00     0.001 A 
HETATM   30  C   UNL     1     -39.935  51.584 -54.277  1.00  0.00     0.001 A 
HETATM   31  C   UNL     1     -40.523  52.849 -54.192  1.00  0.00     0.013 A 
ENDBRANCH   4  20
TORSDOF 2
ENDMDL
MODEL 5
REMARK VINA RESULT:      -8.8      1.132      2.534
REMARK  2 active torsions:
REMARK  status: ('A' for Active; 'I' for Inactive)
REMARK       I    between atoms: C_2  and  N_3 
REMARK       I    between atoms: C_2  and  N_21 
REMARK    1  A    between atoms: N_3  and  C_4 
REMARK    2  A    between atoms: C_7  and  C_10 
ROOT
HETATM    1  C   UNL     1     -43.453  58.100 -51.770  1.00  0.00     0.036 A 
HETATM    2  C   UNL     1     -42.844  59.309 -51.410  1.00  0.00     0.030 A 
HETATM    3  C   UNL     1     -43.556  60.284 -50.703  1.00  0.00     0.014 A 
HETATM    4  C   UNL     1     -44.897  60.070 -50.362  1.00  0.00    -0.024 A 
HETATM    5  C   UNL     1     -45.516  58.879 -50.754  1.00  0.00     0.014 A 
HETATM    6  C   UNL     1     -44.798  57.901 -51.451  1.00  0.00     0.030 A 
ENDROOT
BRANCH   1   7
HETATM    7  N   UNL     1     -42.668  57.153 -52.461  1.00  0.00    -0.309 N 
HETATM    8  C   UNL     1     -42.234  55.927 -51.981  1.00  0.00     0.327 C 
HETATM    9  O   UNL     1     -42.379  55.571 -50.814  1.00  0.00    -0.247 OA
HETATM   10  N   UNL     1     -41.614  55.145 -52.949  1.00  0.00    -0.299 N 
HETATM   11  C   UNL     1     -41.577  55.402 -54.399  1.00  0.00     0.138 C 
HETATM   12  C   UNL     1     -40.932  53.934 -52.705  1.00  0.00     0.045 A 
HETATM   13  C   UNL     1     -41.004  54.153 -55.080  1.00  0.00     0.061 C 
HETATM   14  C   UNL     1     -40.531  53.355 -53.910  1.00  0.00    -0.030 A 
HETATM   15  C   UNL     1     -39.827  52.160 -53.937  1.00  0.00     0.009 A 
HETATM   16  C   UNL     1     -39.513  51.547 -52.724  1.00  0.00     0.001 A 
HETATM   17  C   UNL     1     -39.912  52.128 -51.512  1.00  0.00     0.002 A 
HETATM   18  C   UNL     1     -40.628  53.328 -51.497  1.00  0.00     0.030 A 
HETATM   19  H   UNL     1     -42.186  57.494 -53.275  1.00  0.00     0.170 HD
ENDBRANCH   1   7
BRANCH   4  20
HETATM   20  C   UNL     1     -45.651  61.075 -49.585  1.00  0.00     0.001 A 
HETATM   21  C   UNL     1     -45.514  61.032 -48.247  1.00  0.00     0.104 A 
HETATM   22  N   UNL     1     -46.136  61.921 -47.412  1.00  0.00    -0.332 N 
HETATM   23  C   UNL     1     -46.946  62.951 -47.834  1.00  0.00     0.256 A 
HETATM   24  H   UNL     1     -46.003  61.857 -46.410  1.00  0.00     0.168 HD
HETATM   25  O   UNL     1     -47.474  63.722 -47.041  1.00  0.00    -0.267 OA
HETATM   26  C   UNL     1     -47.144  63.066 -49.299  1.00  0.00     0.043 A 
HETATM   27  C   UNL     1     -47.954  64.088 -49.809  1.00  0.00     0.018 A 
HETATM   28  C   UNL     1     -46.514  62.144 -50.152  1.00  0.00    -0.008 A 
HETATM   29  C   UNL     1     -48.150  64.196 -51.185  1.00  0.00     0.001 A 
HETATM   30  C   UNL     1     -47.541  63.283 -52.044  1.00  0.00     0.001 A 
HETATM   31  C   UNL     1     -46.732  62.263 -51.533  1.00  0.00     0.013 A 
ENDBRANCH   4  20
TORSDOF 2
ENDMDL
MODEL 6
REMARK VINA RESULT:      -8.7      2.733     10.477
REMARK  2 active torsions:
REMARK  status: ('A' for Active; 'I' for Inactive)
REMARK       I    between atoms: C_2  and  N_3 
REMARK       I    between atoms: C_2  and  N_21 
REMARK    1  A    between atoms: N_3  and  C_4 
REMARK    2  A    between atoms: C_7  and  C_10 
ROOT
HETATM    1  C   UNL     1     -42.662  57.470 -50.757  1.00  0.00     0.036 A 
HETATM    2  C   UNL     1     -41.283  57.302 -50.584  1.00  0.00     0.030 A 
HETATM    3  C   UNL     1     -40.704  56.030 -50.656  1.00  0.00     0.014 A 
HETATM    4  C   UNL     1     -41.503  54.903 -50.882  1.00  0.00    -0.024 A 
HETATM    5  C   UNL     1     -42.885  55.067 -51.016  1.00  0.00     0.014 A 
HETATM    6  C   UNL     1     -43.460  56.341 -50.956  1.00  0.00     0.030 A 
ENDROOT
BRANCH   1   7
HETATM    7  N   UNL     1     -43.173  58.783 -50.695  1.00  0.00    -0.309 N 
HETATM    8  C   UNL     1     -44.412  59.213 -51.147  1.00  0.00     0.327 C 
HETATM    9  O   UNL     1     -45.178  58.501 -51.792  1.00  0.00    -0.247 OA
HETATM   10  N   UNL     1     -44.697  60.530 -50.803  1.00  0.00    -0.299 N 
HETATM   11  C   UNL     1     -43.937  61.382 -49.872  1.00  0.00     0.138 C 
HETATM   12  C   UNL     1     -45.800  61.274 -51.271  1.00  0.00     0.045 A 
HETATM   13  C   UNL     1     -44.761  62.651 -49.622  1.00  0.00     0.061 C 
HETATM   14  C   UNL     1     -45.846  62.518 -50.640  1.00  0.00    -0.030 A 
HETATM   15  C   UNL     1     -46.834  63.444 -50.940  1.00  0.00     0.009 A 
HETATM   16  C   UNL     1     -47.786  63.110 -51.903  1.00  0.00     0.001 A 
HETATM   17  C   UNL     1     -47.742  61.862 -52.541  1.00  0.00     0.002 A 
HETATM   18  C   UNL     1     -46.746  60.934 -52.224  1.00  0.00     0.030 A 
HETATM   19  H   UNL     1     -42.498  59.510 -50.531  1.00  0.00     0.170 HD
ENDBRANCH   1   7
BRANCH   4  20
HETATM   20  C   UNL     1     -40.902  53.558 -50.995  1.00  0.00     0.001 A 
HETATM   21  C   UNL     1     -40.743  52.869 -49.852  1.00  0.00     0.104 A 
HETATM   22  N   UNL     1     -40.223  51.602 -49.820  1.00  0.00    -0.332 N 
HETATM   23  C   UNL     1     -39.825  50.895 -50.931  1.00  0.00     0.256 A 
HETATM   24  H   UNL     1     -40.123  51.115 -48.937  1.00  0.00     0.168 HD
HETATM   25  O   UNL     1     -39.372  49.759 -50.844  1.00  0.00    -0.267 OA
HETATM   26  C   UNL     1     -39.974  51.588 -52.233  1.00  0.00     0.043 A 
HETATM   27  C   UNL     1     -39.592  50.936 -53.412  1.00  0.00     0.018 A 
HETATM   28  C   UNL     1     -40.495  52.893 -52.260  1.00  0.00    -0.008 A 
HETATM   29  C   UNL     1     -39.722  51.586 -54.637  1.00  0.00     0.001 A 
HETATM   30  C   UNL     1     -40.227  52.885 -54.682  1.00  0.00     0.001 A 
HETATM   31  C   UNL     1     -40.608  53.535 -53.504  1.00  0.00     0.013 A 
ENDBRANCH   4  20
TORSDOF 2
ENDMDL
MODEL 7
REMARK VINA RESULT:      -8.7      2.879     10.551
REMARK  2 active torsions:
REMARK  status: ('A' for Active; 'I' for Inactive)
REMARK       I    between atoms: C_2  and  N_3 
REMARK       I    between atoms: C_2  and  N_21 
REMARK    1  A    between atoms: N_3  and  C_4 
REMARK    2  A    between atoms: C_7  and  C_10 
ROOT
HETATM    1  C   UNL     1     -41.850  57.031 -51.913  1.00  0.00     0.036 A 
HETATM    2  C   UNL     1     -41.605  56.715 -53.255  1.00  0.00     0.030 A 
HETATM    3  C   UNL     1     -41.160  55.439 -53.619  1.00  0.00     0.014 A 
HETATM    4  C   UNL     1     -40.934  54.465 -52.640  1.00  0.00    -0.024 A 
HETATM    5  C   UNL     1     -41.143  54.792 -51.296  1.00  0.00     0.014 A 
HETATM    6  C   UNL     1     -41.600  56.065 -50.936  1.00  0.00     0.030 A 
ENDROOT
BRANCH   1   7
HETATM    7  N   UNL     1     -42.320  58.328 -51.622  1.00  0.00    -0.309 N 
HETATM    8  C   UNL     1     -43.621  58.789 -51.755  1.00  0.00     0.327 C 
HETATM    9  O   UNL     1     -44.516  58.134 -52.283  1.00  0.00    -0.247 OA
HETATM   10  N   UNL     1     -43.809  60.066 -51.238  1.00  0.00    -0.299 N 
HETATM   11  C   UNL     1     -42.856  60.834 -50.418  1.00  0.00     0.138 C 
HETATM   12  C   UNL     1     -44.978  60.841 -51.387  1.00  0.00     0.045 A 
HETATM   13  C   UNL     1     -43.592  62.067 -49.879  1.00  0.00     0.061 C 
HETATM   14  C   UNL     1     -44.871  62.022 -50.649  1.00  0.00    -0.030 A 
HETATM   15  C   UNL     1     -45.890  62.964 -50.642  1.00  0.00     0.009 A 
HETATM   16  C   UNL     1     -47.030  62.713 -51.404  1.00  0.00     0.001 A 
HETATM   17  C   UNL     1     -47.139  61.530 -52.150  1.00  0.00     0.002 A 
HETATM   18  C   UNL     1     -46.110  60.584 -52.142  1.00  0.00     0.030 A 
HETATM   19  H   UNL     1     -41.616  59.042 -51.540  1.00  0.00     0.170 HD
ENDBRANCH   1   7
BRANCH   4  20
HETATM   20  C   UNL     1     -40.499  53.103 -53.011  1.00  0.00     0.001 A 
HETATM   21  C   UNL     1     -40.264  52.878 -54.316  1.00  0.00     0.104 A 
HETATM   22  N   UNL     1     -39.831  51.669 -54.790  1.00  0.00    -0.332 N 
HETATM   23  C   UNL     1     -39.576  50.569 -54.004  1.00  0.00     0.256 A 
HETATM   24  H   UNL     1     -39.662  51.542 -55.781  1.00  0.00     0.168 HD
HETATM   25  O   UNL     1     -39.184  49.511 -54.483  1.00  0.00    -0.267 OA
HETATM   26  C   UNL     1     -39.808  50.740 -52.549  1.00  0.00     0.043 A 
HETATM   27  C   UNL     1     -39.573  49.668 -51.681  1.00  0.00     0.018 A 
HETATM   28  C   UNL     1     -40.266  51.979 -52.068  1.00  0.00    -0.008 A 
HETATM   29  C   UNL     1     -39.797  49.820 -50.314  1.00  0.00     0.001 A 
HETATM   30  C   UNL     1     -40.261  51.039 -49.820  1.00  0.00     0.001 A 
HETATM   31  C   UNL     1     -40.496  52.109 -50.690  1.00  0.00     0.013 A 
ENDBRANCH   4  20
TORSDOF 2
ENDMDL
MODEL 8
REMARK VINA RESULT:      -8.5      5.310      7.017
REMARK  2 active torsions:
REMARK  status: ('A' for Active; 'I' for Inactive)
REMARK       I    between atoms: C_2  and  N_3 
REMARK       I    between atoms: C_2  and  N_21 
REMARK    1  A    between atoms: N_3  and  C_4 
REMARK    2  A    between atoms: C_7  and  C_10 
ROOT
HETATM    1  C   UNL     1     -41.804  56.823 -53.620  1.00  0.00     0.036 A 
HETATM    2  C   UNL     1     -40.925  57.890 -53.398  1.00  0.00     0.030 A 
HETATM    3  C   UNL     1     -41.162  59.142 -53.975  1.00  0.00     0.014 A 
HETATM    4  C   UNL     1     -42.274  59.339 -54.800  1.00  0.00    -0.024 A 
HETATM    5  C   UNL     1     -43.132  58.264 -55.052  1.00  0.00     0.014 A 
HETATM    6  C   UNL     1     -42.899  57.016 -54.465  1.00  0.00     0.030 A 
ENDROOT
BRANCH   1   7
HETATM    7  N   UNL     1     -41.516  55.596 -52.987  1.00  0.00    -0.309 N 
HETATM    8  C   UNL     1     -40.984  54.461 -53.581  1.00  0.00     0.327 C 
HETATM    9  O   UNL     1     -40.820  54.350 -54.794  1.00  0.00    -0.247 OA
HETATM   10  N   UNL     1     -40.661  53.462 -52.669  1.00  0.00    -0.299 N 
HETATM   11  C   UNL     1     -40.635  53.583 -51.202  1.00  0.00     0.138 C 
HETATM   12  C   UNL     1     -40.265  52.150 -53.005  1.00  0.00     0.045 A 
HETATM   13  C   UNL     1     -39.987  52.311 -50.640  1.00  0.00     0.061 C 
HETATM   14  C   UNL     1     -39.908  51.445 -51.854  1.00  0.00    -0.030 A 
HETATM   15  C   UNL     1     -39.494  50.122 -51.917  1.00  0.00     0.009 A 
HETATM   16  C   UNL     1     -39.452  49.499 -53.164  1.00  0.00     0.001 A 
HETATM   17  C   UNL     1     -39.814  50.203 -54.321  1.00  0.00     0.002 A 
HETATM   18  C   UNL     1     -40.221  51.538 -54.247  1.00  0.00     0.030 A 
HETATM   19  H   UNL     1     -41.949  55.451 -52.091  1.00  0.00     0.170 HD
ENDBRANCH   1   7
BRANCH   4  20
HETATM   20  C   UNL     1     -42.557  60.665 -55.388  1.00  0.00     0.001 A 
HETATM   21  C   UNL     1     -42.992  61.619 -54.545  1.00  0.00     0.104 A 
HETATM   22  N   UNL     1     -43.266  62.897 -54.955  1.00  0.00    -0.332 N 
HETATM   23  C   UNL     1     -43.118  63.350 -56.246  1.00  0.00     0.256 A 
HETATM   24  H   UNL     1     -43.588  63.588 -54.287  1.00  0.00     0.168 HD
HETATM   25  O   UNL     1     -43.373  64.508 -56.555  1.00  0.00    -0.267 OA
HETATM   26  C   UNL     1     -42.637  62.355 -57.235  1.00  0.00     0.043 A 
HETATM   27  C   UNL     1     -42.460  62.737 -58.570  1.00  0.00     0.018 A 
HETATM   28  C   UNL     1     -42.370  61.042 -56.813  1.00  0.00    -0.008 A 
HETATM   29  C   UNL     1     -42.017  61.804 -59.505  1.00  0.00     0.001 A 
HETATM   30  C   UNL     1     -41.758  60.494 -59.106  1.00  0.00     0.001 A 
HETATM   31  C   UNL     1     -41.935  60.114 -57.772  1.00  0.00     0.013 A 
ENDBRANCH   4  20
TORSDOF 2
ENDMDL
MODEL 9
REMARK VINA RESULT:      -8.4      2.938      4.074
REMARK  2 active torsions:
REMARK  status: ('A' for Active; 'I' for Inactive)
REMARK       I    between atoms: C_2  and  N_3 
REMARK       I    between atoms: C_2  and  N_21 
REMARK    1  A    between atoms: N_3  and  C_4 
REMARK    2  A    between atoms: C_7  and  C_10 
ROOT
HETATM    1  C   UNL     1     -41.417  56.902 -53.708  1.00  0.00     0.036 A 
HETATM    2  C   UNL     1     -40.565  57.932 -53.289  1.00  0.00     0.030 A 
HETATM    3  C   UNL     1     -41.032  59.247 -53.187  1.00  0.00     0.014 A 
HETATM    4  C   UNL     1     -42.355  59.554 -53.522  1.00  0.00    -0.024 A 
HETATM    5  C   UNL     1     -43.195  58.533 -53.977  1.00  0.00     0.014 A 
HETATM    6  C   UNL     1     -42.729  57.216 -54.067  1.00  0.00     0.030 A 
ENDROOT
BRANCH   1   7
HETATM    7  N   UNL     1     -40.885  55.597 -53.765  1.00  0.00    -0.309 N 
HETATM    8  C   UNL     1     -40.930  54.639 -52.764  1.00  0.00     0.327 C 
HETATM    9  O   UNL     1     -41.337  54.870 -51.628  1.00  0.00    -0.247 OA
HETATM   10  N   UNL     1     -40.464  53.394 -53.172  1.00  0.00    -0.299 N 
HETATM   11  C   UNL     1     -40.151  52.978 -54.550  1.00  0.00     0.138 C 
HETATM   12  C   UNL     1     -40.240  52.290 -52.323  1.00  0.00     0.045 A 
HETATM   13  C   UNL     1     -39.915  51.462 -54.538  1.00  0.00     0.061 C 
HETATM   14  C   UNL     1     -39.882  51.168 -53.074  1.00  0.00    -0.030 A 
HETATM   15  C   UNL     1     -39.595  49.954 -52.467  1.00  0.00     0.009 A 
HETATM   16  C   UNL     1     -39.659  49.877 -51.076  1.00  0.00     0.001 A 
HETATM   17  C   UNL     1     -40.014  51.002 -50.319  1.00  0.00     0.002 A 
HETATM   18  C   UNL     1     -40.310  52.217 -50.942  1.00  0.00     0.030 A 
HETATM   19  H   UNL     1     -40.214  55.428 -54.495  1.00  0.00     0.170 HD
ENDBRANCH   1   7
BRANCH   4  20
HETATM   20  C   UNL     1     -42.872  60.931 -53.385  1.00  0.00     0.001 A 
HETATM   21  C   UNL     1     -43.016  61.639 -54.520  1.00  0.00     0.104 A 
HETATM   22  N   UNL     1     -43.509  62.916 -54.536  1.00  0.00    -0.332 N 
HETATM   23  C   UNL     1     -43.921  63.607 -53.420  1.00  0.00     0.256 A 
HETATM   24  H   UNL     1     -43.605  63.414 -55.414  1.00  0.00     0.168 HD
HETATM   25  O   UNL     1     -44.361  64.748 -53.494  1.00  0.00    -0.267 OA
HETATM   26  C   UNL     1     -43.797  62.890 -52.127  1.00  0.00     0.043 A 
HETATM   27  C   UNL     1     -44.195  63.524 -50.944  1.00  0.00     0.018 A 
HETATM   28  C   UNL     1     -43.278  61.584 -52.114  1.00  0.00    -0.008 A 
HETATM   29  C   UNL     1     -44.072  62.859 -49.726  1.00  0.00     0.001 A 
HETATM   30  C   UNL     1     -43.549  61.566 -49.693  1.00  0.00     0.001 A 
HETATM   31  C   UNL     1     -43.152  60.935 -50.876  1.00  0.00     0.013 A 
ENDBRANCH   4  20
TORSDOF 2
ENDMDL
MODEL 10
REMARK VINA RESULT:      -8.4      1.626      2.666
REMARK  2 active torsions:
REMARK  status: ('A' for Active; 'I' for Inactive)
REMARK       I    between atoms: C_2  and  N_3 
REMARK       I    between atoms: C_2  and  N_21 
REMARK    1  A    between atoms: N_3  and  C_4 
REMARK    2  A    between atoms: C_7  and  C_10 
ROOT
HETATM    1  C   UNL     1     -43.609  57.512 -51.180  1.00  0.00     0.036 A 
HETATM    2  C   UNL     1     -42.966  58.728 -51.443  1.00  0.00     0.030 A 
HETATM    3  C   UNL     1     -43.699  59.915 -51.550  1.00  0.00     0.014 A 
HETATM    4  C   UNL     1     -45.091  59.899 -51.416  1.00  0.00    -0.024 A 
HETATM    5  C   UNL     1     -45.738  58.679 -51.191  1.00  0.00     0.014 A 
HETATM    6  C   UNL     1     -45.001  57.495 -51.072  1.00  0.00     0.030 A 
ENDROOT
BRANCH   1   7
HETATM    7  N   UNL     1     -42.805  56.360 -51.061  1.00  0.00    -0.309 N 
HETATM    8  C   UNL     1     -42.362  55.547 -52.094  1.00  0.00     0.327 C 
HETATM    9  O   UNL     1     -42.740  55.670 -53.257  1.00  0.00    -0.247 OA
HETATM   10  N   UNL     1     -41.453  54.579 -51.682  1.00  0.00    -0.299 N 
HETATM   11  C   UNL     1     -40.797  54.488 -50.366  1.00  0.00     0.138 C 
HETATM   12  C   UNL     1     -40.972  53.520 -52.481  1.00  0.00     0.045 A 
HETATM   13  C   UNL     1     -39.704  53.417 -50.461  1.00  0.00     0.061 C 
HETATM   14  C   UNL     1     -39.990  52.805 -51.793  1.00  0.00    -0.030 A 
HETATM   15  C   UNL     1     -39.369  51.702 -52.362  1.00  0.00     0.009 A 
HETATM   16  C   UNL     1     -39.756  51.310 -53.643  1.00  0.00     0.001 A 
HETATM   17  C   UNL     1     -40.744  52.025 -54.336  1.00  0.00     0.002 A 
HETATM   18  C   UNL     1     -41.357  53.140 -53.756  1.00  0.00     0.030 A 
HETATM   19  H   UNL     1     -42.746  55.958 -50.141  1.00  0.00     0.170 HD
ENDBRANCH   1   7
BRANCH   4  20
HETATM   20  C   UNL     1     -45.875  61.148 -51.491  1.00  0.00     0.001 A 
HETATM   21  C   UNL     1     -46.276  61.538 -52.714  1.00  0.00     0.104 A 
HETATM   22  N   UNL     1     -47.030  62.662 -52.921  1.00  0.00    -0.332 N 
HETATM   23  C   UNL     1     -47.471  63.500 -51.922  1.00  0.00     0.256 A 
HETATM   24  H   UNL     1     -47.315  62.919 -53.858  1.00  0.00     0.168 HD
HETATM   25  O   UNL     1     -48.149  64.491 -52.164  1.00  0.00    -0.267 OA
HETATM   26  C   UNL     1     -47.072  63.134 -50.541  1.00  0.00     0.043 A 
HETATM   27  C   UNL     1     -47.480  63.935 -49.468  1.00  0.00     0.018 A 
HETATM   28  C   UNL     1     -46.287  61.987 -50.335  1.00  0.00    -0.008 A 
HETATM   29  C   UNL     1     -47.101  63.600 -48.169  1.00  0.00     0.001 A 
HETATM   30  C   UNL     1     -46.313  62.471 -47.947  1.00  0.00     0.001 A 
HETATM   31  C   UNL     1     -45.906  61.673 -49.021  1.00  0.00     0.013 A 
ENDBRANCH   4  20
TORSDOF 2
ENDMDL
