MODEL 1
REMARK VINA RESULT:      -8.6      0.000      0.000
REMARK  5 active torsions:
REMARK  status: ('A' for Active; 'I' for Inactive)
REMARK    1  A    between atoms: C_2  and  C_3 
REMARK    2  A    between atoms: C_4  and  N_5 
REMARK    3  A    between atoms: N_5  and  C_6 
REMARK    4  A    between atoms: C_7  and  C_8 
REMARK    5  A    between atoms: C_11  and  C_12 
ROOT
HETATM    1  C   UNL     1     -42.702  56.355 -53.669  1.00  0.00     0.113 C 
HETATM    2  C   UNL     1     -42.166  57.465 -54.214  1.00  0.00     0.082 C 
HETATM    3  C   UNL     1     -41.025  58.183 -53.512  1.00  0.00     0.024 C 
HETATM    4  N   UNL     1     -40.078  58.779 -52.928  1.00  0.00    -0.096 N 
ENDROOT
BRANCH   2   5
HETATM    5  C   UNL     1     -42.709  58.020 -55.402  1.00  0.00     0.119 A 
HETATM    6  S   UNL     1     -42.214  59.594 -55.926  1.00  0.00    -0.078 SA
HETATM    7  C   UNL     1     -43.255  59.472 -57.281  1.00  0.00     0.084 A 
HETATM    8  C   UNL     1     -43.917  58.262 -57.264  1.00  0.00     0.075 A 
HETATM    9  N   UNL     1     -43.591  57.442 -56.194  1.00  0.00    -0.239 NA
BRANCH   8  10
HETATM   10  C   UNL     1     -44.871  57.820 -58.277  1.00  0.00    -0.005 A 
HETATM   11  C   UNL     1     -44.536  56.742 -59.111  1.00  0.00     0.039 A 
HETATM   12  C   UNL     1     -45.424  56.289 -60.092  1.00  0.00     0.056 A 
HETATM   13 CL   UNL     1     -44.924  54.962 -61.080  1.00  0.00    -0.083 Cl
HETATM   14  C   UNL     1     -46.667  56.909 -60.246  1.00  0.00     0.055 A 
HETATM   15 CL   UNL     1     -47.817  56.406 -61.433  1.00  0.00    -0.083 Cl
HETATM   16  C   UNL     1     -47.014  57.977 -59.416  1.00  0.00     0.026 A 
HETATM   17  C   UNL     1     -46.122  58.430 -58.437  1.00  0.00     0.015 A 
ENDBRANCH   8  10
ENDBRANCH   2   5
BRANCH   1  18
HETATM   18  N   UNL     1     -42.314  55.686 -52.532  1.00  0.00    -0.364 N 
HETATM   19  H   UNL     1     -42.857  55.853 -51.675  1.00  0.00     0.165 HD
BRANCH  18  20
HETATM   20  C   UNL     1     -41.545  54.498 -52.454  1.00  0.00     0.048 A 
HETATM   21  C   UNL     1     -40.765  54.231 -51.291  1.00  0.00     0.039 A 
HETATM   22  C   UNL     1     -39.951  53.090 -51.203  1.00  0.00     0.057 A 
HETATM   23  C   UNL     1     -39.926  52.241 -52.286  1.00  0.00     0.106 A 
HETATM   24  C   UNL     1     -40.659  52.492 -53.420  1.00  0.00     0.107 A 
HETATM   25  O   UNL     1     -39.210  51.089 -52.375  1.00  0.00    -0.323 OA
HETATM   26  C   UNL     1     -41.462  53.607 -53.539  1.00  0.00     0.070 A 
HETATM   27  O   UNL     1     -40.497  51.528 -54.365  1.00  0.00    -0.323 OA
HETATM   28  C   UNL     1     -39.572  50.644 -53.700  1.00  0.00     0.352 A 
BRANCH  21  29
HETATM   29  C   UNL     1     -40.807  55.180 -50.148  1.00  0.00     0.158 C 
HETATM   30  C   UNL     1     -40.978  54.622 -48.759  1.00  0.00     0.097 C 
HETATM   31  O   UNL     1     -40.706  56.389 -50.361  1.00  0.00    -0.293 OA
ENDBRANCH  21  29
ENDBRANCH  18  20
ENDBRANCH   1  18
TORSDOF 5
ENDMDL
MODEL 2
REMARK VINA RESULT:      -8.6      4.863      9.365
REMARK  5 active torsions:
REMARK  status: ('A' for Active; 'I' for Inactive)
REMARK    1  A    between atoms: C_2  and  C_3 
REMARK    2  A    between atoms: C_4  and  N_5 
REMARK    3  A    between atoms: N_5  and  C_6 
REMARK    4  A    between atoms: C_7  and  C_8 
REMARK    5  A    between atoms: C_11  and  C_12 
ROOT
HETATM    1  C   UNL     1     -43.229  56.052 -57.235  1.00  0.00     0.113 C 
HETATM    2  C   UNL     1     -43.361  56.594 -56.009  1.00  0.00     0.082 C 
HETATM    3  C   UNL     1     -44.423  57.651 -55.755  1.00  0.00     0.024 C 
HETATM    4  N   UNL     1     -45.305  58.529 -55.544  1.00  0.00    -0.096 N 
ENDROOT
BRANCH   2   5
HETATM    5  C   UNL     1     -42.463  56.247 -54.966  1.00  0.00     0.119 A 
HETATM    6  S   UNL     1     -41.697  57.489 -54.035  1.00  0.00    -0.078 SA
HETATM    7  C   UNL     1     -40.881  56.298 -53.114  1.00  0.00     0.084 A 
HETATM    8  C   UNL     1     -41.226  55.037 -53.556  1.00  0.00     0.075 A 
HETATM    9  N   UNL     1     -42.133  55.023 -54.604  1.00  0.00    -0.239 NA
BRANCH   8  10
HETATM   10  C   UNL     1     -40.726  53.789 -52.985  1.00  0.00    -0.005 A 
HETATM   11  C   UNL     1     -40.448  52.709 -53.838  1.00  0.00     0.039 A 
HETATM   12  C   UNL     1     -39.967  51.498 -53.329  1.00  0.00     0.056 A 
HETATM   13 CL   UNL     1     -39.660  50.219 -54.451  1.00  0.00    -0.083 Cl
HETATM   14  C   UNL     1     -39.752  51.355 -51.956  1.00  0.00     0.055 A 
HETATM   15 CL   UNL     1     -39.159  49.893 -51.254  1.00  0.00    -0.083 Cl
HETATM   16  C   UNL     1     -40.018  52.426 -51.100  1.00  0.00     0.026 A 
HETATM   17  C   UNL     1     -40.502  53.636 -51.611  1.00  0.00     0.015 A 
ENDBRANCH   8  10
ENDBRANCH   2   5
BRANCH   1  18
HETATM   18  N   UNL     1     -43.996  56.271 -58.356  1.00  0.00    -0.364 N 
HETATM   19  H   UNL     1     -44.873  55.742 -58.441  1.00  0.00     0.165 HD
BRANCH  18  20
HETATM   20  C   UNL     1     -43.972  57.404 -59.206  1.00  0.00     0.048 A 
HETATM   21  C   UNL     1     -45.188  57.912 -59.749  1.00  0.00     0.039 A 
HETATM   22  C   UNL     1     -45.195  59.001 -60.635  1.00  0.00     0.057 A 
HETATM   23  C   UNL     1     -43.982  59.556 -60.970  1.00  0.00     0.106 A 
HETATM   24  C   UNL     1     -42.799  59.069 -60.470  1.00  0.00     0.107 A 
HETATM   25  O   UNL     1     -43.796  60.616 -61.801  1.00  0.00    -0.323 OA
HETATM   26  C   UNL     1     -42.760  57.998 -59.603  1.00  0.00     0.070 A 
HETATM   27  O   UNL     1     -41.720  59.763 -60.921  1.00  0.00    -0.323 OA
HETATM   28  C   UNL     1     -42.358  60.740 -61.770  1.00  0.00     0.352 A 
BRANCH  21  29
HETATM   29  C   UNL     1     -46.478  57.276 -59.374  1.00  0.00     0.158 C 
HETATM   30  C   UNL     1     -47.113  56.316 -60.345  1.00  0.00     0.097 C 
HETATM   31  O   UNL     1     -46.994  57.548 -58.289  1.00  0.00    -0.293 OA
ENDBRANCH  21  29
ENDBRANCH  18  20
ENDBRANCH   1  18
TORSDOF 5
ENDMDL
MODEL 3
REMARK VINA RESULT:      -8.4      4.233      8.537
REMARK  5 active torsions:
REMARK  status: ('A' for Active; 'I' for Inactive)
REMARK    1  A    between atoms: C_2  and  C_3 
REMARK    2  A    between atoms: C_4  and  N_5 
REMARK    3  A    between atoms: N_5  and  C_6 
REMARK    4  A    between atoms: C_7  and  C_8 
REMARK    5  A    between atoms: C_11  and  C_12 
ROOT
HETATM    1  C   UNL     1     -42.308  57.370 -55.516  1.00  0.00     0.113 C 
HETATM    2  C   UNL     1     -42.190  57.940 -54.301  1.00  0.00     0.082 C 
HETATM    3  C   UNL     1     -42.275  59.450 -54.157  1.00  0.00     0.024 C 
HETATM    4  N   UNL     1     -42.346  60.704 -54.037  1.00  0.00    -0.096 N 
ENDROOT
BRANCH   2   5
HETATM    5  C   UNL     1     -41.906  57.148 -53.158  1.00  0.00     0.119 A 
HETATM    6  S   UNL     1     -42.125  57.808 -51.572  1.00  0.00    -0.078 SA
HETATM    7  C   UNL     1     -41.602  56.329 -50.883  1.00  0.00     0.084 A 
HETATM    8  C   UNL     1     -41.291  55.425 -51.878  1.00  0.00     0.075 A 
HETATM    9  N   UNL     1     -41.476  55.901 -53.167  1.00  0.00    -0.239 NA
BRANCH   8  10
HETATM   10  C   UNL     1     -40.826  54.060 -51.647  1.00  0.00    -0.005 A 
HETATM   11  C   UNL     1     -40.409  53.285 -52.740  1.00  0.00     0.039 A 
HETATM   12  C   UNL     1     -39.955  51.974 -52.559  1.00  0.00     0.056 A 
HETATM   13 CL   UNL     1     -39.469  51.089 -53.963  1.00  0.00    -0.083 Cl
HETATM   14  C   UNL     1     -39.909  51.424 -51.275  1.00  0.00     0.055 A 
HETATM   15 CL   UNL     1     -39.360  49.814 -50.972  1.00  0.00    -0.083 Cl
HETATM   16  C   UNL     1     -40.314  52.190 -50.180  1.00  0.00     0.026 A 
HETATM   17  C   UNL     1     -40.770  53.500 -50.364  1.00  0.00     0.015 A 
ENDBRANCH   8  10
ENDBRANCH   2   5
BRANCH   1  18
HETATM   18  N   UNL     1     -42.574  57.975 -56.723  1.00  0.00    -0.364 N 
HETATM   19  H   UNL     1     -41.872  58.630 -57.090  1.00  0.00     0.165 HD
BRANCH  18  20
HETATM   20  C   UNL     1     -43.466  57.528 -57.730  1.00  0.00     0.048 A 
HETATM   21  C   UNL     1     -44.781  58.072 -57.808  1.00  0.00     0.039 A 
HETATM   22  C   UNL     1     -45.706  57.614 -58.760  1.00  0.00     0.057 A 
HETATM   23  C   UNL     1     -45.300  56.612 -59.611  1.00  0.00     0.106 A 
HETATM   24  C   UNL     1     -44.043  56.064 -59.538  1.00  0.00     0.107 A 
HETATM   25  O   UNL     1     -46.052  56.054 -60.597  1.00  0.00    -0.323 OA
HETATM   26  C   UNL     1     -43.115  56.489 -58.611  1.00  0.00     0.070 A 
HETATM   27  O   UNL     1     -43.844  55.096 -60.472  1.00  0.00    -0.323 OA
HETATM   28  C   UNL     1     -45.124  55.089 -61.136  1.00  0.00     0.352 A 
BRANCH  21  29
HETATM   29  C   UNL     1     -45.186  59.144 -56.862  1.00  0.00     0.158 C 
HETATM   30  C   UNL     1     -45.250  60.561 -57.368  1.00  0.00     0.097 C 
HETATM   31  O   UNL     1     -45.456  58.852 -55.696  1.00  0.00    -0.293 OA
ENDBRANCH  21  29
ENDBRANCH  18  20
ENDBRANCH   1  18
TORSDOF 5
ENDMDL
MODEL 4
REMARK VINA RESULT:      -8.4      4.594      9.234
REMARK  5 active torsions:
REMARK  status: ('A' for Active; 'I' for Inactive)
REMARK    1  A    between atoms: C_2  and  C_3 
REMARK    2  A    between atoms: C_4  and  N_5 
REMARK    3  A    between atoms: N_5  and  C_6 
REMARK    4  A    between atoms: C_7  and  C_8 
REMARK    5  A    between atoms: C_11  and  C_12 
ROOT
HETATM    1  C   UNL     1     -42.685  56.871 -56.055  1.00  0.00     0.113 C 
HETATM    2  C   UNL     1     -43.109  57.164 -54.810  1.00  0.00     0.082 C 
HETATM    3  C   UNL     1     -44.239  58.161 -54.605  1.00  0.00     0.024 C 
HETATM    4  N   UNL     1     -45.176  58.988 -54.435  1.00  0.00    -0.096 N 
ENDROOT
BRANCH   2   5
HETATM    5  C   UNL     1     -42.457  56.612 -53.677  1.00  0.00     0.119 A 
HETATM    6  S   UNL     1     -42.157  57.596 -52.285  1.00  0.00    -0.078 SA
HETATM    7  C   UNL     1     -41.417  56.266 -51.500  1.00  0.00     0.084 A 
HETATM    8  C   UNL     1     -41.434  55.159 -52.324  1.00  0.00     0.075 A 
HETATM    9  N   UNL     1     -42.035  55.368 -53.556  1.00  0.00    -0.239 NA
BRANCH   8  10
HETATM   10  C   UNL     1     -40.899  53.848 -51.969  1.00  0.00    -0.005 A 
HETATM   11  C   UNL     1     -40.444  52.995 -52.986  1.00  0.00     0.039 A 
HETATM   12  C   UNL     1     -39.924  51.732 -52.686  1.00  0.00     0.056 A 
HETATM   13 CL   UNL     1     -39.394  50.744 -54.002  1.00  0.00    -0.083 Cl
HETATM   14  C   UNL     1     -39.847  51.308 -51.356  1.00  0.00     0.055 A 
HETATM   15 CL   UNL     1     -39.216  49.765 -50.906  1.00  0.00    -0.083 Cl
HETATM   16  C   UNL     1     -40.290  52.153 -50.335  1.00  0.00     0.026 A 
HETATM   17  C   UNL     1     -40.812  53.415 -50.640  1.00  0.00     0.015 A 
ENDBRANCH   8  10
ENDBRANCH   2   5
BRANCH   1  18
HETATM   18  N   UNL     1     -43.188  57.313 -57.256  1.00  0.00    -0.364 N 
HETATM   19  H   UNL     1     -44.155  57.053 -57.490  1.00  0.00     0.165 HD
BRANCH  18  20
HETATM   20  C   UNL     1     -42.727  58.405 -58.032  1.00  0.00     0.048 A 
HETATM   21  C   UNL     1     -42.957  58.426 -59.439  1.00  0.00     0.039 A 
HETATM   22  C   UNL     1     -42.469  59.467 -60.244  1.00  0.00     0.057 A 
HETATM   23  C   UNL     1     -41.749  60.465 -59.627  1.00  0.00     0.106 A 
HETATM   24  C   UNL     1     -41.503  60.451 -58.276  1.00  0.00     0.107 A 
HETATM   25  O   UNL     1     -41.211  61.552 -60.242  1.00  0.00    -0.323 OA
HETATM   26  C   UNL     1     -41.965  59.440 -57.460  1.00  0.00     0.070 A 
HETATM   27  O   UNL     1     -40.782  61.530 -57.870  1.00  0.00    -0.323 OA
HETATM   28  C   UNL     1     -40.594  62.222 -59.122  1.00  0.00     0.352 A 
BRANCH  21  29
HETATM   29  C   UNL     1     -43.727  57.323 -60.071  1.00  0.00     0.158 C 
HETATM   30  C   UNL     1     -45.216  57.484 -60.224  1.00  0.00     0.097 C 
HETATM   31  O   UNL     1     -43.135  56.311 -60.448  1.00  0.00    -0.293 OA
ENDBRANCH  21  29
ENDBRANCH  18  20
ENDBRANCH   1  18
TORSDOF 5
ENDMDL
MODEL 5
REMARK VINA RESULT:      -7.7      4.561      8.673
REMARK  5 active torsions:
REMARK  status: ('A' for Active; 'I' for Inactive)
REMARK    1  A    between atoms: C_2  and  C_3 
REMARK    2  A    between atoms: C_4  and  N_5 
REMARK    3  A    between atoms: N_5  and  C_6 
REMARK    4  A    between atoms: C_7  and  C_8 
REMARK    5  A    between atoms: C_11  and  C_12 
ROOT
HETATM    1  C   UNL     1     -43.374  58.090 -54.182  1.00  0.00     0.113 C 
HETATM    2  C   UNL     1     -43.045  58.058 -52.876  1.00  0.00     0.082 C 
HETATM    3  C   UNL     1     -43.422  59.217 -51.967  1.00  0.00     0.024 C 
HETATM    4  N   UNL     1     -43.735  60.179 -51.213  1.00  0.00    -0.096 N 
ENDROOT
BRANCH   2   5
HETATM    5  C   UNL     1     -42.277  56.986 -52.351  1.00  0.00     0.119 A 
HETATM    6  S   UNL     1     -41.699  57.053 -50.721  1.00  0.00    -0.078 SA
HETATM    7  C   UNL     1     -40.955  55.523 -50.920  1.00  0.00     0.084 A 
HETATM    8  C   UNL     1     -41.179  55.048 -52.196  1.00  0.00     0.075 A 
HETATM    9  N   UNL     1     -41.939  55.887 -52.997  1.00  0.00    -0.239 NA
BRANCH   8  10
HETATM   10  C   UNL     1     -40.700  53.766 -52.704  1.00  0.00    -0.005 A 
HETATM   11  C   UNL     1     -40.328  52.764 -51.794  1.00  0.00     0.039 A 
HETATM   12  C   UNL     1     -39.866  51.522 -52.241  1.00  0.00     0.056 A 
HETATM   13 CL   UNL     1     -39.422  50.351 -51.050  1.00  0.00    -0.083 Cl
HETATM   14  C   UNL     1     -39.776  51.265 -53.612  1.00  0.00     0.055 A 
HETATM   15 CL   UNL     1     -39.217  49.757 -54.241  1.00  0.00    -0.083 Cl
HETATM   16  C   UNL     1     -40.151  52.252 -54.526  1.00  0.00     0.026 A 
HETATM   17  C   UNL     1     -40.611  53.495 -54.075  1.00  0.00     0.015 A 
ENDBRANCH   8  10
ENDBRANCH   2   5
BRANCH   1  18
HETATM   18  N   UNL     1     -44.102  59.040 -54.859  1.00  0.00    -0.364 N 
HETATM   19  H   UNL     1     -44.126  59.989 -54.464  1.00  0.00     0.165 HD
BRANCH  18  20
HETATM   20  C   UNL     1     -44.484  59.020 -56.223  1.00  0.00     0.048 A 
HETATM   21  C   UNL     1     -43.845  59.892 -57.153  1.00  0.00     0.039 A 
HETATM   22  C   UNL     1     -44.234  59.935 -58.501  1.00  0.00     0.057 A 
HETATM   23  C   UNL     1     -45.264  59.111 -58.893  1.00  0.00     0.106 A 
HETATM   24  C   UNL     1     -45.902  58.277 -58.007  1.00  0.00     0.107 A 
HETATM   25  O   UNL     1     -45.766  59.010 -60.152  1.00  0.00    -0.323 OA
HETATM   26  C   UNL     1     -45.546  58.217 -56.676  1.00  0.00     0.070 A 
HETATM   27  O   UNL     1     -46.883  57.545 -58.598  1.00  0.00    -0.323 OA
HETATM   28  C   UNL     1     -46.796  58.018 -59.958  1.00  0.00     0.352 A 
BRANCH  21  29
HETATM   29  C   UNL     1     -42.746  60.779 -56.688  1.00  0.00     0.158 C 
HETATM   30  C   UNL     1     -43.013  62.257 -56.582  1.00  0.00     0.097 C 
HETATM   31  O   UNL     1     -41.652  60.289 -56.406  1.00  0.00    -0.293 OA
ENDBRANCH  21  29
ENDBRANCH  18  20
ENDBRANCH   1  18
TORSDOF 5
ENDMDL
MODEL 6
REMARK VINA RESULT:      -7.5      1.685      3.125
REMARK  5 active torsions:
REMARK  status: ('A' for Active; 'I' for Inactive)
REMARK    1  A    between atoms: C_2  and  C_3 
REMARK    2  A    between atoms: C_4  and  N_5 
REMARK    3  A    between atoms: N_5  and  C_6 
REMARK    4  A    between atoms: C_7  and  C_8 
REMARK    5  A    between atoms: C_11  and  C_12 
ROOT
HETATM    1  C   UNL     1     -43.568  55.041 -54.436  1.00  0.00     0.113 C 
HETATM    2  C   UNL     1     -43.080  56.288 -54.590  1.00  0.00     0.082 C 
HETATM    3  C   UNL     1     -41.675  56.619 -54.114  1.00  0.00     0.024 C 
HETATM    4  N   UNL     1     -40.509  56.895 -53.719  1.00  0.00    -0.096 N 
ENDROOT
BRANCH   2   5
HETATM    5  C   UNL     1     -43.896  57.321 -55.121  1.00  0.00     0.119 A 
HETATM    6  S   UNL     1     -44.088  58.805 -54.251  1.00  0.00    -0.078 SA
HETATM    7  C   UNL     1     -45.116  59.399 -55.485  1.00  0.00     0.084 A 
HETATM    8  C   UNL     1     -45.260  58.452 -56.479  1.00  0.00     0.075 A 
HETATM    9  N   UNL     1     -44.554  57.278 -56.263  1.00  0.00    -0.239 NA
BRANCH   8  10
HETATM   10  C   UNL     1     -46.057  58.630 -57.690  1.00  0.00    -0.005 A 
HETATM   11  C   UNL     1     -46.123  57.587 -58.626  1.00  0.00     0.039 A 
HETATM   12  C   UNL     1     -46.877  57.719 -59.797  1.00  0.00     0.056 A 
HETATM   13 CL   UNL     1     -46.894  56.386 -60.898  1.00  0.00    -0.083 Cl
HETATM   14  C   UNL     1     -47.581  58.901 -60.042  1.00  0.00     0.055 A 
HETATM   15 CL   UNL     1     -48.534  59.138 -61.463  1.00  0.00    -0.083 Cl
HETATM   16  C   UNL     1     -47.529  59.942 -59.113  1.00  0.00     0.026 A 
HETATM   17  C   UNL     1     -46.772  59.808 -57.943  1.00  0.00     0.015 A 
ENDBRANCH   8  10
ENDBRANCH   2   5
BRANCH   1  18
HETATM   18  N   UNL     1     -42.931  53.927 -53.940  1.00  0.00    -0.364 N 
HETATM   19  H   UNL     1     -42.762  53.149 -54.591  1.00  0.00     0.165 HD
BRANCH  18  20
HETATM   20  C   UNL     1     -42.111  53.848 -52.788  1.00  0.00     0.048 A 
HETATM   21  C   UNL     1     -40.827  53.234 -52.870  1.00  0.00     0.039 A 
HETATM   22  C   UNL     1     -40.010  53.092 -51.737  1.00  0.00     0.057 A 
HETATM   23  C   UNL     1     -40.499  53.559 -50.538  1.00  0.00     0.106 A 
HETATM   24  C   UNL     1     -41.740  54.138 -50.438  1.00  0.00     0.107 A 
HETATM   25  O   UNL     1     -39.848  53.517 -49.345  1.00  0.00    -0.323 OA
HETATM   26  C   UNL     1     -42.567  54.286 -51.532  1.00  0.00     0.070 A 
HETATM   27  O   UNL     1     -42.026  54.536 -49.169  1.00  0.00    -0.323 OA
HETATM   28  C   UNL     1     -40.825  54.134 -48.479  1.00  0.00     0.352 A 
BRANCH  21  29
HETATM   29  C   UNL     1     -40.340  52.729 -54.181  1.00  0.00     0.158 C 
HETATM   30  C   UNL     1     -40.119  51.248 -54.341  1.00  0.00     0.097 C 
HETATM   31  O   UNL     1     -40.129  53.526 -55.096  1.00  0.00    -0.293 OA
ENDBRANCH  21  29
ENDBRANCH  18  20
ENDBRANCH   1  18
TORSDOF 5
ENDMDL
MODEL 7
REMARK VINA RESULT:      -7.4      2.153      2.512
REMARK  5 active torsions:
REMARK  status: ('A' for Active; 'I' for Inactive)
REMARK    1  A    between atoms: C_2  and  C_3 
REMARK    2  A    between atoms: C_4  and  N_5 
REMARK    3  A    between atoms: N_5  and  C_6 
REMARK    4  A    between atoms: C_7  and  C_8 
REMARK    5  A    between atoms: C_11  and  C_12 
ROOT
HETATM    1  C   UNL     1     -41.834  55.750 -54.928  1.00  0.00     0.113 C 
HETATM    2  C   UNL     1     -42.946  56.502 -55.041  1.00  0.00     0.082 C 
HETATM    3  C   UNL     1     -43.658  57.001 -53.794  1.00  0.00     0.024 C 
HETATM    4  N   UNL     1     -44.248  57.414 -52.758  1.00  0.00    -0.096 N 
ENDROOT
BRANCH   2   5
HETATM    5  C   UNL     1     -43.510  56.770 -56.316  1.00  0.00     0.119 A 
HETATM    6  S   UNL     1     -42.965  55.891 -57.704  1.00  0.00    -0.078 SA
HETATM    7  C   UNL     1     -44.058  56.767 -58.690  1.00  0.00     0.084 A 
HETATM    8  C   UNL     1     -44.769  57.670 -57.925  1.00  0.00     0.075 A 
HETATM    9  N   UNL     1     -44.452  57.655 -56.575  1.00  0.00    -0.239 NA
BRANCH   8  10
HETATM   10  C   UNL     1     -45.797  58.570 -58.440  1.00  0.00    -0.005 A 
HETATM   11  C   UNL     1     -45.627  59.151 -59.706  1.00  0.00     0.039 A 
HETATM   12  C   UNL     1     -46.591  60.017 -60.234  1.00  0.00     0.056 A 
HETATM   13 CL   UNL     1     -46.295  60.693 -61.798  1.00  0.00    -0.083 Cl
HETATM   14  C   UNL     1     -47.743  60.309 -59.499  1.00  0.00     0.055 A 
HETATM   15 CL   UNL     1     -48.976  61.367 -60.083  1.00  0.00    -0.083 Cl
HETATM   16  C   UNL     1     -47.925  59.730 -58.241  1.00  0.00     0.026 A 
HETATM   17  C   UNL     1     -46.958  58.865 -57.715  1.00  0.00     0.015 A 
ENDBRANCH   8  10
ENDBRANCH   2   5
BRANCH   1  18
HETATM   18  N   UNL     1     -41.157  55.388 -53.787  1.00  0.00    -0.364 N 
HETATM   19  H   UNL     1     -41.178  56.044 -52.996  1.00  0.00     0.165 HD
BRANCH  18  20
HETATM   20  C   UNL     1     -40.782  54.081 -53.388  1.00  0.00     0.048 A 
HETATM   21  C   UNL     1     -40.598  53.785 -52.005  1.00  0.00     0.039 A 
HETATM   22  C   UNL     1     -40.177  52.515 -51.579  1.00  0.00     0.057 A 
HETATM   23  C   UNL     1     -39.938  51.566 -52.547  1.00  0.00     0.106 A 
HETATM   24  C   UNL     1     -40.094  51.840 -53.884  1.00  0.00     0.107 A 
HETATM   25  O   UNL     1     -39.537  50.287 -52.322  1.00  0.00    -0.323 OA
HETATM   26  C   UNL     1     -40.501  53.078 -54.333  1.00  0.00     0.070 A 
HETATM   27  O   UNL     1     -39.814  50.765 -54.669  1.00  0.00    -0.323 OA
HETATM   28  C   UNL     1     -39.455  49.785 -53.673  1.00  0.00     0.352 A 
BRANCH  21  29
HETATM   29  C   UNL     1     -40.852  54.842 -50.991  1.00  0.00     0.158 C 
HETATM   30  C   UNL     1     -40.034  54.834 -49.727  1.00  0.00     0.097 C 
HETATM   31  O   UNL     1     -41.719  55.690 -51.205  1.00  0.00    -0.293 OA
ENDBRANCH  21  29
ENDBRANCH  18  20
ENDBRANCH   1  18
TORSDOF 5
ENDMDL
MODEL 8
REMARK VINA RESULT:      -7.4     17.301     21.441
REMARK  5 active torsions:
REMARK  status: ('A' for Active; 'I' for Inactive)
REMARK    1  A    between atoms: C_2  and  C_3 
REMARK    2  A    between atoms: C_4  and  N_5 
REMARK    3  A    between atoms: N_5  and  C_6 
REMARK    4  A    between atoms: C_7  and  C_8 
REMARK    5  A    between atoms: C_11  and  C_12 
ROOT
HETATM    1  C   UNL     1     -32.546  40.345 -52.563  1.00  0.00     0.113 C 
HETATM    2  C   UNL     1     -32.184  39.172 -52.008  1.00  0.00     0.082 C 
HETATM    3  C   UNL     1     -31.648  38.049 -52.882  1.00  0.00     0.024 C 
HETATM    4  N   UNL     1     -31.204  37.118 -53.607  1.00  0.00    -0.096 N 
ENDROOT
BRANCH   2   5
HETATM    5  C   UNL     1     -32.372  38.942 -50.621  1.00  0.00     0.119 A 
HETATM    6  S   UNL     1     -33.741  38.035 -50.072  1.00  0.00    -0.078 SA
HETATM    7  C   UNL     1     -33.225  38.233 -48.450  1.00  0.00     0.084 A 
HETATM    8  C   UNL     1     -32.058  38.969 -48.410  1.00  0.00     0.075 A 
HETATM    9  N   UNL     1     -31.580  39.359 -49.652  1.00  0.00    -0.239 NA
BRANCH   8  10
HETATM   10  C   UNL     1     -31.334  39.315 -47.191  1.00  0.00    -0.005 A 
HETATM   11  C   UNL     1     -31.495  38.517 -46.048  1.00  0.00     0.039 A 
HETATM   12  C   UNL     1     -30.817  38.815 -44.861  1.00  0.00     0.056 A 
HETATM   13 CL   UNL     1     -31.082  37.782 -43.500  1.00  0.00    -0.083 Cl
HETATM   14  C   UNL     1     -29.960  39.918 -44.807  1.00  0.00     0.055 A 
HETATM   15 CL   UNL     1     -29.088  40.348 -43.380  1.00  0.00    -0.083 Cl
HETATM   16  C   UNL     1     -29.786  40.714 -45.941  1.00  0.00     0.026 A 
HETATM   17  C   UNL     1     -30.468  40.415 -47.126  1.00  0.00     0.015 A 
ENDBRANCH   8  10
ENDBRANCH   2   5
BRANCH   1  18
HETATM   18  N   UNL     1     -32.443  40.739 -53.877  1.00  0.00    -0.364 N 
HETATM   19  H   UNL     1     -31.518  40.668 -54.322  1.00  0.00     0.165 HD
BRANCH  18  20
HETATM   20  C   UNL     1     -33.487  40.837 -54.830  1.00  0.00     0.048 A 
HETATM   21  C   UNL     1     -33.284  40.362 -56.159  1.00  0.00     0.039 A 
HETATM   22  C   UNL     1     -34.279  40.491 -57.141  1.00  0.00     0.057 A 
HETATM   23  C   UNL     1     -35.457  41.104 -56.777  1.00  0.00     0.106 A 
HETATM   24  C   UNL     1     -35.662  41.582 -55.507  1.00  0.00     0.107 A 
HETATM   25  O   UNL     1     -36.530  41.306 -57.587  1.00  0.00    -0.323 OA
HETATM   26  C   UNL     1     -34.702  41.475 -54.522  1.00  0.00     0.070 A 
HETATM   27  O   UNL     1     -36.891  42.144 -55.356  1.00  0.00    -0.323 OA
HETATM   28  C   UNL     1     -37.435  41.971 -56.681  1.00  0.00     0.352 A 
BRANCH  21  29
HETATM   29  C   UNL     1     -31.993  39.719 -56.517  1.00  0.00     0.158 C 
HETATM   30  C   UNL     1     -32.026  38.393 -57.230  1.00  0.00     0.097 C 
HETATM   31  O   UNL     1     -30.936  40.278 -56.222  1.00  0.00    -0.293 OA
ENDBRANCH  21  29
ENDBRANCH  18  20
ENDBRANCH   1  18
TORSDOF 5
ENDMDL
MODEL 9
REMARK VINA RESULT:      -7.3      4.887      8.916
REMARK  5 active torsions:
REMARK  status: ('A' for Active; 'I' for Inactive)
REMARK    1  A    between atoms: C_2  and  C_3 
REMARK    2  A    between atoms: C_4  and  N_5 
REMARK    3  A    between atoms: N_5  and  C_6 
REMARK    4  A    between atoms: C_7  and  C_8 
REMARK    5  A    between atoms: C_11  and  C_12 
ROOT
HETATM    1  C   UNL     1     -42.728  59.061 -55.122  1.00  0.00     0.113 C 
HETATM    2  C   UNL     1     -42.668  59.042 -53.776  1.00  0.00     0.082 C 
HETATM    3  C   UNL     1     -43.100  60.261 -52.977  1.00  0.00     0.024 C 
HETATM    4  N   UNL     1     -43.459  61.273 -52.315  1.00  0.00    -0.096 N 
ENDROOT
BRANCH   2   5
HETATM    5  C   UNL     1     -42.128  57.921 -53.094  1.00  0.00     0.119 A 
HETATM    6  S   UNL     1     -41.871  57.990 -51.383  1.00  0.00    -0.078 SA
HETATM    7  C   UNL     1     -41.263  56.389 -51.407  1.00  0.00     0.084 A 
HETATM    8  C   UNL     1     -41.284  55.892 -52.694  1.00  0.00     0.075 A 
HETATM    9  N   UNL     1     -41.787  56.771 -53.642  1.00  0.00    -0.239 NA
BRANCH   8  10
HETATM   10  C   UNL     1     -40.850  54.552 -53.077  1.00  0.00    -0.005 A 
HETATM   11  C   UNL     1     -40.564  53.612 -52.075  1.00  0.00     0.039 A 
HETATM   12  C   UNL     1     -40.146  52.318 -52.402  1.00  0.00     0.056 A 
HETATM   13 CL   UNL     1     -39.807  51.229 -51.103  1.00  0.00    -0.083 Cl
HETATM   14  C   UNL     1     -40.016  51.945 -53.742  1.00  0.00     0.055 A 
HETATM   15 CL   UNL     1     -39.508  50.367 -54.224  1.00  0.00    -0.083 Cl
HETATM   16  C   UNL     1     -40.307  52.870 -54.748  1.00  0.00     0.026 A 
HETATM   17  C   UNL     1     -40.722  54.166 -54.417  1.00  0.00     0.015 A 
ENDBRANCH   8  10
ENDBRANCH   2   5
BRANCH   1  18
HETATM   18  N   UNL     1     -43.211  60.052 -55.944  1.00  0.00    -0.364 N 
HETATM   19  H   UNL     1     -43.790  60.785 -55.513  1.00  0.00     0.165 HD
BRANCH  18  20
HETATM   20  C   UNL     1     -42.699  60.449 -57.204  1.00  0.00     0.048 A 
HETATM   21  C   UNL     1     -43.039  59.709 -58.374  1.00  0.00     0.039 A 
HETATM   22  C   UNL     1     -42.508  60.043 -59.631  1.00  0.00     0.057 A 
HETATM   23  C   UNL     1     -41.638  61.107 -59.691  1.00  0.00     0.106 A 
HETATM   24  C   UNL     1     -41.286  61.820 -58.571  1.00  0.00     0.107 A 
HETATM   25  O   UNL     1     -41.037  61.579 -60.816  1.00  0.00    -0.323 OA
HETATM   26  C   UNL     1     -41.786  61.512 -57.323  1.00  0.00     0.070 A 
HETATM   27  O   UNL     1     -40.422  62.832 -58.850  1.00  0.00    -0.323 OA
HETATM   28  C   UNL     1     -40.263  62.671 -60.275  1.00  0.00     0.352 A 
BRANCH  21  29
HETATM   29  C   UNL     1     -43.972  58.557 -58.266  1.00  0.00     0.158 C 
HETATM   30  C   UNL     1     -43.433  57.172 -58.513  1.00  0.00     0.097 C 
HETATM   31  O   UNL     1     -45.153  58.759 -57.982  1.00  0.00    -0.293 OA
ENDBRANCH  21  29
ENDBRANCH  18  20
ENDBRANCH   1  18
TORSDOF 5
ENDMDL
MODEL 10
REMARK VINA RESULT:      -7.3      4.643      8.981
REMARK  5 active torsions:
REMARK  status: ('A' for Active; 'I' for Inactive)
REMARK    1  A    between atoms: C_2  and  C_3 
REMARK    2  A    between atoms: C_4  and  N_5 
REMARK    3  A    between atoms: N_5  and  C_6 
REMARK    4  A    between atoms: C_7  and  C_8 
REMARK    5  A    between atoms: C_11  and  C_12 
ROOT
HETATM    1  C   UNL     1     -43.961  57.902 -53.552  1.00  0.00     0.113 C 
HETATM    2  C   UNL     1     -43.324  57.957 -52.367  1.00  0.00     0.082 C 
HETATM    3  C   UNL     1     -43.476  59.180 -51.477  1.00  0.00     0.024 C 
HETATM    4  N   UNL     1     -43.603  60.195 -50.738  1.00  0.00    -0.096 N 
ENDROOT
BRANCH   2   5
HETATM    5  C   UNL     1     -42.443  56.917 -51.972  1.00  0.00     0.119 A 
HETATM    6  S   UNL     1     -41.652  56.989 -50.434  1.00  0.00    -0.078 SA
HETATM    7  C   UNL     1     -40.873  55.500 -50.761  1.00  0.00     0.084 A 
HETATM    8  C   UNL     1     -41.247  55.031 -52.004  1.00  0.00     0.075 A 
HETATM    9  N   UNL     1     -42.146  55.843 -52.679  1.00  0.00    -0.239 NA
BRANCH   8  10
HETATM   10  C   UNL     1     -40.783  53.780 -52.597  1.00  0.00    -0.005 A 
HETATM   11  C   UNL     1     -40.308  52.760 -51.759  1.00  0.00     0.039 A 
HETATM   12  C   UNL     1     -39.857  51.546 -52.289  1.00  0.00     0.056 A 
HETATM   13 CL   UNL     1     -39.280  50.349 -51.183  1.00  0.00    -0.083 Cl
HETATM   14  C   UNL     1     -39.882  51.337 -53.671  1.00  0.00     0.055 A 
HETATM   15 CL   UNL     1     -39.344  49.867 -54.399  1.00  0.00    -0.083 Cl
HETATM   16  C   UNL     1     -40.361  52.343 -54.513  1.00  0.00     0.026 A 
HETATM   17  C   UNL     1     -40.809  53.557 -53.980  1.00  0.00     0.015 A 
ENDBRANCH   8  10
ENDBRANCH   2   5
BRANCH   1  18
HETATM   18  N   UNL     1     -44.839  58.810 -54.096  1.00  0.00    -0.364 N 
HETATM   19  H   UNL     1     -45.744  58.935 -53.624  1.00  0.00     0.165 HD
BRANCH  18  20
HETATM   20  C   UNL     1     -44.532  59.892 -54.958  1.00  0.00     0.048 A 
HETATM   21  C   UNL     1     -44.636  59.727 -56.370  1.00  0.00     0.039 A 
HETATM   22  C   UNL     1     -44.290  60.762 -57.255  1.00  0.00     0.057 A 
HETATM   23  C   UNL     1     -43.836  61.941 -56.708  1.00  0.00     0.106 A 
HETATM   24  C   UNL     1     -43.714  62.110 -55.351  1.00  0.00     0.107 A 
HETATM   25  O   UNL     1     -43.468  63.049 -57.404  1.00  0.00    -0.323 OA
HETATM   26  C   UNL     1     -44.041  61.111 -54.458  1.00  0.00     0.070 A 
HETATM   27  O   UNL     1     -43.256  63.348 -55.022  1.00  0.00    -0.323 OA
HETATM   28  C   UNL     1     -43.096  63.937 -56.329  1.00  0.00     0.352 A 
BRANCH  21  29
HETATM   29  C   UNL     1     -45.116  58.434 -56.923  1.00  0.00     0.158 C 
HETATM   30  C   UNL     1     -46.554  58.331 -57.361  1.00  0.00     0.097 C 
HETATM   31  O   UNL     1     -44.336  57.485 -57.007  1.00  0.00    -0.293 OA
ENDBRANCH  21  29
ENDBRANCH  18  20
ENDBRANCH   1  18
TORSDOF 5
ENDMDL
