MODEL 1
REMARK VINA RESULT:      -8.6      0.000      0.000
REMARK  6 active torsions:
REMARK  status: ('A' for Active; 'I' for Inactive)
REMARK    1  A    between atoms: C_2  and  O_3 
REMARK    2  A    between atoms: O_3  and  C_4 
REMARK    3  A    between atoms: C_5  and  N_6 
REMARK    4  A    between atoms: N_6  and  C_7 
REMARK    5  A    between atoms: C_8  and  C_9 
REMARK    6  A    between atoms: C_12  and  C_13 
ROOT
HETATM    1  C   UNL     1     -45.085  58.225 -52.647  1.00  0.00     0.087 C 
HETATM    2  C   UNL     1     -44.288  58.670 -51.660  1.00  0.00     0.077 C 
HETATM    3  C   UNL     1     -44.669  59.896 -50.847  1.00  0.00     0.023 C 
HETATM    4  N   UNL     1     -44.986  60.914 -50.173  1.00  0.00    -0.096 N 
ENDROOT
BRANCH   2   5
HETATM    5  C   UNL     1     -43.043  58.017 -51.360  1.00  0.00     0.118 A 
HETATM    6  S   UNL     1     -41.649  58.972 -50.931  1.00  0.00    -0.078 SA
HETATM    7  C   UNL     1     -40.728  57.556 -50.705  1.00  0.00     0.084 A 
HETATM    8  C   UNL     1     -41.492  56.442 -50.971  1.00  0.00     0.081 A 
HETATM    9  N   UNL     1     -42.814  56.713 -51.314  1.00  0.00    -0.239 NA
BRANCH   8  10
HETATM   10  C   UNL     1     -41.062  55.070 -50.876  1.00  0.00     0.070 A 
HETATM   11  C   UNL     1     -40.882  54.440 -49.525  1.00  0.00     0.301 A 
HETATM   12  O   UNL     1     -41.035  55.056 -48.473  1.00  0.00    -0.259 OA
HETATM   13  O   UNL     1     -40.529  53.094 -49.486  1.00  0.00    -0.274 OA
HETATM   14  C   UNL     1     -40.281  52.355 -50.651  1.00  0.00     0.089 A 
HETATM   15  C   UNL     1     -40.402  52.947 -51.900  1.00  0.00     0.000 A 
HETATM   16  C   UNL     1     -39.909  51.020 -50.501  1.00  0.00     0.039 A 
HETATM   17  C   UNL     1     -40.139  52.183 -53.040  1.00  0.00     0.033 A 
HETATM   18  C   UNL     1     -40.810  54.338 -51.977  1.00  0.00     0.034 A 
HETATM   19  C   UNL     1     -39.764  50.845 -52.901  1.00  0.00     0.012 A 
HETATM   20  C   UNL     1     -39.650  50.259 -51.638  1.00  0.00     0.022 A 
HETATM   21 BR   UNL     1     -39.409  49.811 -54.444  1.00  0.00    -0.051 Br
ENDBRANCH   8  10
ENDBRANCH   2   5
BRANCH   1  22
HETATM   22  N   UNL     1     -44.834  57.244 -53.591  1.00  0.00    -0.266 NA
HETATM   23  H   UNL     1     -45.502  56.465 -53.529  1.00  0.00     0.133 HD
BRANCH  22  24
HETATM   24  C   UNL     1     -44.634  57.489 -54.979  1.00  0.00     0.045 A 
HETATM   25  C   UNL     1     -43.454  57.013 -55.594  1.00  0.00     0.090 A 
HETATM   26  C   UNL     1     -43.265  57.169 -56.972  1.00  0.00     0.038 A 
HETATM   27  C   UNL     1     -44.226  57.823 -57.741  1.00  0.00     0.003 A 
HETATM   28  C   UNL     1     -45.377  58.326 -57.138  1.00  0.00     0.002 A 
HETATM   29  C   UNL     1     -45.577  58.168 -55.765  1.00  0.00     0.026 A 
BRANCH  25  30
HETATM   30  O   UNL     1     -42.552  56.360 -54.784  1.00  0.00    -0.350 OA
BRANCH  30  31
HETATM   31  C   UNL     1     -41.933  55.216 -55.379  1.00  0.00     0.171 C 
HETATM   32  C   UNL     1     -42.796  53.999 -55.094  1.00  0.00     0.034 C 
ENDBRANCH  30  31
ENDBRANCH  25  30
ENDBRANCH  22  24
ENDBRANCH   1  22
TORSDOF 6
ENDMDL
MODEL 2
REMARK VINA RESULT:      -8.5      2.408      3.120
REMARK  6 active torsions:
REMARK  status: ('A' for Active; 'I' for Inactive)
REMARK    1  A    between atoms: C_2  and  O_3 
REMARK    2  A    between atoms: O_3  and  C_4 
REMARK    3  A    between atoms: C_5  and  N_6 
REMARK    4  A    between atoms: N_6  and  C_7 
REMARK    5  A    between atoms: C_8  and  C_9 
REMARK    6  A    between atoms: C_12  and  C_13 
ROOT
HETATM    1  C   UNL     1     -45.154  58.268 -56.023  1.00  0.00     0.087 C 
HETATM    2  C   UNL     1     -44.624  58.880 -54.950  1.00  0.00     0.077 C 
HETATM    3  C   UNL     1     -45.321  60.070 -54.312  1.00  0.00     0.023 C 
HETATM    4  N   UNL     1     -45.900  61.057 -53.782  1.00  0.00    -0.096 N 
ENDROOT
BRANCH   2   5
HETATM    5  C   UNL     1     -43.373  58.446 -54.390  1.00  0.00     0.118 A 
HETATM    6  S   UNL     1     -42.056  59.577 -54.238  1.00  0.00    -0.078 SA
HETATM    7  C   UNL     1     -41.088  58.379 -53.508  1.00  0.00     0.084 A 
HETATM    8  C   UNL     1     -41.781  57.192 -53.424  1.00  0.00     0.081 A 
HETATM    9  N   UNL     1     -43.088  57.248 -53.901  1.00  0.00    -0.239 NA
BRANCH   8  10
HETATM   10  C   UNL     1     -41.297  55.960 -52.855  1.00  0.00     0.070 A 
HETATM   11  C   UNL     1     -41.082  55.860 -51.373  1.00  0.00     0.301 A 
HETATM   12  O   UNL     1     -41.253  56.804 -50.606  1.00  0.00    -0.259 OA
HETATM   13  O   UNL     1     -40.676  54.629 -50.865  1.00  0.00    -0.274 OA
HETATM   14  C   UNL     1     -40.407  53.532 -51.696  1.00  0.00     0.089 A 
HETATM   15  C   UNL     1     -40.559  53.636 -53.072  1.00  0.00     0.000 A 
HETATM   16  C   UNL     1     -39.981  52.352 -51.089  1.00  0.00     0.039 A 
HETATM   17  C   UNL     1     -40.274  52.526 -53.870  1.00  0.00     0.033 A 
HETATM   18  C   UNL     1     -41.023  54.894 -53.630  1.00  0.00     0.034 A 
HETATM   19  C   UNL     1     -39.846  51.339 -53.272  1.00  0.00     0.012 A 
HETATM   20  C   UNL     1     -39.700  51.245 -51.886  1.00  0.00     0.022 A 
HETATM   21 BR   UNL     1     -39.460  49.836 -54.354  1.00  0.00    -0.051 Br
ENDBRANCH   8  10
ENDBRANCH   2   5
BRANCH   1  22
HETATM   22  N   UNL     1     -44.595  57.294 -56.832  1.00  0.00    -0.266 NA
HETATM   23  H   UNL     1     -45.284  56.589 -57.126  1.00  0.00     0.133 HD
BRANCH  22  24
HETATM   24  C   UNL     1     -43.781  57.555 -57.971  1.00  0.00     0.045 A 
HETATM   25  C   UNL     1     -44.231  57.135 -59.244  1.00  0.00     0.090 A 
HETATM   26  C   UNL     1     -43.492  57.446 -60.390  1.00  0.00     0.038 A 
HETATM   27  C   UNL     1     -42.292  58.147 -60.281  1.00  0.00     0.003 A 
HETATM   28  C   UNL     1     -41.823  58.536 -59.028  1.00  0.00     0.002 A 
HETATM   29  C   UNL     1     -42.559  58.235 -57.879  1.00  0.00     0.026 A 
BRANCH  25  30
HETATM   30  O   UNL     1     -45.431  56.464 -59.286  1.00  0.00    -0.350 OA
BRANCH  30  31
HETATM   31  C   UNL     1     -45.487  55.397 -60.238  1.00  0.00     0.171 C 
HETATM   32  C   UNL     1     -44.701  54.219 -59.687  1.00  0.00     0.034 C 
ENDBRANCH  30  31
ENDBRANCH  25  30
ENDBRANCH  22  24
ENDBRANCH   1  22
TORSDOF 6
ENDMDL
MODEL 3
REMARK VINA RESULT:      -8.2      1.034      1.988
REMARK  6 active torsions:
REMARK  status: ('A' for Active; 'I' for Inactive)
REMARK    1  A    between atoms: C_2  and  O_3 
REMARK    2  A    between atoms: O_3  and  C_4 
REMARK    3  A    between atoms: C_5  and  N_6 
REMARK    4  A    between atoms: N_6  and  C_7 
REMARK    5  A    between atoms: C_8  and  C_9 
REMARK    6  A    between atoms: C_12  and  C_13 
ROOT
HETATM    1  C   UNL     1     -44.368  58.840 -53.567  1.00  0.00     0.087 C 
HETATM    2  C   UNL     1     -44.084  58.866 -52.253  1.00  0.00     0.077 C 
HETATM    3  C   UNL     1     -44.969  59.632 -51.283  1.00  0.00     0.023 C 
HETATM    4  N   UNL     1     -45.704  60.266 -50.478  1.00  0.00    -0.096 N 
ENDROOT
BRANCH   2   5
HETATM    5  C   UNL     1     -42.925  58.195 -51.730  1.00  0.00     0.118 A 
HETATM    6  S   UNL     1     -41.656  59.124 -50.979  1.00  0.00    -0.078 SA
HETATM    7  C   UNL     1     -40.795  57.695 -50.629  1.00  0.00     0.084 A 
HETATM    8  C   UNL     1     -41.481  56.597 -51.097  1.00  0.00     0.081 A 
HETATM    9  N   UNL     1     -42.705  56.889 -51.695  1.00  0.00    -0.239 NA
BRANCH   8  10
HETATM   10  C   UNL     1     -41.075  55.221 -50.975  1.00  0.00     0.070 A 
HETATM   11  C   UNL     1     -40.918  54.610 -49.613  1.00  0.00     0.301 A 
HETATM   12  O   UNL     1     -41.071  55.245 -48.573  1.00  0.00    -0.259 OA
HETATM   13  O   UNL     1     -40.586  53.259 -49.549  1.00  0.00    -0.274 OA
HETATM   14  C   UNL     1     -40.339  52.498 -50.700  1.00  0.00     0.089 A 
HETATM   15  C   UNL     1     -40.437  53.072 -51.959  1.00  0.00     0.000 A 
HETATM   16  C   UNL     1     -39.989  51.160 -50.524  1.00  0.00     0.039 A 
HETATM   17  C   UNL     1     -40.175  52.286 -53.083  1.00  0.00     0.033 A 
HETATM   18  C   UNL     1     -40.823  54.468 -52.063  1.00  0.00     0.034 A 
HETATM   19  C   UNL     1     -39.823  50.944 -52.920  1.00  0.00     0.012 A 
HETATM   20  C   UNL     1     -39.731  50.376 -51.646  1.00  0.00     0.022 A 
HETATM   21 BR   UNL     1     -39.469  49.880 -54.442  1.00  0.00    -0.051 Br
ENDBRANCH   8  10
ENDBRANCH   2   5
BRANCH   1  22
HETATM   22  N   UNL     1     -43.604  58.348 -54.611  1.00  0.00    -0.266 NA
HETATM   23  H   UNL     1     -42.648  58.728 -54.607  1.00  0.00     0.133 HD
BRANCH  22  24
HETATM   24  C   UNL     1     -43.483  56.970 -54.947  1.00  0.00     0.045 A 
HETATM   25  C   UNL     1     -42.743  56.609 -56.096  1.00  0.00     0.090 A 
HETATM   26  C   UNL     1     -42.540  55.260 -56.409  1.00  0.00     0.038 A 
HETATM   27  C   UNL     1     -43.093  54.264 -55.605  1.00  0.00     0.003 A 
HETATM   28  C   UNL     1     -43.852  54.610 -54.489  1.00  0.00     0.002 A 
HETATM   29  C   UNL     1     -44.053  55.954 -54.166  1.00  0.00     0.026 A 
BRANCH  25  30
HETATM   30  O   UNL     1     -42.208  57.637 -56.838  1.00  0.00    -0.350 OA
BRANCH  30  31
HETATM   31  C   UNL     1     -42.643  57.681 -58.201  1.00  0.00     0.171 C 
HETATM   32  C   UNL     1     -43.508  58.914 -58.391  1.00  0.00     0.034 C 
ENDBRANCH  30  31
ENDBRANCH  25  30
ENDBRANCH  22  24
ENDBRANCH   1  22
TORSDOF 6
ENDMDL
MODEL 4
REMARK VINA RESULT:      -8.1      1.932      2.338
REMARK  6 active torsions:
REMARK  status: ('A' for Active; 'I' for Inactive)
REMARK    1  A    between atoms: C_2  and  O_3 
REMARK    2  A    between atoms: O_3  and  C_4 
REMARK    3  A    between atoms: C_5  and  N_6 
REMARK    4  A    between atoms: N_6  and  C_7 
REMARK    5  A    between atoms: C_8  and  C_9 
REMARK    6  A    between atoms: C_12  and  C_13 
ROOT
HETATM    1  C   UNL     1     -45.154  59.041 -55.350  1.00  0.00     0.087 C 
HETATM    2  C   UNL     1     -44.666  59.145 -54.102  1.00  0.00     0.077 C 
HETATM    3  C   UNL     1     -45.459  59.852 -53.015  1.00  0.00     0.023 C 
HETATM    4  N   UNL     1     -46.117  60.439 -52.114  1.00  0.00    -0.096 N 
ENDROOT
BRANCH   2   5
HETATM    5  C   UNL     1     -43.373  58.616 -53.764  1.00  0.00     0.118 A 
HETATM    6  S   UNL     1     -41.964  59.632 -53.894  1.00  0.00    -0.078 SA
HETATM    7  C   UNL     1     -40.979  58.370 -53.310  1.00  0.00     0.084 A 
HETATM    8  C   UNL     1     -41.738  57.249 -53.060  1.00  0.00     0.081 A 
HETATM    9  N   UNL     1     -43.102  57.407 -53.293  1.00  0.00    -0.239 NA
BRANCH   8  10
HETATM   10  C   UNL     1     -41.260  55.991 -52.546  1.00  0.00     0.070 A 
HETATM   11  C   UNL     1     -41.037  55.828 -51.070  1.00  0.00     0.301 A 
HETATM   12  O   UNL     1     -41.195  56.741 -50.264  1.00  0.00    -0.259 OA
HETATM   13  O   UNL     1     -40.636  54.574 -50.616  1.00  0.00    -0.274 OA
HETATM   14  C   UNL     1     -40.381  53.510 -51.494  1.00  0.00     0.089 A 
HETATM   15  C   UNL     1     -40.540  53.673 -52.862  1.00  0.00     0.000 A 
HETATM   16  C   UNL     1     -39.960  52.304 -50.938  1.00  0.00     0.039 A 
HETATM   17  C   UNL     1     -40.268  52.595 -53.707  1.00  0.00     0.033 A 
HETATM   18  C   UNL     1     -40.999  54.955 -53.365  1.00  0.00     0.034 A 
HETATM   19  C   UNL     1     -39.845  51.380 -53.162  1.00  0.00     0.012 A 
HETATM   20  C   UNL     1     -39.691  51.229 -51.781  1.00  0.00     0.022 A 
HETATM   21 BR   UNL     1     -39.477  49.921 -54.307  1.00  0.00    -0.051 Br
ENDBRANCH   8  10
ENDBRANCH   2   5
BRANCH   1  22
HETATM   22  N   UNL     1     -44.522  58.591 -56.496  1.00  0.00    -0.266 NA
HETATM   23  H   UNL     1     -43.773  57.916 -56.288  1.00  0.00     0.133 HD
BRANCH  22  24
HETATM   24  C   UNL     1     -45.193  58.098 -57.652  1.00  0.00     0.045 A 
HETATM   25  C   UNL     1     -44.520  57.185 -58.495  1.00  0.00     0.090 A 
HETATM   26  C   UNL     1     -45.180  56.623 -59.594  1.00  0.00     0.038 A 
HETATM   27  C   UNL     1     -46.496  56.986 -59.880  1.00  0.00     0.003 A 
HETATM   28  C   UNL     1     -47.155  57.911 -59.075  1.00  0.00     0.002 A 
HETATM   29  C   UNL     1     -46.506  58.470 -57.972  1.00  0.00     0.026 A 
BRANCH  25  30
HETATM   30  O   UNL     1     -43.230  56.854 -58.148  1.00  0.00    -0.350 OA
BRANCH  30  31
HETATM   31  C   UNL     1     -43.027  55.470 -57.851  1.00  0.00     0.171 C 
HETATM   32  C   UNL     1     -42.915  55.313 -56.345  1.00  0.00     0.034 C 
ENDBRANCH  30  31
ENDBRANCH  25  30
ENDBRANCH  22  24
ENDBRANCH   1  22
TORSDOF 6
ENDMDL
MODEL 5
REMARK VINA RESULT:      -8.1      2.845      3.455
REMARK  6 active torsions:
REMARK  status: ('A' for Active; 'I' for Inactive)
REMARK    1  A    between atoms: C_2  and  O_3 
REMARK    2  A    between atoms: O_3  and  C_4 
REMARK    3  A    between atoms: C_5  and  N_6 
REMARK    4  A    between atoms: N_6  and  C_7 
REMARK    5  A    between atoms: C_8  and  C_9 
REMARK    6  A    between atoms: C_12  and  C_13 
ROOT
HETATM    1  C   UNL     1     -42.268  60.665 -55.870  1.00  0.00     0.087 C 
HETATM    2  C   UNL     1     -42.928  60.450 -54.719  1.00  0.00     0.077 C 
HETATM    3  C   UNL     1     -43.392  61.615 -53.861  1.00  0.00     0.023 C 
HETATM    4  N   UNL     1     -43.777  62.582 -53.149  1.00  0.00    -0.096 N 
ENDROOT
BRANCH   2   5
HETATM    5  C   UNL     1     -43.193  59.116 -54.253  1.00  0.00     0.118 A 
HETATM    6  S   UNL     1     -44.817  58.487 -54.313  1.00  0.00    -0.078 SA
HETATM    7  C   UNL     1     -44.280  56.993 -53.694  1.00  0.00     0.084 A 
HETATM    8  C   UNL     1     -42.924  57.034 -53.457  1.00  0.00     0.081 A 
HETATM    9  N   UNL     1     -42.310  58.235 -53.805  1.00  0.00    -0.239 NA
BRANCH   8  10
HETATM   10  C   UNL     1     -42.113  55.958 -52.948  1.00  0.00     0.070 A 
HETATM   11  C   UNL     1     -41.542  56.050 -51.563  1.00  0.00     0.301 A 
HETATM   12  O   UNL     1     -41.690  57.033 -50.841  1.00  0.00    -0.259 OA
HETATM   13  O   UNL     1     -40.819  54.956 -51.092  1.00  0.00    -0.274 OA
HETATM   14  C   UNL     1     -40.566  53.832 -51.890  1.00  0.00     0.089 A 
HETATM   15  C   UNL     1     -41.052  53.765 -53.188  1.00  0.00     0.000 A 
HETATM   16  C   UNL     1     -39.811  52.803 -51.332  1.00  0.00     0.039 A 
HETATM   17  C   UNL     1     -40.773  52.633 -53.958  1.00  0.00     0.033 A 
HETATM   18  C   UNL     1     -41.847  54.870 -53.695  1.00  0.00     0.034 A 
HETATM   19  C   UNL     1     -40.016  51.596 -53.409  1.00  0.00     0.012 A 
HETATM   20  C   UNL     1     -39.535  51.673 -52.099  1.00  0.00     0.022 A 
HETATM   21 BR   UNL     1     -39.639  50.064 -54.452  1.00  0.00    -0.051 Br
ENDBRANCH   8  10
ENDBRANCH   2   5
BRANCH   1  22
HETATM   22  N   UNL     1     -41.629  59.750 -56.689  1.00  0.00    -0.266 NA
HETATM   23  H   UNL     1     -41.775  58.781 -56.379  1.00  0.00     0.133 HD
BRANCH  22  24
HETATM   24  C   UNL     1     -41.722  59.732 -58.110  1.00  0.00     0.045 A 
HETATM   25  C   UNL     1     -41.920  58.496 -58.766  1.00  0.00     0.090 A 
HETATM   26  C   UNL     1     -42.094  58.455 -60.154  1.00  0.00     0.038 A 
HETATM   27  C   UNL     1     -42.042  59.632 -60.901  1.00  0.00     0.003 A 
HETATM   28  C   UNL     1     -41.813  60.850 -60.267  1.00  0.00     0.002 A 
HETATM   29  C   UNL     1     -41.646  60.901 -58.881  1.00  0.00     0.026 A 
BRANCH  25  30
HETATM   30  O   UNL     1     -41.979  57.374 -57.971  1.00  0.00    -0.350 OA
BRANCH  30  31
HETATM   31  C   UNL     1     -43.250  56.717 -57.959  1.00  0.00     0.171 C 
HETATM   32  C   UNL     1     -43.126  55.446 -57.137  1.00  0.00     0.034 C 
ENDBRANCH  30  31
ENDBRANCH  25  30
ENDBRANCH  22  24
ENDBRANCH   1  22
TORSDOF 6
ENDMDL
MODEL 6
REMARK VINA RESULT:      -7.8      2.973      4.050
REMARK  6 active torsions:
REMARK  status: ('A' for Active; 'I' for Inactive)
REMARK    1  A    between atoms: C_2  and  O_3 
REMARK    2  A    between atoms: O_3  and  C_4 
REMARK    3  A    between atoms: C_5  and  N_6 
REMARK    4  A    between atoms: N_6  and  C_7 
REMARK    5  A    between atoms: C_8  and  C_9 
REMARK    6  A    between atoms: C_12  and  C_13 
ROOT
HETATM    1  C   UNL     1     -42.205  59.994 -56.754  1.00  0.00     0.087 C 
HETATM    2  C   UNL     1     -42.822  60.074 -55.563  1.00  0.00     0.077 C 
HETATM    3  C   UNL     1     -43.222  61.421 -54.984  1.00  0.00     0.023 C 
HETATM    4  N   UNL     1     -43.553  62.539 -54.504  1.00  0.00    -0.096 N 
ENDROOT
BRANCH   2   5
HETATM    5  C   UNL     1     -43.099  58.894 -54.790  1.00  0.00     0.118 A 
HETATM    6  S   UNL     1     -44.748  58.486 -54.399  1.00  0.00    -0.078 SA
HETATM    7  C   UNL     1     -44.227  57.071 -53.604  1.00  0.00     0.084 A 
HETATM    8  C   UNL     1     -42.855  56.974 -53.653  1.00  0.00     0.081 A 
HETATM    9  N   UNL     1     -42.225  57.999 -54.354  1.00  0.00    -0.239 NA
BRANCH   8  10
HETATM   10  C   UNL     1     -42.054  55.910 -53.103  1.00  0.00     0.070 A 
HETATM   11  C   UNL     1     -41.502  56.038 -51.713  1.00  0.00     0.301 A 
HETATM   12  O   UNL     1     -41.657  57.041 -51.021  1.00  0.00    -0.259 OA
HETATM   13  O   UNL     1     -40.789  54.957 -51.203  1.00  0.00    -0.274 OA
HETATM   14  C   UNL     1     -40.528  53.810 -51.966  1.00  0.00     0.089 A 
HETATM   15  C   UNL     1     -40.996  53.709 -53.268  1.00  0.00     0.000 A 
HETATM   16  C   UNL     1     -39.783  52.795 -51.369  1.00  0.00     0.039 A 
HETATM   17  C   UNL     1     -40.710  52.556 -54.002  1.00  0.00     0.033 A 
HETATM   18  C   UNL     1     -41.780  54.801 -53.816  1.00  0.00     0.034 A 
HETATM   19  C   UNL     1     -39.964  51.532 -53.415  1.00  0.00     0.012 A 
HETATM   20  C   UNL     1     -39.500  51.644 -52.101  1.00  0.00     0.022 A 
HETATM   21 BR   UNL     1     -39.576  49.971 -54.410  1.00  0.00    -0.051 Br
ENDBRANCH   8  10
ENDBRANCH   2   5
BRANCH   1  22
HETATM   22  N   UNL     1     -41.623  58.894 -57.360  1.00  0.00    -0.266 NA
HETATM   23  H   UNL     1     -41.059  58.340 -56.702  1.00  0.00     0.133 HD
BRANCH  22  24
HETATM   24  C   UNL     1     -42.318  57.957 -58.177  1.00  0.00     0.045 A 
HETATM   25  C   UNL     1     -42.425  58.207 -59.564  1.00  0.00     0.090 A 
HETATM   26  C   UNL     1     -43.033  57.267 -60.404  1.00  0.00     0.038 A 
HETATM   27  C   UNL     1     -43.563  56.092 -59.872  1.00  0.00     0.003 A 
HETATM   28  C   UNL     1     -43.493  55.853 -58.502  1.00  0.00     0.002 A 
HETATM   29  C   UNL     1     -42.881  56.783 -57.658  1.00  0.00     0.026 A 
BRANCH  25  30
HETATM   30  O   UNL     1     -41.866  59.375 -60.029  1.00  0.00    -0.350 OA
BRANCH  30  31
HETATM   31  C   UNL     1     -42.795  60.291 -60.615  1.00  0.00     0.171 C 
HETATM   32  C   UNL     1     -42.289  60.673 -61.995  1.00  0.00     0.034 C 
ENDBRANCH  30  31
ENDBRANCH  25  30
ENDBRANCH  22  24
ENDBRANCH   1  22
TORSDOF 6
ENDMDL
MODEL 7
REMARK VINA RESULT:      -7.7      3.707      7.902
REMARK  6 active torsions:
REMARK  status: ('A' for Active; 'I' for Inactive)
REMARK    1  A    between atoms: C_2  and  O_3 
REMARK    2  A    between atoms: O_3  and  C_4 
REMARK    3  A    between atoms: C_5  and  N_6 
REMARK    4  A    between atoms: N_6  and  C_7 
REMARK    5  A    between atoms: C_8  and  C_9 
REMARK    6  A    between atoms: C_12  and  C_13 
ROOT
HETATM    1  C   UNL     1     -41.101  56.715 -51.438  1.00  0.00     0.087 C 
HETATM    2  C   UNL     1     -41.207  58.029 -51.700  1.00  0.00     0.077 C 
HETATM    3  C   UNL     1     -40.539  59.056 -50.801  1.00  0.00     0.023 C 
HETATM    4  N   UNL     1     -39.985  59.909 -50.056  1.00  0.00    -0.096 N 
ENDROOT
BRANCH   2   5
HETATM    5  C   UNL     1     -41.974  58.503 -52.820  1.00  0.00     0.118 A 
HETATM    6  S   UNL     1     -43.439  59.404 -52.543  1.00  0.00    -0.078 SA
HETATM    7  C   UNL     1     -43.654  59.603 -54.222  1.00  0.00     0.084 A 
HETATM    8  C   UNL     1     -42.637  58.981 -54.911  1.00  0.00     0.081 A 
HETATM    9  N   UNL     1     -41.671  58.383 -54.105  1.00  0.00    -0.239 NA
BRANCH   8  10
HETATM   10  C   UNL     1     -42.472  58.945 -56.341  1.00  0.00     0.070 A 
HETATM   11  C   UNL     1     -42.687  57.657 -57.082  1.00  0.00     0.301 A 
HETATM   12  O   UNL     1     -42.954  56.598 -56.520  1.00  0.00    -0.259 OA
HETATM   13  O   UNL     1     -42.578  57.689 -58.470  1.00  0.00    -0.274 OA
HETATM   14  C   UNL     1     -42.217  58.853 -59.162  1.00  0.00     0.089 A 
HETATM   15  C   UNL     1     -41.972  60.034 -58.476  1.00  0.00     0.000 A 
HETATM   16  C   UNL     1     -42.112  58.771 -60.549  1.00  0.00     0.039 A 
HETATM   17  C   UNL     1     -41.605  61.172 -59.197  1.00  0.00     0.033 A 
HETATM   18  C   UNL     1     -42.118  60.046 -57.031  1.00  0.00     0.034 A 
HETATM   19  C   UNL     1     -41.496  61.101 -60.588  1.00  0.00     0.012 A 
HETATM   20  C   UNL     1     -41.749  59.907 -61.268  1.00  0.00     0.022 A 
HETATM   21 BR   UNL     1     -41.000  62.643 -61.565  1.00  0.00    -0.051 Br
ENDBRANCH   8  10
ENDBRANCH   2   5
BRANCH   1  22
HETATM   22  N   UNL     1     -41.764  55.654 -52.031  1.00  0.00    -0.266 NA
HETATM   23  H   UNL     1     -42.614  55.954 -52.526  1.00  0.00     0.133 HD
BRANCH  22  24
HETATM   24  C   UNL     1     -41.146  54.673 -52.857  1.00  0.00     0.045 A 
HETATM   25  C   UNL     1     -40.906  53.385 -52.327  1.00  0.00     0.090 A 
HETATM   26  C   UNL     1     -40.374  52.377 -53.138  1.00  0.00     0.038 A 
HETATM   27  C   UNL     1     -40.047  52.646 -54.466  1.00  0.00     0.003 A 
HETATM   28  C   UNL     1     -40.248  53.922 -54.988  1.00  0.00     0.002 A 
HETATM   29  C   UNL     1     -40.786  54.932 -54.187  1.00  0.00     0.026 A 
BRANCH  25  30
HETATM   30  O   UNL     1     -41.267  53.177 -51.015  1.00  0.00    -0.350 OA
BRANCH  30  31
HETATM   31  C   UNL     1     -40.170  53.076 -50.102  1.00  0.00     0.171 C 
HETATM   32  C   UNL     1     -40.436  53.999 -48.926  1.00  0.00     0.034 C 
ENDBRANCH  30  31
ENDBRANCH  25  30
ENDBRANCH  22  24
ENDBRANCH   1  22
TORSDOF 6
ENDMDL
MODEL 8
REMARK VINA RESULT:      -7.5      2.654      4.667
REMARK  6 active torsions:
REMARK  status: ('A' for Active; 'I' for Inactive)
REMARK    1  A    between atoms: C_2  and  O_3 
REMARK    2  A    between atoms: O_3  and  C_4 
REMARK    3  A    between atoms: C_5  and  N_6 
REMARK    4  A    between atoms: N_6  and  C_7 
REMARK    5  A    between atoms: C_8  and  C_9 
REMARK    6  A    between atoms: C_12  and  C_13 
ROOT
HETATM    1  C   UNL     1     -42.433  60.774 -55.049  1.00  0.00     0.087 C 
HETATM    2  C   UNL     1     -43.050  59.708 -55.589  1.00  0.00     0.077 C 
HETATM    3  C   UNL     1     -43.523  59.733 -57.033  1.00  0.00     0.023 C 
HETATM    4  N   UNL     1     -43.915  59.754 -58.231  1.00  0.00    -0.096 N 
ENDROOT
BRANCH   2   5
HETATM    5  C   UNL     1     -43.303  58.525 -54.812  1.00  0.00     0.118 A 
HETATM    6  S   UNL     1     -44.943  58.086 -54.418  1.00  0.00    -0.078 SA
HETATM    7  C   UNL     1     -44.394  56.684 -53.620  1.00  0.00     0.084 A 
HETATM    8  C   UNL     1     -43.020  56.613 -53.670  1.00  0.00     0.081 A 
HETATM    9  N   UNL     1     -42.411  57.649 -54.375  1.00  0.00    -0.239 NA
BRANCH   8  10
HETATM   10  C   UNL     1     -42.198  55.567 -53.118  1.00  0.00     0.070 A 
HETATM   11  C   UNL     1     -41.720  55.668 -51.699  1.00  0.00     0.301 A 
HETATM   12  O   UNL     1     -41.955  56.637 -50.980  1.00  0.00    -0.259 OA
HETATM   13  O   UNL     1     -40.983  54.601 -51.191  1.00  0.00    -0.274 OA
HETATM   14  C   UNL     1     -40.632  53.496 -51.980  1.00  0.00     0.089 A 
HETATM   15  C   UNL     1     -41.032  53.423 -53.307  1.00  0.00     0.000 A 
HETATM   16  C   UNL     1     -39.871  52.494 -51.383  1.00  0.00     0.039 A 
HETATM   17  C   UNL     1     -40.657  52.312 -54.066  1.00  0.00     0.033 A 
HETATM   18  C   UNL     1     -41.839  54.499 -53.855  1.00  0.00     0.034 A 
HETATM   19  C   UNL     1     -39.893  51.301 -53.478  1.00  0.00     0.012 A 
HETATM   20  C   UNL     1     -39.499  51.386 -52.139  1.00  0.00     0.022 A 
HETATM   21 BR   UNL     1     -39.385  49.797 -54.506  1.00  0.00    -0.051 Br
ENDBRANCH   8  10
ENDBRANCH   2   5
BRANCH   1  22
HETATM   22  N   UNL     1     -42.087  61.001 -53.729  1.00  0.00    -0.266 NA
HETATM   23  H   UNL     1     -41.308  61.667 -53.640  1.00  0.00     0.133 HD
BRANCH  22  24
HETATM   24  C   UNL     1     -43.009  61.325 -52.693  1.00  0.00     0.045 A 
HETATM   25  C   UNL     1     -42.909  60.652 -51.454  1.00  0.00     0.090 A 
HETATM   26  C   UNL     1     -43.750  61.004 -50.392  1.00  0.00     0.038 A 
HETATM   27  C   UNL     1     -44.712  61.998 -50.560  1.00  0.00     0.003 A 
HETATM   28  C   UNL     1     -44.841  62.643 -51.788  1.00  0.00     0.002 A 
HETATM   29  C   UNL     1     -44.000  62.304 -52.851  1.00  0.00     0.026 A 
BRANCH  25  30
HETATM   30  O   UNL     1     -41.928  59.693 -51.346  1.00  0.00    -0.350 OA
BRANCH  30  31
HETATM   31  C   UNL     1     -40.929  59.968 -50.359  1.00  0.00     0.171 C 
HETATM   32  C   UNL     1     -39.643  59.271 -50.768  1.00  0.00     0.034 C 
ENDBRANCH  30  31
ENDBRANCH  25  30
ENDBRANCH  22  24
ENDBRANCH   1  22
TORSDOF 6
ENDMDL
MODEL 9
REMARK VINA RESULT:      -7.4      3.164      7.470
REMARK  6 active torsions:
REMARK  status: ('A' for Active; 'I' for Inactive)
REMARK    1  A    between atoms: C_2  and  O_3 
REMARK    2  A    between atoms: O_3  and  C_4 
REMARK    3  A    between atoms: C_5  and  N_6 
REMARK    4  A    between atoms: N_6  and  C_7 
REMARK    5  A    between atoms: C_8  and  C_9 
REMARK    6  A    between atoms: C_12  and  C_13 
ROOT
HETATM    1  C   UNL     1     -43.746  56.852 -51.286  1.00  0.00     0.087 C 
HETATM    2  C   UNL     1     -44.287  57.956 -51.830  1.00  0.00     0.077 C 
HETATM    3  C   UNL     1     -45.198  58.858 -51.013  1.00  0.00     0.023 C 
HETATM    4  N   UNL     1     -45.953  59.606 -50.336  1.00  0.00    -0.096 N 
ENDROOT
BRANCH   2   5
HETATM    5  C   UNL     1     -44.043  58.302 -53.204  1.00  0.00     0.118 A 
HETATM    6  S   UNL     1     -43.326  59.843 -53.591  1.00  0.00    -0.078 SA
HETATM    7  C   UNL     1     -43.336  59.450 -55.249  1.00  0.00     0.084 A 
HETATM    8  C   UNL     1     -43.884  58.201 -55.440  1.00  0.00     0.081 A 
HETATM    9  N   UNL     1     -44.255  57.545 -54.270  1.00  0.00    -0.239 NA
BRANCH   8  10
HETATM   10  C   UNL     1     -44.048  57.525 -56.702  1.00  0.00     0.070 A 
HETATM   11  C   UNL     1     -42.983  56.582 -57.183  1.00  0.00     0.301 A 
HETATM   12  O   UNL     1     -41.935  56.387 -56.572  1.00  0.00    -0.259 OA
HETATM   13  O   UNL     1     -43.218  55.904 -58.376  1.00  0.00    -0.274 OA
HETATM   14  C   UNL     1     -44.367  56.129 -59.147  1.00  0.00     0.089 A 
HETATM   15  C   UNL     1     -45.330  57.035 -58.728  1.00  0.00     0.000 A 
HETATM   16  C   UNL     1     -44.493  55.417 -60.338  1.00  0.00     0.039 A 
HETATM   17  C   UNL     1     -46.458  57.241 -59.526  1.00  0.00     0.033 A 
HETATM   18  C   UNL     1     -45.137  57.728 -57.467  1.00  0.00     0.034 A 
HETATM   19  C   UNL     1     -46.594  56.533 -60.723  1.00  0.00     0.012 A 
HETATM   20  C   UNL     1     -45.619  55.621 -61.132  1.00  0.00     0.022 A 
HETATM   21 BR   UNL     1     -48.122  56.813 -61.803  1.00  0.00    -0.051 Br
ENDBRANCH   8  10
ENDBRANCH   2   5
BRANCH   1  22
HETATM   22  N   UNL     1     -43.041  55.834 -51.904  1.00  0.00    -0.266 NA
HETATM   23  H   UNL     1     -42.701  56.106 -52.835  1.00  0.00     0.133 HD
BRANCH  22  24
HETATM   24  C   UNL     1     -41.988  55.093 -51.296  1.00  0.00     0.045 A 
HETATM   25  C   UNL     1     -41.420  54.008 -52.002  1.00  0.00     0.090 A 
HETATM   26  C   UNL     1     -40.332  53.311 -51.465  1.00  0.00     0.038 A 
HETATM   27  C   UNL     1     -39.823  53.662 -50.215  1.00  0.00     0.003 A 
HETATM   28  C   UNL     1     -40.399  54.707 -49.497  1.00  0.00     0.002 A 
HETATM   29  C   UNL     1     -41.480  55.413 -50.029  1.00  0.00     0.026 A 
BRANCH  25  30
HETATM   30  O   UNL     1     -41.955  53.724 -53.237  1.00  0.00    -0.350 OA
BRANCH  30  31
HETATM   31  C   UNL     1     -41.143  52.882 -54.062  1.00  0.00     0.171 C 
HETATM   32  C   UNL     1     -40.349  53.761 -55.012  1.00  0.00     0.034 C 
ENDBRANCH  30  31
ENDBRANCH  25  30
ENDBRANCH  22  24
ENDBRANCH   1  22
TORSDOF 6
ENDMDL
MODEL 10
REMARK VINA RESULT:      -7.4      3.398      7.501
REMARK  6 active torsions:
REMARK  status: ('A' for Active; 'I' for Inactive)
REMARK    1  A    between atoms: C_2  and  O_3 
REMARK    2  A    between atoms: O_3  and  C_4 
REMARK    3  A    between atoms: C_5  and  N_6 
REMARK    4  A    between atoms: N_6  and  C_7 
REMARK    5  A    between atoms: C_8  and  C_9 
REMARK    6  A    between atoms: C_12  and  C_13 
ROOT
HETATM    1  C   UNL     1     -44.251  56.268 -51.006  1.00  0.00     0.087 C 
HETATM    2  C   UNL     1     -44.202  57.512 -51.514  1.00  0.00     0.077 C 
HETATM    3  C   UNL     1     -45.195  58.572 -51.069  1.00  0.00     0.023 C 
HETATM    4  N   UNL     1     -46.019  59.452 -50.699  1.00  0.00    -0.096 N 
ENDROOT
BRANCH   2   5
HETATM    5  C   UNL     1     -43.228  57.869 -52.510  1.00  0.00     0.118 A 
HETATM    6  S   UNL     1     -41.624  58.337 -52.018  1.00  0.00    -0.078 SA
HETATM    7  C   UNL     1     -41.158  58.517 -53.648  1.00  0.00     0.084 A 
HETATM    8  C   UNL     1     -42.218  58.235 -54.481  1.00  0.00     0.081 A 
HETATM    9  N   UNL     1     -43.382  57.839 -53.826  1.00  0.00    -0.239 NA
BRANCH   8  10
HETATM   10  C   UNL     1     -42.204  58.265 -55.921  1.00  0.00     0.070 A 
HETATM   11  C   UNL     1     -42.412  56.994 -56.692  1.00  0.00     0.301 A 
HETATM   12  O   UNL     1     -42.548  55.898 -56.154  1.00  0.00    -0.259 OA
HETATM   13  O   UNL     1     -42.454  57.085 -58.081  1.00  0.00    -0.274 OA
HETATM   14  C   UNL     1     -42.246  58.297 -58.755  1.00  0.00     0.089 A 
HETATM   15  C   UNL     1     -42.006  59.465 -58.045  1.00  0.00     0.000 A 
HETATM   16  C   UNL     1     -42.284  58.275 -60.147  1.00  0.00     0.039 A 
HETATM   17  C   UNL     1     -41.794  60.652 -58.749  1.00  0.00     0.033 A 
HETATM   18  C   UNL     1     -41.999  59.412 -56.594  1.00  0.00     0.034 A 
HETATM   19  C   UNL     1     -41.829  60.642 -60.145  1.00  0.00     0.012 A 
HETATM   20  C   UNL     1     -42.075  59.460 -60.848  1.00  0.00     0.022 A 
HETATM   21 BR   UNL     1     -41.542  62.251 -61.098  1.00  0.00    -0.051 Br
ENDBRANCH   8  10
ENDBRANCH   2   5
BRANCH   1  22
HETATM   22  N   UNL     1     -43.555  55.139 -51.401  1.00  0.00    -0.266 NA
HETATM   23  H   UNL     1     -43.432  55.095 -52.422  1.00  0.00     0.133 HD
BRANCH  22  24
HETATM   24  C   UNL     1     -42.323  54.707 -50.833  1.00  0.00     0.045 A 
HETATM   25  C   UNL     1     -41.454  53.908 -51.610  1.00  0.00     0.090 A 
HETATM   26  C   UNL     1     -40.203  53.534 -51.109  1.00  0.00     0.038 A 
HETATM   27  C   UNL     1     -39.819  53.921 -49.826  1.00  0.00     0.003 A 
HETATM   28  C   UNL     1     -40.682  54.680 -49.039  1.00  0.00     0.002 A 
HETATM   29  C   UNL     1     -41.930  55.064 -49.535  1.00  0.00     0.026 A 
BRANCH  25  30
HETATM   30  O   UNL     1     -41.884  53.574 -52.875  1.00  0.00    -0.350 OA
BRANCH  30  31
HETATM   31  C   UNL     1     -40.844  53.479 -53.854  1.00  0.00     0.171 C 
HETATM   32  C   UNL     1     -40.746  52.035 -54.312  1.00  0.00     0.034 C 
ENDBRANCH  30  31
ENDBRANCH  25  30
ENDBRANCH  22  24
ENDBRANCH   1  22
TORSDOF 6
ENDMDL
