MODEL 1
REMARK VINA RESULT:     -10.1      0.000      0.000
REMARK  4 active torsions:
REMARK  status: ('A' for Active; 'I' for Inactive)
REMARK    1  A    between atoms: C_2  and  C_5 
REMARK    2  A    between atoms: C_8  and  C_11 
REMARK    3  A    between atoms: C_17  and  C_18 
REMARK    4  A    between atoms: C_24  and  C_30 
ROOT
HETATM    1  C   UNL     1     -41.436  57.465 -53.398  1.00  0.00     0.091 A 
HETATM    2  N   UNL     1     -41.024  56.606 -54.325  1.00  0.00    -0.345 N 
HETATM    3  H   UNL     1     -40.879  56.898 -55.290  1.00  0.00     0.167 HD
HETATM    4  C   UNL     1     -40.793  55.293 -53.998  1.00  0.00     0.049 A 
HETATM    5  C   UNL     1     -40.336  54.403 -54.970  1.00  0.00     0.031 A 
HETATM    6  C   UNL     1     -40.050  53.068 -54.637  1.00  0.00     0.014 A 
HETATM    7  C   UNL     1     -40.215  52.596 -53.327  1.00  0.00    -0.022 A 
HETATM    8  C   UNL     1     -40.693  53.477 -52.353  1.00  0.00     0.031 A 
HETATM    9  C   UNL     1     -40.975  54.801 -52.704  1.00  0.00     0.059 A 
HETATM   10  C   UNL     1     -41.468  55.748 -51.712  1.00  0.00     0.259 A 
HETATM   11  O   UNL     1     -41.707  55.528 -50.545  1.00  0.00    -0.267 OA
HETATM   12  N   UNL     1     -41.669  57.084 -52.156  1.00  0.00    -0.312 N 
HETATM   13  H   UNL     1     -42.018  57.697 -51.430  1.00  0.00     0.170 HD
ENDROOT
BRANCH   1  14
HETATM   14  C   UNL     1     -41.630  58.899 -53.788  1.00  0.00     0.089 C 
HETATM   15  C   UNL     1     -42.918  59.145 -54.587  1.00  0.00     0.057 C 
HETATM   16  C   UNL     1     -43.180  60.648 -54.406  1.00  0.00     0.242 C 
HETATM   17  N   UNL     1     -42.662  60.952 -53.028  1.00  0.00    -0.074 N 
HETATM   18  H   UNL     1     -42.168  61.863 -53.032  1.00  0.00     0.277 HD
HETATM   19  H   UNL     1     -43.449  61.100 -52.373  1.00  0.00     0.277 HD
HETATM   20  C   UNL     1     -41.767  59.834 -52.580  1.00  0.00     0.245 C 
BRANCH  15  21
HETATM   21  C   UNL     1     -42.821  58.727 -56.034  1.00  0.00    -0.051 A 
HETATM   22  C   UNL     1     -43.490  57.595 -56.529  1.00  0.00     0.008 A 
HETATM   23  C   UNL     1     -43.344  57.203 -57.863  1.00  0.00     0.017 A 
HETATM   24  C   UNL     1     -42.530  57.931 -58.738  1.00  0.00     0.047 A 
HETATM   25  C   UNL     1     -41.880  59.074 -58.253  1.00  0.00     0.017 A 
HETATM   26  C   UNL     1     -42.022  59.468 -56.918  1.00  0.00     0.008 A 
BRANCH  24  27
HETATM   27  C   UNL     1     -42.346  57.505 -60.180  1.00  0.00     0.417 C 
HETATM   28  F   UNL     1     -41.671  56.332 -60.306  1.00  0.00    -0.166 F 
HETATM   29  F   UNL     1     -41.658  58.425 -60.905  1.00  0.00    -0.166 F 
HETATM   30  F   UNL     1     -43.538  57.330 -60.808  1.00  0.00    -0.166 F 
ENDBRANCH  24  27
ENDBRANCH  15  21
ENDBRANCH   1  14
BRANCH   7  31
HETATM   31  C   UNL     1     -39.880  51.230 -52.964  1.00  0.00     0.010 A 
HETATM   32  C   UNL     1     -39.759  50.069 -53.764  1.00  0.00     0.152 A 
HETATM   33  N   UNL     1     -39.422  48.990 -53.058  1.00  0.00    -0.187 NA
HETATM   34  N   UNL     1     -39.322  49.446 -51.801  1.00  0.00    -0.289 N 
HETATM   35  H   UNL     1     -39.066  48.790 -51.068  1.00  0.00     0.188 HD
HETATM   36  C   UNL     1     -39.588  50.784 -51.693  1.00  0.00     0.123 A 
ENDBRANCH   7  31
TORSDOF 4
ENDMDL
MODEL 2
REMARK VINA RESULT:      -9.4      4.062      8.198
REMARK  4 active torsions:
REMARK  status: ('A' for Active; 'I' for Inactive)
REMARK    1  A    between atoms: C_2  and  C_5 
REMARK    2  A    between atoms: C_8  and  C_11 
REMARK    3  A    between atoms: C_17  and  C_18 
REMARK    4  A    between atoms: C_24  and  C_30 
ROOT
HETATM    1  C   UNL     1     -42.570  56.589 -53.923  1.00  0.00     0.091 A 
HETATM    2  N   UNL     1     -42.345  57.878 -54.157  1.00  0.00    -0.345 N 
HETATM    3  H   UNL     1     -42.199  58.537 -53.394  1.00  0.00     0.167 HD
HETATM    4  C   UNL     1     -42.316  58.354 -55.444  1.00  0.00     0.049 A 
HETATM    5  C   UNL     1     -42.054  59.703 -55.683  1.00  0.00     0.031 A 
HETATM    6  C   UNL     1     -41.974  60.192 -56.998  1.00  0.00     0.014 A 
HETATM    7  C   UNL     1     -42.154  59.343 -58.100  1.00  0.00    -0.022 A 
HETATM    8  C   UNL     1     -42.437  57.994 -57.867  1.00  0.00     0.031 A 
HETATM    9  C   UNL     1     -42.517  57.526 -56.551  1.00  0.00     0.059 A 
HETATM   10  C   UNL     1     -42.803  56.126 -56.272  1.00  0.00     0.259 A 
HETATM   11  O   UNL     1     -43.021  55.248 -57.079  1.00  0.00    -0.267 OA
HETATM   12  N   UNL     1     -42.804  55.738 -54.904  1.00  0.00    -0.312 N 
HETATM   13  H   UNL     1     -43.015  54.758 -54.768  1.00  0.00     0.170 HD
ENDROOT
BRANCH   1  14
HETATM   14  C   UNL     1     -42.545  56.105 -52.505  1.00  0.00     0.089 C 
HETATM   15  C   UNL     1     -41.157  55.637 -52.044  1.00  0.00     0.057 C 
HETATM   16  C   UNL     1     -41.235  55.711 -50.512  1.00  0.00     0.242 C 
HETATM   17  N   UNL     1     -42.153  56.869 -50.242  1.00  0.00    -0.074 N 
HETATM   18  H   UNL     1     -42.786  56.639 -49.455  1.00  0.00     0.277 HD
HETATM   19  H   UNL     1     -41.614  57.683 -49.897  1.00  0.00     0.277 HD
HETATM   20  C   UNL     1     -42.915  57.197 -51.493  1.00  0.00     0.245 C 
BRANCH  15  21
HETATM   21  C   UNL     1     -40.780  54.269 -52.557  1.00  0.00    -0.051 A 
HETATM   22  C   UNL     1     -40.609  54.007 -53.927  1.00  0.00     0.008 A 
HETATM   23  C   UNL     1     -40.307  52.719 -54.378  1.00  0.00     0.017 A 
HETATM   24  C   UNL     1     -40.163  51.660 -53.475  1.00  0.00     0.047 A 
HETATM   25  C   UNL     1     -40.309  51.923 -52.106  1.00  0.00     0.017 A 
HETATM   26  C   UNL     1     -40.615  53.210 -51.651  1.00  0.00     0.008 A 
BRANCH  24  27
HETATM   27  C   UNL     1     -39.856  50.254 -53.952  1.00  0.00     0.417 C 
HETATM   28  F   UNL     1     -39.672  49.375 -52.932  1.00  0.00    -0.166 F 
HETATM   29  F   UNL     1     -38.733  50.203 -54.712  1.00  0.00    -0.166 F 
HETATM   30  F   UNL     1     -40.864  49.751 -54.713  1.00  0.00    -0.166 F 
ENDBRANCH  24  27
ENDBRANCH  15  21
ENDBRANCH   1  14
BRANCH   7  31
HETATM   31  C   UNL     1     -42.029  59.831 -59.462  1.00  0.00     0.010 A 
HETATM   32  C   UNL     1     -41.795  61.137 -59.954  1.00  0.00     0.152 A 
HETATM   33  N   UNL     1     -41.735  61.182 -61.285  1.00  0.00    -0.187 NA
HETATM   34  N   UNL     1     -41.928  59.910 -61.660  1.00  0.00    -0.289 N 
HETATM   35  H   UNL     1     -41.921  59.693 -62.653  1.00  0.00     0.188 HD
HETATM   36  C   UNL     1     -42.110  59.061 -60.603  1.00  0.00     0.123 A 
ENDBRANCH   7  31
TORSDOF 4
ENDMDL
MODEL 3
REMARK VINA RESULT:      -9.3      3.985      7.891
REMARK  4 active torsions:
REMARK  status: ('A' for Active; 'I' for Inactive)
REMARK    1  A    between atoms: C_2  and  C_5 
REMARK    2  A    between atoms: C_8  and  C_11 
REMARK    3  A    between atoms: C_17  and  C_18 
REMARK    4  A    between atoms: C_24  and  C_30 
ROOT
HETATM    1  C   UNL     1     -42.030  56.261 -52.933  1.00  0.00     0.091 A 
HETATM    2  N   UNL     1     -42.510  55.578 -53.967  1.00  0.00    -0.345 N 
HETATM    3  H   UNL     1     -42.817  54.612 -53.866  1.00  0.00     0.167 HD
HETATM    4  C   UNL     1     -42.591  56.163 -55.206  1.00  0.00     0.049 A 
HETATM    5  C   UNL     1     -43.120  55.447 -56.280  1.00  0.00     0.031 A 
HETATM    6  C   UNL     1     -43.254  56.051 -57.542  1.00  0.00     0.014 A 
HETATM    7  C   UNL     1     -42.862  57.381 -57.756  1.00  0.00    -0.022 A 
HETATM    8  C   UNL     1     -42.313  58.096 -56.688  1.00  0.00     0.031 A 
HETATM    9  C   UNL     1     -42.184  57.477 -55.440  1.00  0.00     0.059 A 
HETATM   10  C   UNL     1     -41.622  58.196 -54.304  1.00  0.00     0.259 A 
HETATM   11  O   UNL     1     -41.197  59.330 -54.293  1.00  0.00    -0.267 OA
HETATM   12  N   UNL     1     -41.589  57.498 -53.066  1.00  0.00    -0.312 N 
HETATM   13  H   UNL     1     -41.183  58.040 -52.314  1.00  0.00     0.170 HD
ENDROOT
BRANCH   1  14
HETATM   14  C   UNL     1     -42.004  55.600 -51.588  1.00  0.00     0.089 C 
HETATM   15  C   UNL     1     -40.644  54.975 -51.243  1.00  0.00     0.057 C 
HETATM   16  C   UNL     1     -40.673  54.859 -49.712  1.00  0.00     0.242 C 
HETATM   17  N   UNL     1     -41.488  56.038 -49.264  1.00  0.00    -0.074 N 
HETATM   18  H   UNL     1     -42.115  55.758 -48.489  1.00  0.00     0.277 HD
HETATM   19  H   UNL     1     -40.877  56.759 -48.841  1.00  0.00     0.277 HD
HETATM   20  C   UNL     1     -42.257  56.578 -50.435  1.00  0.00     0.245 C 
BRANCH  15  21
HETATM   21  C   UNL     1     -40.391  53.658 -51.937  1.00  0.00    -0.051 A 
HETATM   22  C   UNL     1     -40.078  52.489 -51.224  1.00  0.00     0.008 A 
HETATM   23  C   UNL     1     -39.800  51.294 -51.895  1.00  0.00     0.017 A 
HETATM   24  C   UNL     1     -39.833  51.234 -53.293  1.00  0.00     0.047 A 
HETATM   25  C   UNL     1     -40.169  52.394 -54.005  1.00  0.00     0.017 A 
HETATM   26  C   UNL     1     -40.443  53.592 -53.337  1.00  0.00     0.008 A 
BRANCH  24  27
HETATM   27  C   UNL     1     -39.514  49.951 -54.034  1.00  0.00     0.417 C 
HETATM   28  F   UNL     1     -40.543  49.513 -54.806  1.00  0.00    -0.166 F 
HETATM   29  F   UNL     1     -39.206  48.933 -53.190  1.00  0.00    -0.166 F 
HETATM   30  F   UNL     1     -38.450  50.102 -54.865  1.00  0.00    -0.166 F 
ENDBRANCH  24  27
ENDBRANCH  15  21
ENDBRANCH   1  14
BRANCH   7  31
HETATM   31  C   UNL     1     -43.037  58.026 -59.045  1.00  0.00     0.010 A 
HETATM   32  C   UNL     1     -42.172  58.876 -59.774  1.00  0.00     0.152 A 
HETATM   33  N   UNL     1     -42.692  59.264 -60.938  1.00  0.00    -0.187 NA
HETATM   34  N   UNL     1     -43.892  58.668 -60.969  1.00  0.00    -0.289 N 
HETATM   35  H   UNL     1     -44.484  58.818 -61.782  1.00  0.00     0.188 HD
HETATM   36  C   UNL     1     -44.146  57.914 -59.856  1.00  0.00     0.123 A 
ENDBRANCH   7  31
TORSDOF 4
ENDMDL
MODEL 4
REMARK VINA RESULT:      -9.1      4.104      8.124
REMARK  4 active torsions:
REMARK  status: ('A' for Active; 'I' for Inactive)
REMARK    1  A    between atoms: C_2  and  C_5 
REMARK    2  A    between atoms: C_8  and  C_11 
REMARK    3  A    between atoms: C_17  and  C_18 
REMARK    4  A    between atoms: C_24  and  C_30 
ROOT
HETATM    1  C   UNL     1     -43.255  57.214 -54.069  1.00  0.00     0.091 A 
HETATM    2  N   UNL     1     -43.645  56.868 -55.292  1.00  0.00    -0.345 N 
HETATM    3  H   UNL     1     -44.260  56.070 -55.445  1.00  0.00     0.167 HD
HETATM    4  C   UNL     1     -43.211  57.578 -56.384  1.00  0.00     0.049 A 
HETATM    5  C   UNL     1     -43.646  57.224 -57.661  1.00  0.00     0.031 A 
HETATM    6  C   UNL     1     -43.248  57.972 -58.782  1.00  0.00     0.014 A 
HETATM    7  C   UNL     1     -42.409  59.089 -58.649  1.00  0.00    -0.022 A 
HETATM    8  C   UNL     1     -41.955  59.436 -57.374  1.00  0.00     0.031 A 
HETATM    9  C   UNL     1     -42.358  58.677 -56.270  1.00  0.00     0.059 A 
HETATM   10  C   UNL     1     -41.909  59.015 -54.926  1.00  0.00     0.259 A 
HETATM   11  O   UNL     1     -41.161  59.914 -54.609  1.00  0.00    -0.267 OA
HETATM   12  N   UNL     1     -42.422  58.218 -53.867  1.00  0.00    -0.312 N 
HETATM   13  H   UNL     1     -42.073  58.491 -52.957  1.00  0.00     0.170 HD
ENDROOT
BRANCH   1  14
HETATM   14  C   UNL     1     -43.790  56.441 -52.902  1.00  0.00     0.089 C 
HETATM   15  C   UNL     1     -42.697  55.964 -51.934  1.00  0.00     0.057 C 
HETATM   16  C   UNL     1     -43.455  55.705 -50.624  1.00  0.00     0.242 C 
HETATM   17  N   UNL     1     -44.557  56.726 -50.624  1.00  0.00    -0.074 N 
HETATM   18  H   UNL     1     -45.432  56.299 -50.270  1.00  0.00     0.277 HD
HETATM   19  H   UNL     1     -44.353  57.476 -49.941  1.00  0.00     0.277 HD
HETATM   20  C   UNL     1     -44.725  57.269 -52.013  1.00  0.00     0.245 C 
BRANCH  15  21
HETATM   21  C   UNL     1     -41.935  54.759 -52.430  1.00  0.00    -0.051 A 
HETATM   22  C   UNL     1     -42.213  54.161 -53.671  1.00  0.00     0.008 A 
HETATM   23  C   UNL     1     -41.524  53.016 -54.084  1.00  0.00     0.017 A 
HETATM   24  C   UNL     1     -40.537  52.443 -53.274  1.00  0.00     0.047 A 
HETATM   25  C   UNL     1     -40.241  53.052 -52.047  1.00  0.00     0.017 A 
HETATM   26  C   UNL     1     -40.931  54.195 -51.629  1.00  0.00     0.008 A 
BRANCH  24  27
HETATM   27  C   UNL     1     -39.798  51.191 -53.701  1.00  0.00     0.417 C 
HETATM   28  F   UNL     1     -40.395  50.548 -54.738  1.00  0.00    -0.166 F 
HETATM   29  F   UNL     1     -39.695  50.285 -52.694  1.00  0.00    -0.166 F 
HETATM   30  F   UNL     1     -38.530  51.469 -54.103  1.00  0.00    -0.166 F 
ENDBRANCH  24  27
ENDBRANCH  15  21
ENDBRANCH   1  14
BRANCH   7  31
HETATM   31  C   UNL     1     -42.030  59.894 -59.796  1.00  0.00     0.010 A 
HETATM   32  C   UNL     1     -41.595  61.239 -59.873  1.00  0.00     0.152 A 
HETATM   33  N   UNL     1     -41.327  61.622 -61.121  1.00  0.00    -0.187 NA
HETATM   34  N   UNL     1     -41.585  60.531 -61.856  1.00  0.00    -0.289 N 
HETATM   35  H   UNL     1     -41.447  60.583 -62.862  1.00  0.00     0.188 HD
HETATM   36  C   UNL     1     -42.009  59.468 -61.107  1.00  0.00     0.123 A 
ENDBRANCH   7  31
TORSDOF 4
ENDMDL
MODEL 5
REMARK VINA RESULT:      -8.9      2.514      3.132
REMARK  4 active torsions:
REMARK  status: ('A' for Active; 'I' for Inactive)
REMARK    1  A    between atoms: C_2  and  C_5 
REMARK    2  A    between atoms: C_8  and  C_11 
REMARK    3  A    between atoms: C_17  and  C_18 
REMARK    4  A    between atoms: C_24  and  C_30 
ROOT
HETATM    1  C   UNL     1     -41.666  57.290 -52.487  1.00  0.00     0.091 A 
HETATM    2  N   UNL     1     -41.419  56.476 -51.465  1.00  0.00    -0.345 N 
HETATM    3  H   UNL     1     -41.530  56.788 -50.501  1.00  0.00     0.167 HD
HETATM    4  C   UNL     1     -40.993  55.191 -51.690  1.00  0.00     0.049 A 
HETATM    5  C   UNL     1     -40.761  54.336 -50.613  1.00  0.00     0.031 A 
HETATM    6  C   UNL     1     -40.371  53.004 -50.831  1.00  0.00     0.014 A 
HETATM    7  C   UNL     1     -40.207  52.499 -52.130  1.00  0.00    -0.022 A 
HETATM    8  C   UNL     1     -40.419  53.357 -53.213  1.00  0.00     0.031 A 
HETATM    9  C   UNL     1     -40.802  54.681 -52.976  1.00  0.00     0.059 A 
HETATM   10  C   UNL     1     -41.038  55.600 -54.081  1.00  0.00     0.259 A 
HETATM   11  O   UNL     1     -40.917  55.369 -55.264  1.00  0.00    -0.267 OA
HETATM   12  N   UNL     1     -41.481  56.906 -53.737  1.00  0.00    -0.312 N 
HETATM   13  H   UNL     1     -41.622  57.505 -54.540  1.00  0.00     0.170 HD
ENDROOT
BRANCH   1  14
HETATM   14  C   UNL     1     -42.175  58.669 -52.197  1.00  0.00     0.089 C 
HETATM   15  C   UNL     1     -43.707  58.752 -52.127  1.00  0.00     0.057 C 
HETATM   16  C   UNL     1     -43.968  60.034 -51.323  1.00  0.00     0.242 C 
HETATM   17  N   UNL     1     -42.816  60.111 -50.361  1.00  0.00    -0.074 N 
HETATM   18  H   UNL     1     -42.492  61.091 -50.280  1.00  0.00     0.277 HD
HETATM   19  H   UNL     1     -43.130  59.873 -49.404  1.00  0.00     0.277 HD
HETATM   20  C   UNL     1     -41.720  59.200 -50.831  1.00  0.00     0.245 C 
BRANCH  15  21
HETATM   21  C   UNL     1     -44.373  58.752 -53.482  1.00  0.00    -0.051 A 
HETATM   22  C   UNL     1     -44.913  57.584 -54.046  1.00  0.00     0.008 A 
HETATM   23  C   UNL     1     -45.482  57.602 -55.323  1.00  0.00     0.017 A 
HETATM   24  C   UNL     1     -45.531  58.786 -56.068  1.00  0.00     0.047 A 
HETATM   25  C   UNL     1     -45.014  59.958 -55.498  1.00  0.00     0.017 A 
HETATM   26  C   UNL     1     -44.441  59.942 -54.222  1.00  0.00     0.008 A 
BRANCH  24  27
HETATM   27  C   UNL     1     -46.125  58.815 -57.461  1.00  0.00     0.417 C 
HETATM   28  F   UNL     1     -47.446  58.494 -57.483  1.00  0.00    -0.166 F 
HETATM   29  F   UNL     1     -45.505  57.950 -58.304  1.00  0.00    -0.166 F 
HETATM   30  F   UNL     1     -46.023  60.048 -58.026  1.00  0.00    -0.166 F 
ENDBRANCH  24  27
ENDBRANCH  15  21
ENDBRANCH   1  14
BRANCH   7  31
HETATM   31  C   UNL     1     -39.848  51.112 -52.366  1.00  0.00     0.010 A 
HETATM   32  C   UNL     1     -39.665  50.401 -53.576  1.00  0.00     0.152 A 
HETATM   33  N   UNL     1     -39.325  49.128 -53.379  1.00  0.00    -0.187 NA
HETATM   34  N   UNL     1     -39.284  49.008 -52.045  1.00  0.00    -0.289 N 
HETATM   35  H   UNL     1     -39.038  48.105 -51.648  1.00  0.00     0.188 HD
HETATM   36  C   UNL     1     -39.591  50.171 -51.392  1.00  0.00     0.123 A 
ENDBRANCH   7  31
TORSDOF 4
ENDMDL
MODEL 6
REMARK VINA RESULT:      -8.7      4.557      8.469
REMARK  4 active torsions:
REMARK  status: ('A' for Active; 'I' for Inactive)
REMARK    1  A    between atoms: C_2  and  C_5 
REMARK    2  A    between atoms: C_8  and  C_11 
REMARK    3  A    between atoms: C_17  and  C_18 
REMARK    4  A    between atoms: C_24  and  C_30 
ROOT
HETATM    1  C   UNL     1     -42.429  57.774 -54.529  1.00  0.00     0.091 A 
HETATM    2  N   UNL     1     -43.649  58.133 -54.144  1.00  0.00    -0.345 N 
HETATM    3  H   UNL     1     -44.479  57.778 -54.617  1.00  0.00     0.167 HD
HETATM    4  C   UNL     1     -43.817  59.007 -53.099  1.00  0.00     0.049 A 
HETATM    5  C   UNL     1     -45.102  59.359 -52.684  1.00  0.00     0.031 A 
HETATM    6  C   UNL     1     -45.287  60.214 -51.585  1.00  0.00     0.014 A 
HETATM    7  C   UNL     1     -44.193  60.734 -50.877  1.00  0.00    -0.022 A 
HETATM    8  C   UNL     1     -42.903  60.401 -51.300  1.00  0.00     0.031 A 
HETATM    9  C   UNL     1     -42.738  59.552 -52.399  1.00  0.00     0.059 A 
HETATM   10  C   UNL     1     -41.409  59.179 -52.863  1.00  0.00     0.259 A 
HETATM   11  O   UNL     1     -40.346  59.547 -52.412  1.00  0.00    -0.267 OA
HETATM   12  N   UNL     1     -41.349  58.264 -53.949  1.00  0.00    -0.312 N 
HETATM   13  H   UNL     1     -40.403  58.046 -54.235  1.00  0.00     0.170 HD
ENDROOT
BRANCH   1  14
HETATM   14  C   UNL     1     -42.293  56.781 -55.643  1.00  0.00     0.089 C 
HETATM   15  C   UNL     1     -42.932  55.421 -55.329  1.00  0.00     0.057 C 
HETATM   16  C   UNL     1     -43.156  54.793 -56.712  1.00  0.00     0.242 C 
HETATM   17  N   UNL     1     -43.443  55.964 -57.610  1.00  0.00    -0.074 N 
HETATM   18  H   UNL     1     -42.969  55.831 -58.521  1.00  0.00     0.277 HD
HETATM   19  H   UNL     1     -44.448  55.992 -57.855  1.00  0.00     0.277 HD
HETATM   20  C   UNL     1     -43.000  57.226 -56.930  1.00  0.00     0.245 C 
BRANCH  15  21
HETATM   21  C   UNL     1     -42.098  54.560 -54.411  1.00  0.00    -0.051 A 
HETATM   22  C   UNL     1     -41.016  53.798 -54.883  1.00  0.00     0.008 A 
HETATM   23  C   UNL     1     -40.291  52.972 -54.019  1.00  0.00     0.017 A 
HETATM   24  C   UNL     1     -40.623  52.889 -52.663  1.00  0.00     0.047 A 
HETATM   25  C   UNL     1     -41.686  53.666 -52.184  1.00  0.00     0.017 A 
HETATM   26  C   UNL     1     -42.416  54.491 -53.046  1.00  0.00     0.008 A 
BRANCH  24  27
HETATM   27  C   UNL     1     -39.858  51.982 -51.719  1.00  0.00     0.417 C 
HETATM   28  F   UNL     1     -40.390  51.944 -50.470  1.00  0.00    -0.166 F 
HETATM   29  F   UNL     1     -38.563  52.364 -51.575  1.00  0.00    -0.166 F 
HETATM   30  F   UNL     1     -39.836  50.698 -52.164  1.00  0.00    -0.166 F 
ENDBRANCH  24  27
ENDBRANCH  15  21
ENDBRANCH   1  14
BRANCH   7  31
HETATM   31  C   UNL     1     -44.376  61.583 -49.713  1.00  0.00     0.010 A 
HETATM   32  C   UNL     1     -44.034  62.939 -49.500  1.00  0.00     0.152 A 
HETATM   33  N   UNL     1     -44.377  63.372 -48.287  1.00  0.00    -0.187 NA
HETATM   34  N   UNL     1     -44.942  62.302 -47.711  1.00  0.00    -0.289 N 
HETATM   35  H   UNL     1     -45.292  62.394 -46.761  1.00  0.00     0.188 HD
HETATM   36  C   UNL     1     -44.965  61.203 -48.526  1.00  0.00     0.123 A 
ENDBRANCH   7  31
TORSDOF 4
ENDMDL
MODEL 7
REMARK VINA RESULT:      -8.7      4.119      5.321
REMARK  4 active torsions:
REMARK  status: ('A' for Active; 'I' for Inactive)
REMARK    1  A    between atoms: C_2  and  C_5 
REMARK    2  A    between atoms: C_8  and  C_11 
REMARK    3  A    between atoms: C_17  and  C_18 
REMARK    4  A    between atoms: C_24  and  C_30 
ROOT
HETATM    1  C   UNL     1     -42.518  56.805 -54.770  1.00  0.00     0.091 A 
HETATM    2  N   UNL     1     -41.619  55.992 -55.317  1.00  0.00    -0.345 N 
HETATM    3  H   UNL     1     -41.186  56.209 -56.214  1.00  0.00     0.167 HD
HETATM    4  C   UNL     1     -41.261  54.828 -54.684  1.00  0.00     0.049 A 
HETATM    5  C   UNL     1     -40.298  53.994 -55.253  1.00  0.00     0.031 A 
HETATM    6  C   UNL     1     -39.888  52.824 -54.590  1.00  0.00     0.014 A 
HETATM    7  C   UNL     1     -40.432  52.465 -53.348  1.00  0.00    -0.022 A 
HETATM    8  C   UNL     1     -41.411  53.287 -52.783  1.00  0.00     0.031 A 
HETATM    9  C   UNL     1     -41.810  54.445 -53.459  1.00  0.00     0.059 A 
HETATM   10  C   UNL     1     -42.823  55.327 -52.896  1.00  0.00     0.259 A 
HETATM   11  O   UNL     1     -43.432  55.176 -51.860  1.00  0.00    -0.267 OA
HETATM   12  N   UNL     1     -43.115  56.509 -53.631  1.00  0.00    -0.312 N 
HETATM   13  H   UNL     1     -43.830  57.080 -53.200  1.00  0.00     0.170 HD
ENDROOT
BRANCH   1  14
HETATM   14  C   UNL     1     -42.844  58.088 -55.473  1.00  0.00     0.089 C 
HETATM   15  C   UNL     1     -42.070  59.296 -54.925  1.00  0.00     0.057 C 
HETATM   16  C   UNL     1     -42.129  60.318 -56.070  1.00  0.00     0.242 C 
HETATM   17  N   UNL     1     -42.124  59.481 -57.317  1.00  0.00    -0.074 N 
HETATM   18  H   UNL     1     -42.784  59.878 -58.009  1.00  0.00     0.277 HD
HETATM   19  H   UNL     1     -41.204  59.541 -57.788  1.00  0.00     0.277 HD
HETATM   20  C   UNL     1     -42.476  58.065 -56.961  1.00  0.00     0.245 C 
BRANCH  15  21
HETATM   21  C   UNL     1     -42.621  59.826 -53.623  1.00  0.00    -0.051 A 
HETATM   22  C   UNL     1     -43.948  60.269 -53.501  1.00  0.00     0.008 A 
HETATM   23  C   UNL     1     -44.418  60.800 -52.296  1.00  0.00     0.017 A 
HETATM   24  C   UNL     1     -43.578  60.898 -51.181  1.00  0.00     0.047 A 
HETATM   25  C   UNL     1     -42.260  60.434 -51.293  1.00  0.00     0.017 A 
HETATM   26  C   UNL     1     -41.785  59.906 -52.498  1.00  0.00     0.008 A 
BRANCH  24  27
HETATM   27  C   UNL     1     -44.068  61.490 -49.875  1.00  0.00     0.417 C 
HETATM   28  F   UNL     1     -43.624  62.758 -49.666  1.00  0.00    -0.166 F 
HETATM   29  F   UNL     1     -43.673  60.762 -48.799  1.00  0.00    -0.166 F 
HETATM   30  F   UNL     1     -45.425  61.548 -49.828  1.00  0.00    -0.166 F 
ENDBRANCH  24  27
ENDBRANCH  15  21
ENDBRANCH   1  14
BRANCH   7  31
HETATM   31  C   UNL     1     -39.982  51.282 -52.636  1.00  0.00     0.010 A 
HETATM   32  C   UNL     1     -39.693  51.087 -51.265  1.00  0.00     0.152 A 
HETATM   33  N   UNL     1     -39.312  49.840 -50.991  1.00  0.00    -0.187 NA
HETATM   34  N   UNL     1     -39.353  49.222 -52.180  1.00  0.00    -0.289 N 
HETATM   35  H   UNL     1     -39.100  48.238 -52.222  1.00  0.00     0.188 HD
HETATM   36  C   UNL     1     -39.749  50.045 -53.198  1.00  0.00     0.123 A 
ENDBRANCH   7  31
TORSDOF 4
ENDMDL
MODEL 8
REMARK VINA RESULT:      -8.7      1.495      2.177
REMARK  4 active torsions:
REMARK  status: ('A' for Active; 'I' for Inactive)
REMARK    1  A    between atoms: C_2  and  C_5 
REMARK    2  A    between atoms: C_8  and  C_11 
REMARK    3  A    between atoms: C_17  and  C_18 
REMARK    4  A    between atoms: C_24  and  C_30 
ROOT
HETATM    1  C   UNL     1     -42.048  57.747 -53.978  1.00  0.00     0.091 A 
HETATM    2  N   UNL     1     -41.469  56.877 -54.799  1.00  0.00    -0.345 N 
HETATM    3  H   UNL     1     -41.246  57.125 -55.762  1.00  0.00     0.167 HD
HETATM    4  C   UNL     1     -41.167  55.610 -54.365  1.00  0.00     0.049 A 
HETATM    5  C   UNL     1     -40.536  54.712 -55.225  1.00  0.00     0.031 A 
HETATM    6  C   UNL     1     -40.178  53.428 -54.777  1.00  0.00     0.014 A 
HETATM    7  C   UNL     1     -40.443  53.018 -53.462  1.00  0.00    -0.022 A 
HETATM    8  C   UNL     1     -41.093  53.908 -52.602  1.00  0.00     0.031 A 
HETATM    9  C   UNL     1     -41.446  55.179 -53.067  1.00  0.00     0.059 A 
HETATM   10  C   UNL     1     -42.118  56.133 -52.195  1.00  0.00     0.259 A 
HETATM   11  O   UNL     1     -42.462  55.960 -51.047  1.00  0.00    -0.267 OA
HETATM   12  N   UNL     1     -42.380  57.418 -52.744  1.00  0.00    -0.312 N 
HETATM   13  H   UNL     1     -42.854  58.038 -52.100  1.00  0.00     0.170 HD
ENDROOT
BRANCH   1  14
HETATM   14  C   UNL     1     -42.317  59.134 -54.480  1.00  0.00     0.089 C 
HETATM   15  C   UNL     1     -43.804  59.408 -54.748  1.00  0.00     0.057 C 
HETATM   16  C   UNL     1     -43.907  60.940 -54.714  1.00  0.00     0.242 C 
HETATM   17  N   UNL     1     -42.873  61.359 -53.707  1.00  0.00    -0.074 N 
HETATM   18  H   UNL     1     -42.382  62.207 -54.041  1.00  0.00     0.277 HD
HETATM   19  H   UNL     1     -43.329  61.666 -52.830  1.00  0.00     0.277 HD
HETATM   20  C   UNL     1     -41.924  60.221 -53.472  1.00  0.00     0.245 C 
BRANCH  15  21
HETATM   21  C   UNL     1     -44.306  58.805 -56.038  1.00  0.00    -0.051 A 
HETATM   22  C   UNL     1     -43.453  58.560 -57.127  1.00  0.00     0.008 A 
HETATM   23  C   UNL     1     -43.954  58.045 -58.327  1.00  0.00     0.017 A 
HETATM   24  C   UNL     1     -45.316  57.757 -58.469  1.00  0.00     0.047 A 
HETATM   25  C   UNL     1     -46.165  57.978 -57.376  1.00  0.00     0.017 A 
HETATM   26  C   UNL     1     -45.668  58.496 -56.175  1.00  0.00     0.008 A 
BRANCH  24  27
HETATM   27  C   UNL     1     -45.875  57.218 -59.770  1.00  0.00     0.417 C 
HETATM   28  F   UNL     1     -46.276  58.198 -60.623  1.00  0.00    -0.166 F 
HETATM   29  F   UNL     1     -46.951  56.414 -59.574  1.00  0.00    -0.166 F 
HETATM   30  F   UNL     1     -44.955  56.478 -60.444  1.00  0.00    -0.166 F 
ENDBRANCH  24  27
ENDBRANCH  15  21
ENDBRANCH   1  14
BRANCH   7  31
HETATM   31  C   UNL     1     -40.037  51.711 -52.978  1.00  0.00     0.010 A 
HETATM   32  C   UNL     1     -39.646  51.288 -51.686  1.00  0.00     0.152 A 
HETATM   33  N   UNL     1     -39.352  49.989 -51.635  1.00  0.00    -0.187 NA
HETATM   34  N   UNL     1     -39.551  49.565 -52.891  1.00  0.00    -0.289 N 
HETATM   35  H   UNL     1     -39.389  48.584 -53.101  1.00  0.00     0.188 HD
HETATM   36  C   UNL     1     -39.962  50.560 -53.735  1.00  0.00     0.123 A 
ENDBRANCH   7  31
TORSDOF 4
ENDMDL
MODEL 9
REMARK VINA RESULT:      -8.6      4.754      8.441
REMARK  4 active torsions:
REMARK  status: ('A' for Active; 'I' for Inactive)
REMARK    1  A    between atoms: C_2  and  C_5 
REMARK    2  A    between atoms: C_8  and  C_11 
REMARK    3  A    between atoms: C_17  and  C_18 
REMARK    4  A    between atoms: C_24  and  C_30 
ROOT
HETATM    1  C   UNL     1     -43.350  57.469 -55.461  1.00  0.00     0.091 A 
HETATM    2  N   UNL     1     -44.599  57.905 -55.592  1.00  0.00    -0.345 N 
HETATM    3  H   UNL     1     -45.105  58.309 -54.805  1.00  0.00     0.167 HD
HETATM    4  C   UNL     1     -45.243  57.806 -56.801  1.00  0.00     0.049 A 
HETATM    5  C   UNL     1     -46.545  58.289 -56.937  1.00  0.00     0.031 A 
HETATM    6  C   UNL     1     -47.197  58.238 -58.181  1.00  0.00     0.014 A 
HETATM    7  C   UNL     1     -46.562  57.705 -59.313  1.00  0.00    -0.022 A 
HETATM    8  C   UNL     1     -45.265  57.202 -59.177  1.00  0.00     0.031 A 
HETATM    9  C   UNL     1     -44.633  57.257 -57.930  1.00  0.00     0.059 A 
HETATM   10  C   UNL     1     -43.280  56.747 -57.755  1.00  0.00     0.259 A 
HETATM   11  O   UNL     1     -42.581  56.222 -58.594  1.00  0.00    -0.267 OA
HETATM   12  N   UNL     1     -42.705  56.904 -56.464  1.00  0.00    -0.312 N 
HETATM   13  H   UNL     1     -41.769  56.527 -56.396  1.00  0.00     0.170 HD
ENDROOT
BRANCH   1  14
HETATM   14  C   UNL     1     -42.669  57.639 -54.136  1.00  0.00     0.089 C 
HETATM   15  C   UNL     1     -41.199  57.196 -54.146  1.00  0.00     0.057 C 
HETATM   16  C   UNL     1     -40.588  57.927 -52.942  1.00  0.00     0.242 C 
HETATM   17  N   UNL     1     -41.348  59.222 -52.869  1.00  0.00    -0.074 N 
HETATM   18  H   UNL     1     -41.550  59.455 -51.880  1.00  0.00     0.277 HD
HETATM   19  H   UNL     1     -40.755  60.006 -53.192  1.00  0.00     0.277 HD
HETATM   20  C   UNL     1     -42.604  59.102 -53.681  1.00  0.00     0.245 C 
BRANCH  15  21
HETATM   21  C   UNL     1     -41.020  55.698 -54.087  1.00  0.00    -0.051 A 
HETATM   22  C   UNL     1     -41.609  54.916 -53.079  1.00  0.00     0.008 A 
HETATM   23  C   UNL     1     -41.388  53.536 -53.021  1.00  0.00     0.017 A 
HETATM   24  C   UNL     1     -40.577  52.902 -53.968  1.00  0.00     0.047 A 
HETATM   25  C   UNL     1     -40.007  53.676 -54.989  1.00  0.00     0.017 A 
HETATM   26  C   UNL     1     -40.224  55.056 -55.048  1.00  0.00     0.008 A 
BRANCH  24  27
HETATM   27  C   UNL     1     -40.311  51.411 -53.905  1.00  0.00     0.417 C 
HETATM   28  F   UNL     1     -41.304  50.670 -54.464  1.00  0.00    -0.166 F 
HETATM   29  F   UNL     1     -40.171  50.967 -52.630  1.00  0.00    -0.166 F 
HETATM   30  F   UNL     1     -39.169  51.076 -54.561  1.00  0.00    -0.166 F 
ENDBRANCH  24  27
ENDBRANCH  15  21
ENDBRANCH   1  14
BRANCH   7  31
HETATM   31  C   UNL     1     -47.212  57.689 -60.611  1.00  0.00     0.010 A 
HETATM   32  C   UNL     1     -47.691  56.608 -61.387  1.00  0.00     0.152 A 
HETATM   33  N   UNL     1     -48.243  57.002 -62.535  1.00  0.00    -0.187 NA
HETATM   34  N   UNL     1     -48.124  58.337 -62.507  1.00  0.00    -0.289 N 
HETATM   35  H   UNL     1     -48.485  58.870 -63.294  1.00  0.00     0.188 HD
HETATM   36  C   UNL     1     -47.512  58.798 -61.374  1.00  0.00     0.123 A 
ENDBRANCH   7  31
TORSDOF 4
ENDMDL
MODEL 10
REMARK VINA RESULT:      -8.5      4.003      8.167
REMARK  4 active torsions:
REMARK  status: ('A' for Active; 'I' for Inactive)
REMARK    1  A    between atoms: C_2  and  C_5 
REMARK    2  A    between atoms: C_8  and  C_11 
REMARK    3  A    between atoms: C_17  and  C_18 
REMARK    4  A    between atoms: C_24  and  C_30 
ROOT
HETATM    1  C   UNL     1     -42.710  57.281 -54.154  1.00  0.00     0.091 A 
HETATM    2  N   UNL     1     -42.463  58.550 -54.461  1.00  0.00    -0.345 N 
HETATM    3  H   UNL     1     -42.330  59.254 -53.736  1.00  0.00     0.167 HD
HETATM    4  C   UNL     1     -42.392  58.944 -55.774  1.00  0.00     0.049 A 
HETATM    5  C   UNL     1     -42.107  60.273 -56.088  1.00  0.00     0.031 A 
HETATM    6  C   UNL     1     -41.984  60.678 -57.428  1.00  0.00     0.014 A 
HETATM    7  C   UNL     1     -42.143  59.764 -58.481  1.00  0.00    -0.022 A 
HETATM    8  C   UNL     1     -42.449  58.435 -58.172  1.00  0.00     0.031 A 
HETATM    9  C   UNL     1     -42.571  58.051 -56.833  1.00  0.00     0.059 A 
HETATM   10  C   UNL     1     -42.882  56.674 -56.476  1.00  0.00     0.259 A 
HETATM   11  O   UNL     1     -43.088  55.750 -57.232  1.00  0.00    -0.267 OA
HETATM   12  N   UNL     1     -42.926  56.373 -55.087  1.00  0.00    -0.312 N 
HETATM   13  H   UNL     1     -43.153  55.405 -54.896  1.00  0.00     0.170 HD
ENDROOT
BRANCH   1  14
HETATM   14  C   UNL     1     -42.731  56.886 -52.708  1.00  0.00     0.089 C 
HETATM   15  C   UNL     1     -41.368  56.408 -52.187  1.00  0.00     0.057 C 
HETATM   16  C   UNL     1     -41.477  56.580 -50.665  1.00  0.00     0.242 C 
HETATM   17  N   UNL     1     -42.365  57.779 -50.488  1.00  0.00    -0.074 N 
HETATM   18  H   UNL     1     -43.022  57.617 -49.704  1.00  0.00     0.277 HD
HETATM   19  H   UNL     1     -41.809  58.596 -50.182  1.00  0.00     0.277 HD
HETATM   20  C   UNL     1     -43.089  58.049 -51.775  1.00  0.00     0.245 C 
BRANCH  15  21
HETATM   21  C   UNL     1     -41.022  54.999 -52.605  1.00  0.00    -0.051 A 
HETATM   22  C   UNL     1     -41.050  53.925 -51.700  1.00  0.00     0.008 A 
HETATM   23  C   UNL     1     -40.678  52.639 -52.103  1.00  0.00     0.017 A 
HETATM   24  C   UNL     1     -40.273  52.391 -53.419  1.00  0.00     0.047 A 
HETATM   25  C   UNL     1     -40.267  53.456 -54.330  1.00  0.00     0.017 A 
HETATM   26  C   UNL     1     -40.635  54.744 -53.930  1.00  0.00     0.008 A 
BRANCH  24  27
HETATM   27  C   UNL     1     -39.847  51.006 -53.864  1.00  0.00     0.417 C 
HETATM   28  F   UNL     1     -38.553  50.953 -54.273  1.00  0.00    -0.166 F 
HETATM   29  F   UNL     1     -40.597  50.544 -54.898  1.00  0.00    -0.166 F 
HETATM   30  F   UNL     1     -39.968  50.097 -52.861  1.00  0.00    -0.166 F 
ENDBRANCH  24  27
ENDBRANCH  15  21
ENDBRANCH   1  14
BRANCH   7  31
HETATM   31  C   UNL     1     -41.974  60.164 -59.866  1.00  0.00     0.010 A 
HETATM   32  C   UNL     1     -42.343  59.509 -61.065  1.00  0.00     0.152 A 
HETATM   33  N   UNL     1     -42.024  60.209 -62.153  1.00  0.00    -0.187 NA
HETATM   34  N   UNL     1     -41.451  61.318 -61.666  1.00  0.00    -0.289 N 
HETATM   35  H   UNL     1     -41.120  62.020 -62.324  1.00  0.00     0.188 HD
HETATM   36  C   UNL     1     -41.397  61.339 -60.299  1.00  0.00     0.123 A 
ENDBRANCH   7  31
TORSDOF 4
ENDMDL
