MODEL 1
REMARK VINA RESULT:      -7.8      0.000      0.000
REMARK  5 active torsions:
REMARK  status: ('A' for Active; 'I' for Inactive)
REMARK    1  A    between atoms: C_3  and  N_4 
REMARK       I    between atoms: N_4  and  C_5 
REMARK       I    between atoms: C_5  and  N_6 
REMARK    2  A    between atoms: N_6  and  C_7 
REMARK    3  A    between atoms: C_7  and  C_8 
REMARK    4  A    between atoms: C_10  and  O_11 
REMARK    5  A    between atoms: O_11  and  C_12 
ROOT
HETATM    1  N   UNL     1     -41.070  55.212 -52.754  1.00  0.00    -0.308 N 
HETATM    2  C   UNL     1     -42.385  55.604 -52.896  1.00  0.00     0.321 C 
HETATM    3  N   UNL     1     -42.461  56.929 -53.265  1.00  0.00    -0.339 N 
HETATM    4  O   UNL     1     -43.373  54.894 -52.767  1.00  0.00    -0.247 OA
HETATM    5  H   UNL     1     -40.469  55.671 -53.418  1.00  0.00     0.170 HD
HETATM    6  H   UNL     1     -41.656  57.507 -53.080  1.00  0.00     0.164 HD
ENDROOT
BRANCH   3   7
HETATM    7  C   UNL     1     -43.742  57.590 -53.402  1.00  0.00     0.163 C 
BRANCH   7   8
HETATM    8  C   UNL     1     -44.130  57.857 -54.834  1.00  0.00    -0.035 A 
HETATM    9  C   UNL     1     -43.678  57.059 -55.890  1.00  0.00     0.066 A 
HETATM   10  C   UNL     1     -44.127  57.331 -57.174  1.00  0.00     0.164 A 
HETATM   11  N   UNL     1     -44.994  58.318 -57.478  1.00  0.00    -0.237 NA
HETATM   12  C   UNL     1     -45.439  59.061 -56.446  1.00  0.00     0.120 A 
HETATM   13  C   UNL     1     -45.046  58.874 -55.129  1.00  0.00     0.028 A 
BRANCH  10  14
HETATM   14  O   UNL     1     -43.634  56.526 -58.184  1.00  0.00    -0.329 OA
BRANCH  14  15
HETATM   15  C   UNL     1     -44.595  56.068 -59.159  1.00  0.00     0.130 C 
HETATM   16  C   UNL     1     -44.337  56.446 -60.642  1.00  0.00     0.032 C 
HETATM   17  C   UNL     1     -44.814  55.032 -61.020  1.00  0.00     0.005 C 
HETATM   18  C   UNL     1     -44.411  54.592 -59.601  1.00  0.00     0.032 C 
ENDBRANCH  14  15
ENDBRANCH  10  14
ENDBRANCH   7   8
ENDBRANCH   3   7
BRANCH   1  19
HETATM   19  C   UNL     1     -40.638  53.945 -52.283  1.00  0.00     0.048 A 
HETATM   20  C   UNL     1     -40.228  52.990 -53.248  1.00  0.00    -0.033 A 
HETATM   21  C   UNL     1     -40.243  53.276 -54.728  1.00  0.00     0.050 C 
HETATM   22  C   UNL     1     -39.821  51.709 -52.834  1.00  0.00     0.033 A 
HETATM   23  C   UNL     1     -39.805  51.377 -51.486  1.00  0.00     0.035 A 
HETATM   24  C   UNL     1     -40.162  52.320 -50.532  1.00  0.00     0.033 A 
HETATM   25 CL   UNL     1     -39.317  49.801 -50.997  1.00  0.00    -0.084 Cl
HETATM   26  C   UNL     1     -40.549  53.621 -50.909  1.00  0.00    -0.033 A 
HETATM   27  C   UNL     1     -40.811  54.590 -49.786  1.00  0.00     0.050 C 
ENDBRANCH   1  19
TORSDOF 5
ENDMDL
MODEL 2
REMARK VINA RESULT:      -7.8      3.731      6.360
REMARK  5 active torsions:
REMARK  status: ('A' for Active; 'I' for Inactive)
REMARK    1  A    between atoms: C_3  and  N_4 
REMARK       I    between atoms: N_4  and  C_5 
REMARK       I    between atoms: C_5  and  N_6 
REMARK    2  A    between atoms: N_6  and  C_7 
REMARK    3  A    between atoms: C_7  and  C_8 
REMARK    4  A    between atoms: C_10  and  O_11 
REMARK    5  A    between atoms: O_11  and  C_12 
ROOT
HETATM    1  N   UNL     1     -41.479  54.937 -52.353  1.00  0.00    -0.308 N 
HETATM    2  C   UNL     1     -42.766  55.070 -51.876  1.00  0.00     0.321 C 
HETATM    3  N   UNL     1     -43.009  56.369 -51.486  1.00  0.00    -0.339 N 
HETATM    4  O   UNL     1     -43.619  54.195 -51.831  1.00  0.00    -0.247 OA
HETATM    5  H   UNL     1     -41.174  55.763 -52.842  1.00  0.00     0.170 HD
HETATM    6  H   UNL     1     -42.209  56.949 -51.288  1.00  0.00     0.164 HD
ENDROOT
BRANCH   3   7
HETATM    7  C   UNL     1     -44.271  56.740 -50.880  1.00  0.00     0.163 C 
BRANCH   7   8
HETATM    8  C   UNL     1     -44.846  58.021 -51.425  1.00  0.00    -0.035 A 
HETATM    9  C   UNL     1     -45.378  59.013 -50.594  1.00  0.00     0.066 A 
HETATM   10  C   UNL     1     -45.834  60.192 -51.165  1.00  0.00     0.164 A 
HETATM   11  N   UNL     1     -45.787  60.459 -52.487  1.00  0.00    -0.237 NA
HETATM   12  C   UNL     1     -45.249  59.503 -53.270  1.00  0.00     0.120 A 
HETATM   13  C   UNL     1     -44.772  58.289 -52.797  1.00  0.00     0.028 A 
BRANCH  10  14
HETATM   14  O   UNL     1     -46.369  61.130 -50.303  1.00  0.00    -0.329 OA
BRANCH  14  15
HETATM   15  C   UNL     1     -45.680  61.305 -49.046  1.00  0.00     0.130 C 
HETATM   16  C   UNL     1     -44.485  62.295 -49.023  1.00  0.00     0.032 C 
HETATM   17  C   UNL     1     -44.981  62.763 -47.643  1.00  0.00     0.005 C 
HETATM   18  C   UNL     1     -46.380  62.273 -48.057  1.00  0.00     0.032 C 
ENDBRANCH  14  15
ENDBRANCH  10  14
ENDBRANCH   7   8
ENDBRANCH   3   7
BRANCH   1  19
HETATM   19  C   UNL     1     -40.869  53.715 -52.739  1.00  0.00     0.048 A 
HETATM   20  C   UNL     1     -40.825  53.410 -54.123  1.00  0.00    -0.033 A 
HETATM   21  C   UNL     1     -41.400  54.326 -55.173  1.00  0.00     0.050 C 
HETATM   22  C   UNL     1     -40.259  52.197 -54.553  1.00  0.00     0.033 A 
HETATM   23  C   UNL     1     -39.732  51.301 -53.633  1.00  0.00     0.035 A 
HETATM   24  C   UNL     1     -39.731  51.611 -52.280  1.00  0.00     0.033 A 
HETATM   25 CL   UNL     1     -39.055  49.814 -54.174  1.00  0.00    -0.084 Cl
HETATM   26  C   UNL     1     -40.265  52.829 -51.816  1.00  0.00    -0.033 A 
HETATM   27  C   UNL     1     -40.113  53.105 -50.343  1.00  0.00     0.050 C 
ENDBRANCH   1  19
TORSDOF 5
ENDMDL
MODEL 3
REMARK VINA RESULT:      -7.7      1.029      2.129
REMARK  5 active torsions:
REMARK  status: ('A' for Active; 'I' for Inactive)
REMARK    1  A    between atoms: C_3  and  N_4 
REMARK       I    between atoms: N_4  and  C_5 
REMARK       I    between atoms: C_5  and  N_6 
REMARK    2  A    between atoms: N_6  and  C_7 
REMARK    3  A    between atoms: C_7  and  C_8 
REMARK    4  A    between atoms: C_10  and  O_11 
REMARK    5  A    between atoms: O_11  and  C_12 
ROOT
HETATM    1  N   UNL     1     -40.982  55.185 -52.712  1.00  0.00    -0.308 N 
HETATM    2  C   UNL     1     -42.194  55.536 -53.270  1.00  0.00     0.321 C 
HETATM    3  N   UNL     1     -42.270  56.899 -53.453  1.00  0.00    -0.339 N 
HETATM    4  O   UNL     1     -43.085  54.771 -53.611  1.00  0.00    -0.247 OA
HETATM    5  H   UNL     1     -40.235  55.776 -53.040  1.00  0.00     0.170 HD
HETATM    6  H   UNL     1     -41.646  57.474 -52.908  1.00  0.00     0.164 HD
ENDROOT
BRANCH   3   7
HETATM    7  C   UNL     1     -43.480  57.515 -53.956  1.00  0.00     0.163 C 
BRANCH   7   8
HETATM    8  C   UNL     1     -43.401  57.895 -55.412  1.00  0.00    -0.035 A 
HETATM    9  C   UNL     1     -44.373  57.504 -56.339  1.00  0.00     0.066 A 
HETATM   10  C   UNL     1     -44.262  57.944 -57.649  1.00  0.00     0.164 A 
HETATM   11  N   UNL     1     -43.275  58.745 -58.097  1.00  0.00    -0.237 NA
HETATM   12  C   UNL     1     -42.360  59.132 -57.186  1.00  0.00     0.120 A 
HETATM   13  C   UNL     1     -42.379  58.743 -55.855  1.00  0.00     0.028 A 
BRANCH  10  14
HETATM   14  O   UNL     1     -45.237  57.512 -58.530  1.00  0.00    -0.329 OA
BRANCH  14  15
HETATM   15  C   UNL     1     -44.781  56.706 -59.638  1.00  0.00     0.130 C 
HETATM   16  C   UNL     1     -44.021  55.397 -59.299  1.00  0.00     0.032 C 
HETATM   17  C   UNL     1     -44.783  54.728 -60.456  1.00  0.00     0.005 C 
HETATM   18  C   UNL     1     -45.872  55.800 -60.267  1.00  0.00     0.032 C 
ENDBRANCH  14  15
ENDBRANCH  10  14
ENDBRANCH   7   8
ENDBRANCH   3   7
BRANCH   1  19
HETATM   19  C   UNL     1     -40.616  53.878 -52.298  1.00  0.00     0.048 A 
HETATM   20  C   UNL     1     -40.741  53.566 -50.920  1.00  0.00    -0.033 A 
HETATM   21  C   UNL     1     -41.235  54.565 -49.905  1.00  0.00     0.050 C 
HETATM   22  C   UNL     1     -40.362  52.295 -50.455  1.00  0.00     0.033 A 
HETATM   23  C   UNL     1     -39.879  51.337 -51.337  1.00  0.00     0.035 A 
HETATM   24  C   UNL     1     -39.796  51.619 -52.694  1.00  0.00     0.033 A 
HETATM   25 CL   UNL     1     -39.406  49.790 -50.750  1.00  0.00    -0.084 Cl
HETATM   26  C   UNL     1     -40.192  52.873 -53.199  1.00  0.00    -0.033 A 
HETATM   27  C   UNL     1     -40.160  53.029 -54.696  1.00  0.00     0.050 C 
ENDBRANCH   1  19
TORSDOF 5
ENDMDL
MODEL 4
REMARK VINA RESULT:      -7.7      3.444      8.328
REMARK  5 active torsions:
REMARK  status: ('A' for Active; 'I' for Inactive)
REMARK    1  A    between atoms: C_3  and  N_4 
REMARK       I    between atoms: N_4  and  C_5 
REMARK       I    between atoms: C_5  and  N_6 
REMARK    2  A    between atoms: N_6  and  C_7 
REMARK    3  A    between atoms: C_7  and  C_8 
REMARK    4  A    between atoms: C_10  and  O_11 
REMARK    5  A    between atoms: O_11  and  C_12 
ROOT
HETATM    1  N   UNL     1     -42.148  56.178 -56.490  1.00  0.00    -0.308 N 
HETATM    2  C   UNL     1     -42.103  54.912 -55.944  1.00  0.00     0.321 C 
HETATM    3  N   UNL     1     -40.813  54.580 -55.590  1.00  0.00    -0.339 N 
HETATM    4  O   UNL     1     -43.056  54.174 -55.741  1.00  0.00    -0.247 OA
HETATM    5  H   UNL     1     -41.480  56.796 -56.058  1.00  0.00     0.170 HD
HETATM    6  H   UNL     1     -40.066  55.095 -56.030  1.00  0.00     0.164 HD
ENDROOT
BRANCH   3   7
HETATM    7  C   UNL     1     -40.502  53.268 -55.063  1.00  0.00     0.163 C 
BRANCH   7   8
HETATM    8  C   UNL     1     -40.379  53.237 -53.561  1.00  0.00    -0.035 A 
HETATM    9  C   UNL     1     -40.807  54.298 -52.756  1.00  0.00     0.066 A 
HETATM   10  C   UNL     1     -40.717  54.171 -51.378  1.00  0.00     0.164 A 
HETATM   11  N   UNL     1     -40.249  53.073 -50.749  1.00  0.00    -0.237 NA
HETATM   12  C   UNL     1     -39.863  52.052 -51.539  1.00  0.00     0.120 A 
HETATM   13  C   UNL     1     -39.908  52.083 -52.925  1.00  0.00     0.028 A 
BRANCH  10  14
HETATM   14  O   UNL     1     -41.134  55.255 -50.629  1.00  0.00    -0.329 OA
BRANCH  14  15
HETATM   15  C   UNL     1     -41.414  56.466 -51.364  1.00  0.00     0.130 C 
HETATM   16  C   UNL     1     -42.827  57.085 -51.200  1.00  0.00     0.032 C 
HETATM   17  C   UNL     1     -42.152  58.468 -51.185  1.00  0.00     0.005 C 
HETATM   18  C   UNL     1     -40.872  57.761 -50.703  1.00  0.00     0.032 C 
ENDBRANCH  14  15
ENDBRANCH  10  14
ENDBRANCH   7   8
ENDBRANCH   3   7
BRANCH   1  19
HETATM   19  C   UNL     1     -43.299  56.788 -57.054  1.00  0.00     0.048 A 
HETATM   20  C   UNL     1     -44.086  57.612 -56.210  1.00  0.00    -0.033 A 
HETATM   21  C   UNL     1     -43.746  57.848 -54.762  1.00  0.00     0.050 C 
HETATM   22  C   UNL     1     -45.253  58.213 -56.714  1.00  0.00     0.033 A 
HETATM   23  C   UNL     1     -45.633  58.016 -58.035  1.00  0.00     0.035 A 
HETATM   24  C   UNL     1     -44.844  57.248 -58.880  1.00  0.00     0.033 A 
HETATM   25 CL   UNL     1     -47.071  58.748 -58.632  1.00  0.00    -0.084 Cl
HETATM   26  C   UNL     1     -43.654  56.653 -58.417  1.00  0.00    -0.033 A 
HETATM   27  C   UNL     1     -42.825  55.932 -59.447  1.00  0.00     0.050 C 
ENDBRANCH   1  19
TORSDOF 5
ENDMDL
MODEL 5
REMARK VINA RESULT:      -7.7      2.363      3.200
REMARK  5 active torsions:
REMARK  status: ('A' for Active; 'I' for Inactive)
REMARK    1  A    between atoms: C_3  and  N_4 
REMARK       I    between atoms: N_4  and  C_5 
REMARK       I    between atoms: C_5  and  N_6 
REMARK    2  A    between atoms: N_6  and  C_7 
REMARK    3  A    between atoms: C_7  and  C_8 
REMARK    4  A    between atoms: C_10  and  O_11 
REMARK    5  A    between atoms: O_11  and  C_12 
ROOT
HETATM    1  N   UNL     1     -41.297  54.900 -52.136  1.00  0.00    -0.308 N 
HETATM    2  C   UNL     1     -42.634  55.123 -51.878  1.00  0.00     0.321 C 
HETATM    3  N   UNL     1     -42.823  56.372 -51.330  1.00  0.00    -0.339 N 
HETATM    4  O   UNL     1     -43.558  54.362 -52.129  1.00  0.00    -0.247 OA
HETATM    5  H   UNL     1     -40.826  55.744 -52.421  1.00  0.00     0.170 HD
HETATM    6  H   UNL     1     -42.025  56.814 -50.900  1.00  0.00     0.164 HD
ENDROOT
BRANCH   3   7
HETATM    7  C   UNL     1     -44.138  56.805 -50.903  1.00  0.00     0.163 C 
BRANCH   7   8
HETATM    8  C   UNL     1     -44.666  57.980 -51.685  1.00  0.00    -0.035 A 
HETATM    9  C   UNL     1     -44.474  58.105 -53.065  1.00  0.00     0.066 A 
HETATM   10  C   UNL     1     -45.042  59.184 -53.724  1.00  0.00     0.164 A 
HETATM   11  N   UNL     1     -45.791  60.130 -53.121  1.00  0.00    -0.237 NA
HETATM   12  C   UNL     1     -45.986  59.982 -51.796  1.00  0.00     0.120 A 
HETATM   13  C   UNL     1     -45.456  58.943 -51.045  1.00  0.00     0.028 A 
BRANCH  10  14
HETATM   14  O   UNL     1     -44.805  59.272 -55.083  1.00  0.00    -0.329 OA
BRANCH  14  15
HETATM   15  C   UNL     1     -43.913  58.283 -55.639  1.00  0.00     0.130 C 
HETATM   16  C   UNL     1     -44.133  57.878 -57.120  1.00  0.00     0.032 C 
HETATM   17  C   UNL     1     -42.603  57.858 -57.278  1.00  0.00     0.005 C 
HETATM   18  C   UNL     1     -42.537  58.838 -56.093  1.00  0.00     0.032 C 
ENDBRANCH  14  15
ENDBRANCH  10  14
ENDBRANCH   7   8
ENDBRANCH   3   7
BRANCH   1  19
HETATM   19  C   UNL     1     -40.743  53.681 -52.604  1.00  0.00     0.048 A 
HETATM   20  C   UNL     1     -40.617  53.510 -54.006  1.00  0.00    -0.033 A 
HETATM   21  C   UNL     1     -41.050  54.564 -54.992  1.00  0.00     0.050 C 
HETATM   22  C   UNL     1     -40.103  52.307 -54.519  1.00  0.00     0.033 A 
HETATM   23  C   UNL     1     -39.706  51.288 -53.663  1.00  0.00     0.035 A 
HETATM   24  C   UNL     1     -39.784  51.464 -52.288  1.00  0.00     0.033 A 
HETATM   25 CL   UNL     1     -39.092  49.816 -54.308  1.00  0.00    -0.084 Cl
HETATM   26  C   UNL     1     -40.269  52.667 -51.738  1.00  0.00    -0.033 A 
HETATM   27  C   UNL     1     -40.208  52.786 -50.238  1.00  0.00     0.050 C 
ENDBRANCH   1  19
TORSDOF 5
ENDMDL
MODEL 6
REMARK VINA RESULT:      -7.6      2.326      3.540
REMARK  5 active torsions:
REMARK  status: ('A' for Active; 'I' for Inactive)
REMARK    1  A    between atoms: C_3  and  N_4 
REMARK       I    between atoms: N_4  and  C_5 
REMARK       I    between atoms: C_5  and  N_6 
REMARK    2  A    between atoms: N_6  and  C_7 
REMARK    3  A    between atoms: C_7  and  C_8 
REMARK    4  A    between atoms: C_10  and  O_11 
REMARK    5  A    between atoms: O_11  and  C_12 
ROOT
HETATM    1  N   UNL     1     -41.264  54.941 -52.159  1.00  0.00    -0.308 N 
HETATM    2  C   UNL     1     -42.592  55.208 -51.898  1.00  0.00     0.321 C 
HETATM    3  N   UNL     1     -42.730  56.431 -51.278  1.00  0.00    -0.339 N 
HETATM    4  O   UNL     1     -43.546  54.505 -52.198  1.00  0.00    -0.247 OA
HETATM    5  H   UNL     1     -40.753  55.778 -52.391  1.00  0.00     0.170 HD
HETATM    6  H   UNL     1     -41.917  56.811 -50.819  1.00  0.00     0.164 HD
ENDROOT
BRANCH   3   7
HETATM    7  C   UNL     1     -44.028  56.897 -50.836  1.00  0.00     0.163 C 
BRANCH   7   8
HETATM    8  C   UNL     1     -44.577  58.026 -51.669  1.00  0.00    -0.035 A 
HETATM    9  C   UNL     1     -44.374  58.101 -53.051  1.00  0.00     0.066 A 
HETATM   10  C   UNL     1     -44.962  59.138 -53.758  1.00  0.00     0.164 A 
HETATM   11  N   UNL     1     -45.739  60.089 -53.201  1.00  0.00    -0.237 NA
HETATM   12  C   UNL     1     -45.944  59.989 -51.873  1.00  0.00     0.120 A 
HETATM   13  C   UNL     1     -45.396  58.994 -51.076  1.00  0.00     0.028 A 
BRANCH  10  14
HETATM   14  O   UNL     1     -44.713  59.178 -55.118  1.00  0.00    -0.329 OA
BRANCH  14  15
HETATM   15  C   UNL     1     -43.723  58.249 -55.610  1.00  0.00     0.130 C 
HETATM   16  C   UNL     1     -43.979  57.609 -57.001  1.00  0.00     0.032 C 
HETATM   17  C   UNL     1     -42.476  57.775 -57.285  1.00  0.00     0.005 C 
HETATM   18  C   UNL     1     -42.477  58.915 -56.251  1.00  0.00     0.032 C 
ENDBRANCH  14  15
ENDBRANCH  10  14
ENDBRANCH   7   8
ENDBRANCH   3   7
BRANCH   1  19
HETATM   19  C   UNL     1     -40.760  53.727 -52.693  1.00  0.00     0.048 A 
HETATM   20  C   UNL     1     -40.272  52.759 -51.779  1.00  0.00    -0.033 A 
HETATM   21  C   UNL     1     -40.269  52.981 -50.289  1.00  0.00     0.050 C 
HETATM   22  C   UNL     1     -39.734  51.553 -52.261  1.00  0.00     0.033 A 
HETATM   23  C   UNL     1     -39.689  51.297 -53.625  1.00  0.00     0.035 A 
HETATM   24  C   UNL     1     -40.205  52.220 -54.525  1.00  0.00     0.033 A 
HETATM   25 CL   UNL     1     -39.015  49.822 -54.200  1.00  0.00    -0.084 Cl
HETATM   26  C   UNL     1     -40.777  53.427 -54.076  1.00  0.00    -0.033 A 
HETATM   27  C   UNL     1     -41.400  54.301 -55.131  1.00  0.00     0.050 C 
ENDBRANCH   1  19
TORSDOF 5
ENDMDL
MODEL 7
REMARK VINA RESULT:      -7.5      1.665      2.021
REMARK  5 active torsions:
REMARK  status: ('A' for Active; 'I' for Inactive)
REMARK    1  A    between atoms: C_3  and  N_4 
REMARK       I    between atoms: N_4  and  C_5 
REMARK       I    between atoms: C_5  and  N_6 
REMARK    2  A    between atoms: N_6  and  C_7 
REMARK    3  A    between atoms: C_7  and  C_8 
REMARK    4  A    between atoms: C_10  and  O_11 
REMARK    5  A    between atoms: O_11  and  C_12 
ROOT
HETATM    1  N   UNL     1     -43.607  55.237 -52.881  1.00  0.00    -0.308 N 
HETATM    2  C   UNL     1     -43.516  56.603 -53.054  1.00  0.00     0.321 C 
HETATM    3  N   UNL     1     -44.766  57.182 -53.025  1.00  0.00    -0.339 N 
HETATM    4  O   UNL     1     -42.488  57.253 -53.173  1.00  0.00    -0.247 OA
HETATM    5  H   UNL     1     -44.355  54.989 -52.254  1.00  0.00     0.170 HD
HETATM    6  H   UNL     1     -45.557  56.583 -53.207  1.00  0.00     0.164 HD
ENDROOT
BRANCH   3   7
HETATM    7  C   UNL     1     -44.934  58.601 -53.260  1.00  0.00     0.163 C 
BRANCH   7   8
HETATM    8  C   UNL     1     -44.846  58.983 -54.715  1.00  0.00    -0.035 A 
HETATM    9  C   UNL     1     -45.271  58.129 -55.738  1.00  0.00     0.066 A 
HETATM   10  C   UNL     1     -45.215  58.575 -57.049  1.00  0.00     0.164 A 
HETATM   11  N   UNL     1     -44.784  59.800 -57.413  1.00  0.00    -0.237 NA
HETATM   12  C   UNL     1     -44.401  60.619 -56.414  1.00  0.00     0.120 A 
HETATM   13  C   UNL     1     -44.414  60.265 -55.073  1.00  0.00     0.028 A 
BRANCH  10  14
HETATM   14  O   UNL     1     -45.627  57.685 -58.023  1.00  0.00    -0.329 OA
BRANCH  14  15
HETATM   15  C   UNL     1     -44.615  57.248 -58.955  1.00  0.00     0.130 C 
HETATM   16  C   UNL     1     -43.438  56.412 -58.386  1.00  0.00     0.032 C 
HETATM   17  C   UNL     1     -43.524  55.543 -59.653  1.00  0.00     0.005 C 
HETATM   18  C   UNL     1     -44.993  55.985 -59.773  1.00  0.00     0.032 C 
ENDBRANCH  14  15
ENDBRANCH  10  14
ENDBRANCH   7   8
ENDBRANCH   3   7
BRANCH   1  19
HETATM   19  C   UNL     1     -42.522  54.326 -52.962  1.00  0.00     0.048 A 
HETATM   20  C   UNL     1     -42.224  53.769 -54.232  1.00  0.00    -0.033 A 
HETATM   21  C   UNL     1     -43.013  54.108 -55.470  1.00  0.00     0.050 C 
HETATM   22  C   UNL     1     -41.178  52.838 -54.357  1.00  0.00     0.033 A 
HETATM   23  C   UNL     1     -40.428  52.468 -53.249  1.00  0.00     0.035 A 
HETATM   24  C   UNL     1     -40.684  53.042 -52.011  1.00  0.00     0.033 A 
HETATM   25 CL   UNL     1     -39.160  51.316 -53.416  1.00  0.00    -0.084 Cl
HETATM   26  C   UNL     1     -41.706  53.999 -51.853  1.00  0.00    -0.033 A 
HETATM   27  C   UNL     1     -41.823  54.631 -50.492  1.00  0.00     0.050 C 
ENDBRANCH   1  19
TORSDOF 5
ENDMDL
MODEL 8
REMARK VINA RESULT:      -7.5      4.610      7.502
REMARK  5 active torsions:
REMARK  status: ('A' for Active; 'I' for Inactive)
REMARK    1  A    between atoms: C_3  and  N_4 
REMARK       I    between atoms: N_4  and  C_5 
REMARK       I    between atoms: C_5  and  N_6 
REMARK    2  A    between atoms: N_6  and  C_7 
REMARK    3  A    between atoms: C_7  and  C_8 
REMARK    4  A    between atoms: C_10  and  O_11 
REMARK    5  A    between atoms: O_11  and  C_12 
ROOT
HETATM    1  N   UNL     1     -41.951  55.296 -51.607  1.00  0.00    -0.308 N 
HETATM    2  C   UNL     1     -41.703  56.615 -51.924  1.00  0.00     0.321 C 
HETATM    3  N   UNL     1     -42.454  57.456 -51.132  1.00  0.00    -0.339 N 
HETATM    4  O   UNL     1     -40.904  57.025 -52.752  1.00  0.00    -0.247 OA
HETATM    5  H   UNL     1     -42.126  55.175 -50.622  1.00  0.00     0.170 HD
HETATM    6  H   UNL     1     -43.271  57.066 -50.688  1.00  0.00     0.164 HD
ENDROOT
BRANCH   3   7
HETATM    7  C   UNL     1     -42.422  58.890 -51.330  1.00  0.00     0.163 C 
BRANCH   7   8
HETATM    8  C   UNL     1     -43.693  59.584 -50.912  1.00  0.00    -0.035 A 
HETATM    9  C   UNL     1     -43.690  60.709 -50.081  1.00  0.00     0.066 A 
HETATM   10  C   UNL     1     -44.896  61.328 -49.790  1.00  0.00     0.164 A 
HETATM   11  N   UNL     1     -46.089  60.923 -50.270  1.00  0.00    -0.237 NA
HETATM   12  C   UNL     1     -46.071  59.852 -51.088  1.00  0.00     0.120 A 
HETATM   13  C   UNL     1     -44.920  59.161 -51.435  1.00  0.00     0.028 A 
BRANCH  10  14
HETATM   14  O   UNL     1     -44.840  62.423 -48.947  1.00  0.00    -0.329 OA
BRANCH  14  15
HETATM   15  C   UNL     1     -45.517  62.286 -47.680  1.00  0.00     0.130 C 
HETATM   16  C   UNL     1     -44.945  61.247 -46.678  1.00  0.00     0.032 C 
HETATM   17  C   UNL     1     -45.230  62.263 -45.558  1.00  0.00     0.005 C 
HETATM   18  C   UNL     1     -45.143  63.365 -46.629  1.00  0.00     0.032 C 
ENDBRANCH  14  15
ENDBRANCH  10  14
ENDBRANCH   7   8
ENDBRANCH   3   7
BRANCH   1  19
HETATM   19  C   UNL     1     -41.425  54.173 -52.297  1.00  0.00     0.048 A 
HETATM   20  C   UNL     1     -40.438  53.398 -51.636  1.00  0.00    -0.033 A 
HETATM   21  C   UNL     1     -39.940  53.730 -50.253  1.00  0.00     0.050 C 
HETATM   22  C   UNL     1     -39.864  52.294 -52.291  1.00  0.00     0.033 A 
HETATM   23  C   UNL     1     -40.266  51.950 -53.575  1.00  0.00     0.035 A 
HETATM   24  C   UNL     1     -41.263  52.676 -54.212  1.00  0.00     0.033 A 
HETATM   25 CL   UNL     1     -39.543  50.605 -54.368  1.00  0.00    -0.084 Cl
HETATM   26  C   UNL     1     -41.880  53.772 -53.575  1.00  0.00    -0.033 A 
HETATM   27  C   UNL     1     -43.020  54.417 -54.317  1.00  0.00     0.050 C 
ENDBRANCH   1  19
TORSDOF 5
ENDMDL
MODEL 9
REMARK VINA RESULT:      -7.5      3.244      7.600
REMARK  5 active torsions:
REMARK  status: ('A' for Active; 'I' for Inactive)
REMARK    1  A    between atoms: C_3  and  N_4 
REMARK       I    between atoms: N_4  and  C_5 
REMARK       I    between atoms: C_5  and  N_6 
REMARK    2  A    between atoms: N_6  and  C_7 
REMARK    3  A    between atoms: C_7  and  C_8 
REMARK    4  A    between atoms: C_10  and  O_11 
REMARK    5  A    between atoms: O_11  and  C_12 
ROOT
HETATM    1  N   UNL     1     -43.355  56.677 -54.305  1.00  0.00    -0.308 N 
HETATM    2  C   UNL     1     -42.283  56.812 -53.448  1.00  0.00     0.321 C 
HETATM    3  N   UNL     1     -42.691  56.702 -52.137  1.00  0.00    -0.339 N 
HETATM    4  O   UNL     1     -41.112  56.962 -53.767  1.00  0.00    -0.247 OA
HETATM    5  H   UNL     1     -44.034  56.020 -53.954  1.00  0.00     0.170 HD
HETATM    6  H   UNL     1     -43.667  56.862 -51.941  1.00  0.00     0.164 HD
ENDROOT
BRANCH   3   7
HETATM    7  C   UNL     1     -41.752  56.885 -51.049  1.00  0.00     0.163 C 
BRANCH   7   8
HETATM    8  C   UNL     1     -41.223  55.591 -50.488  1.00  0.00    -0.035 A 
HETATM    9  C   UNL     1     -40.548  54.655 -51.280  1.00  0.00     0.066 A 
HETATM   10  C   UNL     1     -40.037  53.515 -50.680  1.00  0.00     0.164 A 
HETATM   11  N   UNL     1     -40.134  53.246 -49.362  1.00  0.00    -0.237 NA
HETATM   12  C   UNL     1     -40.766  54.168 -48.610  1.00  0.00     0.120 A 
HETATM   13  C   UNL     1     -41.316  55.337 -49.115  1.00  0.00     0.028 A 
BRANCH  10  14
HETATM   14  O   UNL     1     -39.398  52.613 -51.511  1.00  0.00    -0.329 OA
BRANCH  14  15
HETATM   15  C   UNL     1     -40.228  51.952 -52.489  1.00  0.00     0.130 C 
HETATM   16  C   UNL     1     -40.126  52.445 -53.957  1.00  0.00     0.032 C 
HETATM   17  C   UNL     1     -40.213  50.972 -54.393  1.00  0.00     0.005 C 
HETATM   18  C   UNL     1     -39.665  50.600 -53.004  1.00  0.00     0.032 C 
ENDBRANCH  14  15
ENDBRANCH  10  14
ENDBRANCH   7   8
ENDBRANCH   3   7
BRANCH   1  19
HETATM   19  C   UNL     1     -43.305  56.840 -55.714  1.00  0.00     0.048 A 
HETATM   20  C   UNL     1     -43.107  55.679 -56.504  1.00  0.00    -0.033 A 
HETATM   21  C   UNL     1     -42.946  54.307 -55.901  1.00  0.00     0.050 C 
HETATM   22  C   UNL     1     -43.019  55.793 -57.902  1.00  0.00     0.033 A 
HETATM   23  C   UNL     1     -43.138  57.032 -58.517  1.00  0.00     0.035 A 
HETATM   24  C   UNL     1     -43.377  58.168 -57.755  1.00  0.00     0.033 A 
HETATM   25 CL   UNL     1     -43.015  57.156 -60.229  1.00  0.00    -0.084 Cl
HETATM   26  C   UNL     1     -43.498  58.087 -56.354  1.00  0.00    -0.033 A 
HETATM   27  C   UNL     1     -43.863  59.363 -55.642  1.00  0.00     0.050 C 
ENDBRANCH   1  19
TORSDOF 5
ENDMDL
MODEL 10
REMARK VINA RESULT:      -7.4      1.714      2.749
REMARK  5 active torsions:
REMARK  status: ('A' for Active; 'I' for Inactive)
REMARK    1  A    between atoms: C_3  and  N_4 
REMARK       I    between atoms: N_4  and  C_5 
REMARK       I    between atoms: C_5  and  N_6 
REMARK    2  A    between atoms: N_6  and  C_7 
REMARK    3  A    between atoms: C_7  and  C_8 
REMARK    4  A    between atoms: C_10  and  O_11 
REMARK    5  A    between atoms: O_11  and  C_12 
ROOT
HETATM    1  N   UNL     1     -43.632  55.312 -52.786  1.00  0.00    -0.308 N 
HETATM    2  C   UNL     1     -43.509  56.677 -52.936  1.00  0.00     0.321 C 
HETATM    3  N   UNL     1     -44.736  57.293 -52.822  1.00  0.00    -0.339 N 
HETATM    4  O   UNL     1     -42.469  57.298 -53.103  1.00  0.00    -0.247 OA
HETATM    5  H   UNL     1     -44.350  55.072 -52.121  1.00  0.00     0.170 HD
HETATM    6  H   UNL     1     -45.555  56.723 -52.968  1.00  0.00     0.164 HD
ENDROOT
BRANCH   3   7
HETATM    7  C   UNL     1     -44.872  58.721 -53.018  1.00  0.00     0.163 C 
BRANCH   7   8
HETATM    8  C   UNL     1     -45.051  59.115 -54.461  1.00  0.00    -0.035 A 
HETATM    9  C   UNL     1     -44.992  58.182 -55.502  1.00  0.00     0.066 A 
HETATM   10  C   UNL     1     -45.227  58.611 -56.799  1.00  0.00     0.164 A 
HETATM   11  N   UNL     1     -45.527  59.883 -57.133  1.00  0.00    -0.237 NA
HETATM   12  C   UNL     1     -45.604  60.764 -56.116  1.00  0.00     0.120 A 
HETATM   13  C   UNL     1     -45.380  60.436 -54.787  1.00  0.00     0.028 A 
BRANCH  10  14
HETATM   14  O   UNL     1     -45.135  57.654 -57.793  1.00  0.00    -0.329 OA
BRANCH  14  15
HETATM   15  C   UNL     1     -43.801  57.233 -58.150  1.00  0.00     0.130 C 
HETATM   16  C   UNL     1     -43.641  55.811 -58.749  1.00  0.00     0.032 C 
HETATM   17  C   UNL     1     -42.610  56.406 -59.725  1.00  0.00     0.005 C 
HETATM   18  C   UNL     1     -43.303  57.765 -59.520  1.00  0.00     0.032 C 
ENDBRANCH  14  15
ENDBRANCH  10  14
ENDBRANCH   7   8
ENDBRANCH   3   7
BRANCH   1  19
HETATM   19  C   UNL     1     -42.584  54.370 -52.950  1.00  0.00     0.048 A 
HETATM   20  C   UNL     1     -41.893  53.946 -51.785  1.00  0.00    -0.033 A 
HETATM   21  C   UNL     1     -42.232  54.460 -50.410  1.00  0.00     0.050 C 
HETATM   22  C   UNL     1     -40.826  53.038 -51.899  1.00  0.00     0.033 A 
HETATM   23  C   UNL     1     -40.451  52.543 -53.141  1.00  0.00     0.035 A 
HETATM   24  C   UNL     1     -41.150  52.918 -54.280  1.00  0.00     0.033 A 
HETATM   25 CL   UNL     1     -39.134  51.443 -53.264  1.00  0.00    -0.084 Cl
HETATM   26  C   UNL     1     -42.242  53.805 -54.201  1.00  0.00    -0.033 A 
HETATM   27  C   UNL     1     -42.990  54.056 -55.483  1.00  0.00     0.050 C 
ENDBRANCH   1  19
TORSDOF 5
ENDMDL
