MODEL 1
REMARK VINA RESULT:      -7.8      0.000      0.000
REMARK  6 active torsions:
REMARK  status: ('A' for Active; 'I' for Inactive)
REMARK    1  A    between atoms: N_1  and  C_2 
REMARK    2  A    between atoms: C_2  and  C_3 
REMARK    3  A    between atoms: C_2  and  C_11 
REMARK    4  A    between atoms: C_3  and  C_4 
REMARK       I    between atoms: C_11  and  N_13 
REMARK    5  A    between atoms: N_13  and  C_14 
REMARK    6  A    between atoms: C_17  and  C_20 
ROOT
HETATM    1  C   UNL     1     -42.728  56.905 -54.884  1.00  0.00     0.255 C 
HETATM    2  O   UNL     1     -43.763  56.279 -54.675  1.00  0.00    -0.271 OA
HETATM    3  N   UNL     1     -41.442  56.483 -54.601  1.00  0.00    -0.325 N 
HETATM    4  H   UNL     1     -40.731  57.164 -54.868  1.00  0.00     0.169 HD
ENDROOT
BRANCH   1   5
HETATM    5  C   UNL     1     -42.752  58.328 -55.497  1.00  0.00     0.313 C 
BRANCH   5   6
HETATM    6  N   UNL     1     -41.882  59.245 -54.702  1.00  0.00     0.092 N 
HETATM    7  H   UNL     1     -41.484  59.927 -55.354  1.00  0.00     0.313 HD
HETATM    8  H   UNL     1     -41.076  58.709 -54.371  1.00  0.00     0.313 HD
ENDBRANCH   5   6
BRANCH   5   9
HETATM    9  C   UNL     1     -42.334  58.242 -56.977  1.00  0.00     0.083 C 
BRANCH   9  10
HETATM   10  C   UNL     1     -43.373  57.611 -57.876  1.00  0.00    -0.056 A 
HETATM   11  C   UNL     1     -44.637  58.198 -58.028  1.00  0.00     0.009 A 
HETATM   12  C   UNL     1     -45.587  57.617 -58.872  1.00  0.00     0.024 A 
HETATM   13  C   UNL     1     -45.277  56.450 -59.567  1.00  0.00     0.034 A 
HETATM   14 CL   UNL     1     -46.445  55.743 -60.614  1.00  0.00    -0.084 Cl
HETATM   15  C   UNL     1     -44.025  55.856 -59.423  1.00  0.00     0.024 A 
HETATM   16  C   UNL     1     -43.076  56.433 -58.577  1.00  0.00     0.009 A 
ENDBRANCH   9  10
ENDBRANCH   5   9
ENDBRANCH   1   5
BRANCH   3  17
HETATM   17  C   UNL     1     -41.022  55.229 -54.129  1.00  0.00     0.034 A 
HETATM   18  C   UNL     1     -40.535  54.315 -55.069  1.00  0.00     0.030 A 
HETATM   19  C   UNL     1     -40.151  53.024 -54.681  1.00  0.00     0.014 A 
HETATM   20  C   UNL     1     -40.239  52.624 -53.342  1.00  0.00    -0.023 A 
HETATM   21  C   UNL     1     -40.697  53.555 -52.402  1.00  0.00     0.014 A 
HETATM   22  C   UNL     1     -41.086  54.843 -52.791  1.00  0.00     0.030 A 
BRANCH  20  23
HETATM   23  C   UNL     1     -39.869  51.273 -52.950  1.00  0.00     0.010 A 
HETATM   24  C   UNL     1     -39.748  50.085 -53.712  1.00  0.00     0.152 A 
HETATM   25  N   UNL     1     -39.407  49.025 -52.973  1.00  0.00    -0.187 NA
HETATM   26  N   UNL     1     -39.312  49.526 -51.733  1.00  0.00    -0.289 N 
HETATM   27  H   UNL     1     -39.063  48.897 -50.977  1.00  0.00     0.188 HD
HETATM   28  C   UNL     1     -39.582  50.862 -51.664  1.00  0.00     0.123 A 
ENDBRANCH  20  23
ENDBRANCH   3  17
TORSDOF 6
ENDMDL
MODEL 2
REMARK VINA RESULT:      -7.3      3.356      8.106
REMARK  6 active torsions:
REMARK  status: ('A' for Active; 'I' for Inactive)
REMARK    1  A    between atoms: N_1  and  C_2 
REMARK    2  A    between atoms: C_2  and  C_3 
REMARK    3  A    between atoms: C_2  and  C_11 
REMARK    4  A    between atoms: C_3  and  C_4 
REMARK       I    between atoms: C_11  and  N_13 
REMARK    5  A    between atoms: N_13  and  C_14 
REMARK    6  A    between atoms: C_17  and  C_20 
ROOT
HETATM    1  C   UNL     1     -42.135  55.918 -52.430  1.00  0.00     0.255 C 
HETATM    2  O   UNL     1     -41.420  56.911 -52.532  1.00  0.00    -0.271 OA
HETATM    3  N   UNL     1     -43.081  55.491 -53.343  1.00  0.00    -0.325 N 
HETATM    4  H   UNL     1     -43.554  54.634 -53.056  1.00  0.00     0.169 HD
ENDROOT
BRANCH   1   5
HETATM    5  C   UNL     1     -42.071  55.000 -51.184  1.00  0.00     0.313 C 
BRANCH   5   6
HETATM    6  N   UNL     1     -43.084  53.908 -51.298  1.00  0.00     0.092 N 
HETATM    7  H   UNL     1     -42.590  53.069 -51.613  1.00  0.00     0.313 HD
HETATM    8  H   UNL     1     -43.713  54.139 -52.070  1.00  0.00     0.313 HD
ENDBRANCH   5   6
BRANCH   5   9
HETATM    9  C   UNL     1     -40.634  54.468 -51.028  1.00  0.00     0.083 C 
BRANCH   9  10
HETATM   10  C   UNL     1     -40.313  53.288 -51.918  1.00  0.00    -0.056 A 
HETATM   11  C   UNL     1     -39.917  52.062 -51.364  1.00  0.00     0.009 A 
HETATM   12  C   UNL     1     -39.635  50.973 -52.192  1.00  0.00     0.024 A 
HETATM   13  C   UNL     1     -39.749  51.104 -53.574  1.00  0.00     0.034 A 
HETATM   14 CL   UNL     1     -39.412  49.757 -54.590  1.00  0.00    -0.084 Cl
HETATM   15  C   UNL     1     -40.139  52.317 -54.137  1.00  0.00     0.024 A 
HETATM   16  C   UNL     1     -40.417  53.408 -53.311  1.00  0.00     0.009 A 
ENDBRANCH   9  10
ENDBRANCH   5   9
ENDBRANCH   1   5
BRANCH   3  17
HETATM   17  C   UNL     1     -43.358  56.011 -54.618  1.00  0.00     0.034 A 
HETATM   18  C   UNL     1     -42.814  55.342 -55.719  1.00  0.00     0.030 A 
HETATM   19  C   UNL     1     -42.999  55.834 -57.019  1.00  0.00     0.014 A 
HETATM   20  C   UNL     1     -43.738  57.002 -57.243  1.00  0.00    -0.023 A 
HETATM   21  C   UNL     1     -44.306  57.648 -56.138  1.00  0.00     0.014 A 
HETATM   22  C   UNL     1     -44.116  57.158 -54.840  1.00  0.00     0.030 A 
BRANCH  20  23
HETATM   23  C   UNL     1     -43.900  57.525 -58.591  1.00  0.00     0.010 A 
HETATM   24  C   UNL     1     -43.724  58.832 -59.107  1.00  0.00     0.152 A 
HETATM   25  N   UNL     1     -44.001  58.919 -60.411  1.00  0.00    -0.187 NA
HETATM   26  N   UNL     1     -44.359  57.668 -60.738  1.00  0.00    -0.289 N 
HETATM   27  H   UNL     1     -44.626  57.479 -61.699  1.00  0.00     0.188 HD
HETATM   28  C   UNL     1     -44.320  56.799 -59.686  1.00  0.00     0.123 A 
ENDBRANCH  20  23
ENDBRANCH   3  17
TORSDOF 6
ENDMDL
MODEL 3
REMARK VINA RESULT:      -7.3      1.473      2.154
REMARK  6 active torsions:
REMARK  status: ('A' for Active; 'I' for Inactive)
REMARK    1  A    between atoms: N_1  and  C_2 
REMARK    2  A    between atoms: C_2  and  C_3 
REMARK    3  A    between atoms: C_2  and  C_11 
REMARK    4  A    between atoms: C_3  and  C_4 
REMARK       I    between atoms: C_11  and  N_13 
REMARK    5  A    between atoms: N_13  and  C_14 
REMARK    6  A    between atoms: C_17  and  C_20 
ROOT
HETATM    1  C   UNL     1     -42.776  57.480 -53.632  1.00  0.00     0.255 C 
HETATM    2  O   UNL     1     -43.819  56.885 -53.376  1.00  0.00    -0.271 OA
HETATM    3  N   UNL     1     -41.521  56.916 -53.769  1.00  0.00    -0.325 N 
HETATM    4  H   UNL     1     -40.798  57.600 -53.992  1.00  0.00     0.169 HD
ENDROOT
BRANCH   1   5
HETATM    5  C   UNL     1     -42.745  59.019 -53.812  1.00  0.00     0.313 C 
BRANCH   5   6
HETATM    6  N   UNL     1     -41.339  59.487 -53.995  1.00  0.00     0.092 N 
HETATM    7  H   UNL     1     -40.758  58.655 -54.131  1.00  0.00     0.313 HD
HETATM    8  H   UNL     1     -41.018  59.880 -53.106  1.00  0.00     0.313 HD
ENDBRANCH   5   6
BRANCH   5   9
HETATM    9  C   UNL     1     -43.660  59.402 -54.992  1.00  0.00     0.083 C 
BRANCH   9  10
HETATM   10  C   UNL     1     -43.246  58.799 -56.315  1.00  0.00    -0.056 A 
HETATM   11  C   UNL     1     -42.212  59.373 -57.069  1.00  0.00     0.009 A 
HETATM   12  C   UNL     1     -41.825  58.803 -58.284  1.00  0.00     0.024 A 
HETATM   13  C   UNL     1     -42.469  57.659 -58.750  1.00  0.00     0.034 A 
HETATM   14 CL   UNL     1     -41.984  56.952 -60.241  1.00  0.00    -0.084 Cl
HETATM   15  C   UNL     1     -43.499  57.081 -58.011  1.00  0.00     0.024 A 
HETATM   16  C   UNL     1     -43.890  57.651 -56.798  1.00  0.00     0.009 A 
ENDBRANCH   9  10
ENDBRANCH   5   9
ENDBRANCH   1   5
BRANCH   3  17
HETATM   17  C   UNL     1     -41.173  55.556 -53.763  1.00  0.00     0.034 A 
HETATM   18  C   UNL     1     -41.291  54.865 -52.553  1.00  0.00     0.030 A 
HETATM   19  C   UNL     1     -40.909  53.520 -52.455  1.00  0.00     0.014 A 
HETATM   20  C   UNL     1     -40.407  52.836 -53.569  1.00  0.00    -0.023 A 
HETATM   21  C   UNL     1     -40.322  53.526 -54.785  1.00  0.00     0.014 A 
HETATM   22  C   UNL     1     -40.699  54.871 -54.880  1.00  0.00     0.030 A 
BRANCH  20  23
HETATM   23  C   UNL     1     -39.982  51.450 -53.454  1.00  0.00     0.010 A 
HETATM   24  C   UNL     1     -39.890  50.423 -54.426  1.00  0.00     0.152 A 
HETATM   25  N   UNL     1     -39.477  49.259 -53.916  1.00  0.00    -0.187 NA
HETATM   26  N   UNL     1     -39.304  49.532 -52.614  1.00  0.00    -0.289 N 
HETATM   27  H   UNL     1     -38.990  48.786 -52.002  1.00  0.00     0.188 HD
HETATM   28  C   UNL     1     -39.596  50.824 -52.286  1.00  0.00     0.123 A 
ENDBRANCH  20  23
ENDBRANCH   3  17
TORSDOF 6
ENDMDL
MODEL 4
REMARK VINA RESULT:      -7.2     14.678     16.486
REMARK  6 active torsions:
REMARK  status: ('A' for Active; 'I' for Inactive)
REMARK    1  A    between atoms: N_1  and  C_2 
REMARK    2  A    between atoms: C_2  and  C_3 
REMARK    3  A    between atoms: C_2  and  C_11 
REMARK    4  A    between atoms: C_3  and  C_4 
REMARK       I    between atoms: C_11  and  N_13 
REMARK    5  A    between atoms: N_13  and  C_14 
REMARK    6  A    between atoms: C_17  and  C_20 
ROOT
HETATM    1  C   UNL     1     -35.359  42.100 -54.012  1.00  0.00     0.255 C 
HETATM    2  O   UNL     1     -36.089  42.690 -53.220  1.00  0.00    -0.271 OA
HETATM    3  N   UNL     1     -34.306  41.263 -53.689  1.00  0.00    -0.325 N 
HETATM    4  H   UNL     1     -33.842  40.873 -54.509  1.00  0.00     0.169 HD
ENDROOT
BRANCH   1   5
HETATM    5  C   UNL     1     -35.529  42.258 -55.543  1.00  0.00     0.313 C 
BRANCH   5   6
HETATM    6  N   UNL     1     -34.654  41.283 -56.261  1.00  0.00     0.092 N 
HETATM    7  H   UNL     1     -34.655  40.416 -55.716  1.00  0.00     0.313 HD
HETATM    8  H   UNL     1     -33.690  41.620 -56.202  1.00  0.00     0.313 HD
ENDBRANCH   5   6
BRANCH   5   9
HETATM    9  C   UNL     1     -37.019  42.097 -55.900  1.00  0.00     0.083 C 
BRANCH   9  10
HETATM   10  C   UNL     1     -37.266  41.431 -57.234  1.00  0.00    -0.056 A 
HETATM   11  C   UNL     1     -37.002  42.110 -58.432  1.00  0.00     0.009 A 
HETATM   12  C   UNL     1     -37.220  41.484 -59.661  1.00  0.00     0.024 A 
HETATM   13  C   UNL     1     -37.700  40.177 -59.698  1.00  0.00     0.034 A 
HETATM   14 CL   UNL     1     -37.956  39.403 -61.213  1.00  0.00    -0.084 Cl
HETATM   15  C   UNL     1     -37.968  39.491 -58.516  1.00  0.00     0.024 A 
HETATM   16  C   UNL     1     -37.755  40.118 -57.286  1.00  0.00     0.009 A 
ENDBRANCH   9  10
ENDBRANCH   5   9
ENDBRANCH   1   5
BRANCH   3  17
HETATM   17  C   UNL     1     -33.909  40.814 -52.419  1.00  0.00     0.034 A 
HETATM   18  C   UNL     1     -32.537  40.705 -52.173  1.00  0.00     0.030 A 
HETATM   19  C   UNL     1     -32.066  40.210 -50.949  1.00  0.00     0.014 A 
HETATM   20  C   UNL     1     -32.959  39.819 -49.944  1.00  0.00    -0.023 A 
HETATM   21  C   UNL     1     -34.331  39.961 -50.186  1.00  0.00     0.014 A 
HETATM   22  C   UNL     1     -34.801  40.451 -51.411  1.00  0.00     0.030 A 
BRANCH  20  23
HETATM   23  C   UNL     1     -32.465  39.276 -48.688  1.00  0.00     0.010 A 
HETATM   24  C   UNL     1     -31.327  39.612 -47.915  1.00  0.00     0.152 A 
HETATM   25  N   UNL     1     -31.198  38.854 -46.822  1.00  0.00    -0.187 NA
HETATM   26  N   UNL     1     -32.251  38.026 -46.889  1.00  0.00    -0.289 N 
HETATM   27  H   UNL     1     -32.370  37.337 -46.154  1.00  0.00     0.188 HD
HETATM   28  C   UNL     1     -33.036  38.234 -47.987  1.00  0.00     0.123 A 
ENDBRANCH  20  23
ENDBRANCH   3  17
TORSDOF 6
ENDMDL
MODEL 5
REMARK VINA RESULT:      -7.2      3.733      8.500
REMARK  6 active torsions:
REMARK  status: ('A' for Active; 'I' for Inactive)
REMARK    1  A    between atoms: N_1  and  C_2 
REMARK    2  A    between atoms: C_2  and  C_3 
REMARK    3  A    between atoms: C_2  and  C_11 
REMARK    4  A    between atoms: C_3  and  C_4 
REMARK       I    between atoms: C_11  and  N_13 
REMARK    5  A    between atoms: N_13  and  C_14 
REMARK    6  A    between atoms: C_17  and  C_20 
ROOT
HETATM    1  C   UNL     1     -42.367  56.279 -54.663  1.00  0.00     0.255 C 
HETATM    2  O   UNL     1     -43.401  55.974 -54.075  1.00  0.00    -0.271 OA
HETATM    3  N   UNL     1     -42.243  56.566 -56.010  1.00  0.00    -0.325 N 
HETATM    4  H   UNL     1     -41.289  56.803 -56.280  1.00  0.00     0.169 HD
ENDROOT
BRANCH   1   5
HETATM    5  C   UNL     1     -41.008  56.353 -53.924  1.00  0.00     0.313 C 
BRANCH   5   6
HETATM    6  N   UNL     1     -40.679  57.771 -53.592  1.00  0.00     0.092 N 
HETATM    7  H   UNL     1     -40.957  57.927 -52.620  1.00  0.00     0.313 HD
HETATM    8  H   UNL     1     -41.300  58.376 -54.136  1.00  0.00     0.313 HD
ENDBRANCH   5   6
BRANCH   5   9
HETATM    9  C   UNL     1     -41.066  55.447 -52.679  1.00  0.00     0.083 C 
BRANCH   9  10
HETATM   10  C   UNL     1     -40.644  54.018 -52.935  1.00  0.00    -0.056 A 
HETATM   11  C   UNL     1     -40.649  53.494 -54.235  1.00  0.00     0.009 A 
HETATM   12  C   UNL     1     -40.245  52.177 -54.466  1.00  0.00     0.024 A 
HETATM   13  C   UNL     1     -39.834  51.380 -53.400  1.00  0.00     0.034 A 
HETATM   14 CL   UNL     1     -39.326  49.762 -53.688  1.00  0.00    -0.084 Cl
HETATM   15  C   UNL     1     -39.828  51.888 -52.102  1.00  0.00     0.024 A 
HETATM   16  C   UNL     1     -40.235  53.203 -51.870  1.00  0.00     0.009 A 
ENDBRANCH   9  10
ENDBRANCH   5   9
ENDBRANCH   1   5
BRANCH   3  17
HETATM   17  C   UNL     1     -43.259  56.687 -56.971  1.00  0.00     0.034 A 
HETATM   18  C   UNL     1     -43.253  55.779 -58.035  1.00  0.00     0.030 A 
HETATM   19  C   UNL     1     -44.201  55.872 -59.063  1.00  0.00     0.014 A 
HETATM   20  C   UNL     1     -45.180  56.873 -59.044  1.00  0.00    -0.023 A 
HETATM   21  C   UNL     1     -45.200  57.759 -57.959  1.00  0.00     0.014 A 
HETATM   22  C   UNL     1     -44.249  57.668 -56.936  1.00  0.00     0.030 A 
BRANCH  20  23
HETATM   23  C   UNL     1     -46.142  56.985 -60.130  1.00  0.00     0.010 A 
HETATM   24  C   UNL     1     -46.746  55.994 -60.941  1.00  0.00     0.152 A 
HETATM   25  N   UNL     1     -47.568  56.504 -61.862  1.00  0.00    -0.187 NA
HETATM   26  N   UNL     1     -47.494  57.827 -61.648  1.00  0.00    -0.289 N 
HETATM   27  H   UNL     1     -48.041  58.442 -62.241  1.00  0.00     0.188 HD
HETATM   28  C   UNL     1     -46.653  58.166 -60.628  1.00  0.00     0.123 A 
ENDBRANCH  20  23
ENDBRANCH   3  17
TORSDOF 6
ENDMDL
MODEL 6
REMARK VINA RESULT:      -7.1      4.511      8.537
REMARK  6 active torsions:
REMARK  status: ('A' for Active; 'I' for Inactive)
REMARK    1  A    between atoms: N_1  and  C_2 
REMARK    2  A    between atoms: C_2  and  C_3 
REMARK    3  A    between atoms: C_2  and  C_11 
REMARK    4  A    between atoms: C_3  and  C_4 
REMARK       I    between atoms: C_11  and  N_13 
REMARK    5  A    between atoms: N_13  and  C_14 
REMARK    6  A    between atoms: C_17  and  C_20 
ROOT
HETATM    1  C   UNL     1     -42.838  55.232 -54.207  1.00  0.00     0.255 C 
HETATM    2  O   UNL     1     -43.583  54.625 -53.442  1.00  0.00    -0.271 OA
HETATM    3  N   UNL     1     -42.623  56.598 -54.231  1.00  0.00    -0.325 N 
HETATM    4  H   UNL     1     -41.955  56.884 -54.946  1.00  0.00     0.169 HD
ENDROOT
BRANCH   1   5
HETATM    5  C   UNL     1     -42.033  54.497 -55.307  1.00  0.00     0.313 C 
BRANCH   5   6
HETATM    6  N   UNL     1     -42.191  55.198 -56.616  1.00  0.00     0.092 N 
HETATM    7  H   UNL     1     -42.038  56.196 -56.446  1.00  0.00     0.313 HD
HETATM    8  H   UNL     1     -43.174  55.134 -56.893  1.00  0.00     0.313 HD
ENDBRANCH   5   6
BRANCH   5   9
HETATM    9  C   UNL     1     -40.562  54.389 -54.862  1.00  0.00     0.083 C 
BRANCH   9  10
HETATM   10  C   UNL     1     -40.287  53.249 -53.908  1.00  0.00    -0.056 A 
HETATM   11  C   UNL     1     -40.035  51.957 -54.393  1.00  0.00     0.009 A 
HETATM   12  C   UNL     1     -39.769  50.911 -53.507  1.00  0.00     0.024 A 
HETATM   13  C   UNL     1     -39.751  51.151 -52.135  1.00  0.00     0.034 A 
HETATM   14 CL   UNL     1     -39.411  49.863 -51.046  1.00  0.00    -0.084 Cl
HETATM   15  C   UNL     1     -40.001  52.430 -51.640  1.00  0.00     0.024 A 
HETATM   16  C   UNL     1     -40.272  53.475 -52.525  1.00  0.00     0.009 A 
ENDBRANCH   9  10
ENDBRANCH   5   9
ENDBRANCH   1   5
BRANCH   3  17
HETATM   17  C   UNL     1     -43.104  57.571 -53.339  1.00  0.00     0.034 A 
HETATM   18  C   UNL     1     -42.175  58.187 -52.494  1.00  0.00     0.030 A 
HETATM   19  C   UNL     1     -42.588  59.125 -51.538  1.00  0.00     0.014 A 
HETATM   20  C   UNL     1     -43.939  59.471 -51.413  1.00  0.00    -0.023 A 
HETATM   21  C   UNL     1     -44.859  58.874 -52.285  1.00  0.00     0.014 A 
HETATM   22  C   UNL     1     -44.445  57.933 -53.236  1.00  0.00     0.030 A 
BRANCH  20  23
HETATM   23  C   UNL     1     -44.366  60.422 -50.398  1.00  0.00     0.010 A 
HETATM   24  C   UNL     1     -45.591  60.547 -49.699  1.00  0.00     0.152 A 
HETATM   25  N   UNL     1     -45.606  61.582 -48.854  1.00  0.00    -0.187 NA
HETATM   26  N   UNL     1     -44.391  62.128 -49.008  1.00  0.00    -0.289 N 
HETATM   27  H   UNL     1     -44.159  62.951 -48.461  1.00  0.00     0.188 HD
HETATM   28  C   UNL     1     -43.613  61.477 -49.922  1.00  0.00     0.123 A 
ENDBRANCH  20  23
ENDBRANCH   3  17
TORSDOF 6
ENDMDL
MODEL 7
REMARK VINA RESULT:      -7.0      4.238      9.320
REMARK  6 active torsions:
REMARK  status: ('A' for Active; 'I' for Inactive)
REMARK    1  A    between atoms: N_1  and  C_2 
REMARK    2  A    between atoms: C_2  and  C_3 
REMARK    3  A    between atoms: C_2  and  C_11 
REMARK    4  A    between atoms: C_3  and  C_4 
REMARK       I    between atoms: C_11  and  N_13 
REMARK    5  A    between atoms: N_13  and  C_14 
REMARK    6  A    between atoms: C_17  and  C_20 
ROOT
HETATM    1  C   UNL     1     -42.852  56.420 -55.790  1.00  0.00     0.255 C 
HETATM    2  O   UNL     1     -43.486  57.309 -55.228  1.00  0.00    -0.271 OA
HETATM    3  N   UNL     1     -42.299  56.481 -57.056  1.00  0.00    -0.325 N 
HETATM    4  H   UNL     1     -41.808  55.627 -57.318  1.00  0.00     0.169 HD
ENDROOT
BRANCH   1   5
HETATM    5  C   UNL     1     -42.614  55.046 -55.116  1.00  0.00     0.313 C 
BRANCH   5   6
HETATM    6  N   UNL     1     -43.485  54.007 -55.744  1.00  0.00     0.092 N 
HETATM    7  H   UNL     1     -43.203  53.929 -56.726  1.00  0.00     0.313 HD
HETATM    8  H   UNL     1     -44.439  54.373 -55.782  1.00  0.00     0.313 HD
ENDBRANCH   5   6
BRANCH   5   9
HETATM    9  C   UNL     1     -41.115  54.699 -55.203  1.00  0.00     0.083 C 
BRANCH   9  10
HETATM   10  C   UNL     1     -40.667  53.647 -54.214  1.00  0.00    -0.056 A 
HETATM   11  C   UNL     1     -40.677  53.910 -52.837  1.00  0.00     0.009 A 
HETATM   12  C   UNL     1     -40.274  52.929 -51.928  1.00  0.00     0.024 A 
HETATM   13  C   UNL     1     -39.861  51.682 -52.392  1.00  0.00     0.034 A 
HETATM   14 CL   UNL     1     -39.376  50.471 -51.270  1.00  0.00    -0.084 Cl
HETATM   15  C   UNL     1     -39.844  51.409 -53.758  1.00  0.00     0.024 A 
HETATM   16  C   UNL     1     -40.242  52.390 -54.668  1.00  0.00     0.009 A 
ENDBRANCH   9  10
ENDBRANCH   5   9
ENDBRANCH   1   5
BRANCH   3  17
HETATM   17  C   UNL     1     -42.234  57.582 -57.925  1.00  0.00     0.034 A 
HETATM   18  C   UNL     1     -42.478  57.349 -59.282  1.00  0.00     0.030 A 
HETATM   19  C   UNL     1     -42.374  58.388 -60.217  1.00  0.00     0.014 A 
HETATM   20  C   UNL     1     -42.030  59.683 -59.812  1.00  0.00    -0.023 A 
HETATM   21  C   UNL     1     -41.819  59.916 -58.447  1.00  0.00     0.014 A 
HETATM   22  C   UNL     1     -41.918  58.876 -57.515  1.00  0.00     0.030 A 
BRANCH  20  23
HETATM   23  C   UNL     1     -41.893  60.751 -60.791  1.00  0.00     0.010 A 
HETATM   24  C   UNL     1     -41.415  62.077 -60.658  1.00  0.00     0.152 A 
HETATM   25  N   UNL     1     -41.474  62.769 -61.800  1.00  0.00    -0.187 NA
HETATM   26  N   UNL     1     -41.992  61.891 -62.672  1.00  0.00    -0.289 N 
HETATM   27  H   UNL     1     -42.140  62.191 -63.629  1.00  0.00     0.188 HD
HETATM   28  C   UNL     1     -42.265  60.673 -62.118  1.00  0.00     0.123 A 
ENDBRANCH  20  23
ENDBRANCH   3  17
TORSDOF 6
ENDMDL
MODEL 8
REMARK VINA RESULT:      -6.9      4.214      5.433
REMARK  6 active torsions:
REMARK  status: ('A' for Active; 'I' for Inactive)
REMARK    1  A    between atoms: N_1  and  C_2 
REMARK    2  A    between atoms: C_2  and  C_3 
REMARK    3  A    between atoms: C_2  and  C_11 
REMARK    4  A    between atoms: C_3  and  C_4 
REMARK       I    between atoms: C_11  and  N_13 
REMARK    5  A    between atoms: N_13  and  C_14 
REMARK    6  A    between atoms: C_17  and  C_20 
ROOT
HETATM    1  C   UNL     1     -41.433  57.878 -52.768  1.00  0.00     0.255 C 
HETATM    2  O   UNL     1     -40.695  57.741 -51.796  1.00  0.00    -0.271 OA
HETATM    3  N   UNL     1     -41.710  56.924 -53.729  1.00  0.00    -0.325 N 
HETATM    4  H   UNL     1     -42.358  57.255 -54.444  1.00  0.00     0.169 HD
ENDROOT
BRANCH   1   5
HETATM    5  C   UNL     1     -42.151  59.220 -53.055  1.00  0.00     0.313 C 
BRANCH   5   6
HETATM    6  N   UNL     1     -41.663  59.800 -54.342  1.00  0.00     0.092 N 
HETATM    7  H   UNL     1     -42.288  59.466 -55.081  1.00  0.00     0.313 HD
HETATM    8  H   UNL     1     -40.759  59.373 -54.559  1.00  0.00     0.313 HD
ENDBRANCH   5   6
BRANCH   5   9
HETATM    9  C   UNL     1     -43.674  58.983 -53.047  1.00  0.00     0.083 C 
BRANCH   9  10
HETATM   10  C   UNL     1     -44.427  59.843 -52.057  1.00  0.00    -0.056 A 
HETATM   11  C   UNL     1     -45.741  60.255 -52.324  1.00  0.00     0.009 A 
HETATM   12  C   UNL     1     -46.436  61.037 -51.399  1.00  0.00     0.024 A 
HETATM   13  C   UNL     1     -45.822  61.409 -50.205  1.00  0.00     0.034 A 
HETATM   14 CL   UNL     1     -46.684  62.363 -49.062  1.00  0.00    -0.084 Cl
HETATM   15  C   UNL     1     -44.516  61.008 -49.929  1.00  0.00     0.024 A 
HETATM   16  C   UNL     1     -43.819  60.230 -50.855  1.00  0.00     0.009 A 
ENDBRANCH   9  10
ENDBRANCH   5   9
ENDBRANCH   1   5
BRANCH   3  17
HETATM   17  C   UNL     1     -41.317  55.576 -53.756  1.00  0.00     0.034 A 
HETATM   18  C   UNL     1     -41.674  54.777 -52.666  1.00  0.00     0.030 A 
HETATM   19  C   UNL     1     -41.269  53.438 -52.595  1.00  0.00     0.014 A 
HETATM   20  C   UNL     1     -40.502  52.868 -53.618  1.00  0.00    -0.023 A 
HETATM   21  C   UNL     1     -40.176  53.665 -54.723  1.00  0.00     0.014 A 
HETATM   22  C   UNL     1     -40.577  55.004 -54.790  1.00  0.00     0.030 A 
BRANCH  20  23
HETATM   23  C   UNL     1     -40.057  51.486 -53.525  1.00  0.00     0.010 A 
HETATM   24  C   UNL     1     -39.969  50.470 -54.507  1.00  0.00     0.152 A 
HETATM   25  N   UNL     1     -39.531  49.306 -54.016  1.00  0.00    -0.187 NA
HETATM   26  N   UNL     1     -39.340  49.569 -52.715  1.00  0.00    -0.289 N 
HETATM   27  H   UNL     1     -39.005  48.821 -52.117  1.00  0.00     0.188 HD
HETATM   28  C   UNL     1     -39.643  50.854 -52.369  1.00  0.00     0.123 A 
ENDBRANCH  20  23
ENDBRANCH   3  17
TORSDOF 6
ENDMDL
MODEL 9
REMARK VINA RESULT:      -6.9      2.475      3.132
REMARK  6 active torsions:
REMARK  status: ('A' for Active; 'I' for Inactive)
REMARK    1  A    between atoms: N_1  and  C_2 
REMARK    2  A    between atoms: C_2  and  C_3 
REMARK    3  A    between atoms: C_2  and  C_11 
REMARK    4  A    between atoms: C_3  and  C_4 
REMARK       I    between atoms: C_11  and  N_13 
REMARK    5  A    between atoms: N_13  and  C_14 
REMARK    6  A    between atoms: C_17  and  C_20 
ROOT
HETATM    1  C   UNL     1     -43.045  57.115 -55.977  1.00  0.00     0.255 C 
HETATM    2  O   UNL     1     -43.519  56.393 -56.849  1.00  0.00    -0.271 OA
HETATM    3  N   UNL     1     -42.260  56.709 -54.912  1.00  0.00    -0.325 N 
HETATM    4  H   UNL     1     -41.969  57.483 -54.315  1.00  0.00     0.169 HD
ENDROOT
BRANCH   1   5
HETATM    5  C   UNL     1     -43.310  58.641 -55.956  1.00  0.00     0.313 C 
BRANCH   5   6
HETATM    6  N   UNL     1     -43.925  59.039 -54.655  1.00  0.00     0.092 N 
HETATM    7  H   UNL     1     -43.530  59.948 -54.398  1.00  0.00     0.313 HD
HETATM    8  H   UNL     1     -43.583  58.399 -53.934  1.00  0.00     0.313 HD
ENDBRANCH   5   6
BRANCH   5   9
HETATM    9  C   UNL     1     -41.990  59.382 -56.243  1.00  0.00     0.083 C 
BRANCH   9  10
HETATM   10  C   UNL     1     -41.881  59.929 -57.649  1.00  0.00    -0.056 A 
HETATM   11  C   UNL     1     -42.229  59.137 -58.752  1.00  0.00     0.009 A 
HETATM   12  C   UNL     1     -42.140  59.653 -60.047  1.00  0.00     0.024 A 
HETATM   13  C   UNL     1     -41.704  60.961 -60.244  1.00  0.00     0.034 A 
HETATM   14 CL   UNL     1     -41.606  61.599 -61.838  1.00  0.00    -0.084 Cl
HETATM   15  C   UNL     1     -41.354  61.758 -59.156  1.00  0.00     0.024 A 
HETATM   16  C   UNL     1     -41.439  61.242 -57.861  1.00  0.00     0.009 A 
ENDBRANCH   9  10
ENDBRANCH   5   9
ENDBRANCH   1   5
BRANCH   3  17
HETATM   17  C   UNL     1     -41.742  55.431 -54.651  1.00  0.00     0.034 A 
HETATM   18  C   UNL     1     -42.320  54.700 -53.609  1.00  0.00     0.030 A 
HETATM   19  C   UNL     1     -41.819  53.441 -53.252  1.00  0.00     0.014 A 
HETATM   20  C   UNL     1     -40.732  52.884 -53.936  1.00  0.00    -0.023 A 
HETATM   21  C   UNL     1     -40.178  53.608 -55.000  1.00  0.00     0.014 A 
HETATM   22  C   UNL     1     -40.677  54.868 -55.352  1.00  0.00     0.030 A 
BRANCH  20  23
HETATM   23  C   UNL     1     -40.195  51.591 -53.541  1.00  0.00     0.010 A 
HETATM   24  C   UNL     1     -40.041  50.387 -54.271  1.00  0.00     0.152 A 
HETATM   25  N   UNL     1     -39.526  49.395 -53.538  1.00  0.00    -0.187 NA
HETATM   26  N   UNL     1     -39.350  49.957 -52.333  1.00  0.00    -0.289 N 
HETATM   27  H   UNL     1     -38.966  49.387 -51.587  1.00  0.00     0.188 HD
HETATM   28  C   UNL     1     -39.738  51.265 -52.280  1.00  0.00     0.123 A 
ENDBRANCH  20  23
ENDBRANCH   3  17
TORSDOF 6
ENDMDL
MODEL 10
REMARK VINA RESULT:      -6.9      2.462      3.343
REMARK  6 active torsions:
REMARK  status: ('A' for Active; 'I' for Inactive)
REMARK    1  A    between atoms: N_1  and  C_2 
REMARK    2  A    between atoms: C_2  and  C_3 
REMARK    3  A    between atoms: C_2  and  C_11 
REMARK    4  A    between atoms: C_3  and  C_4 
REMARK       I    between atoms: C_11  and  N_13 
REMARK    5  A    between atoms: N_13  and  C_14 
REMARK    6  A    between atoms: C_17  and  C_20 
ROOT
HETATM    1  C   UNL     1     -41.408  58.015 -51.683  1.00  0.00     0.255 C 
HETATM    2  O   UNL     1     -40.200  58.192 -51.814  1.00  0.00    -0.271 OA
HETATM    3  N   UNL     1     -42.088  56.825 -51.867  1.00  0.00    -0.325 N 
HETATM    4  H   UNL     1     -43.090  56.908 -51.696  1.00  0.00     0.169 HD
ENDROOT
BRANCH   1   5
HETATM    5  C   UNL     1     -42.360  59.177 -51.304  1.00  0.00     0.313 C 
BRANCH   5   6
HETATM    6  N   UNL     1     -41.910  59.816 -50.031  1.00  0.00     0.092 N 
HETATM    7  H   UNL     1     -42.350  60.739 -49.983  1.00  0.00     0.313 HD
HETATM    8  H   UNL     1     -40.909  60.015 -50.113  1.00  0.00     0.313 HD
ENDBRANCH   5   6
BRANCH   5   9
HETATM    9  C   UNL     1     -42.429  60.171 -52.478  1.00  0.00     0.083 C 
BRANCH   9  10
HETATM   10  C   UNL     1     -42.884  59.556 -53.782  1.00  0.00    -0.056 A 
HETATM   11  C   UNL     1     -44.180  59.038 -53.913  1.00  0.00     0.009 A 
HETATM   12  C   UNL     1     -44.599  58.483 -55.125  1.00  0.00     0.024 A 
HETATM   13  C   UNL     1     -43.725  58.445 -56.209  1.00  0.00     0.034 A 
HETATM   14 CL   UNL     1     -44.246  57.772 -57.704  1.00  0.00    -0.084 Cl
HETATM   15  C   UNL     1     -42.434  58.955 -56.091  1.00  0.00     0.024 A 
HETATM   16  C   UNL     1     -42.013  59.506 -54.879  1.00  0.00     0.009 A 
ENDBRANCH   9  10
ENDBRANCH   5   9
ENDBRANCH   1   5
BRANCH   3  17
HETATM   17  C   UNL     1     -41.558  55.551 -52.126  1.00  0.00     0.034 A 
HETATM   18  C   UNL     1     -41.393  55.180 -53.464  1.00  0.00     0.030 A 
HETATM   19  C   UNL     1     -40.924  53.903 -53.801  1.00  0.00     0.014 A 
HETATM   20  C   UNL     1     -40.602  52.973 -52.804  1.00  0.00    -0.023 A 
HETATM   21  C   UNL     1     -40.738  53.364 -51.466  1.00  0.00     0.014 A 
HETATM   22  C   UNL     1     -41.213  54.638 -51.131  1.00  0.00     0.030 A 
BRANCH  20  23
HETATM   23  C   UNL     1     -40.145  51.639 -53.160  1.00  0.00     0.010 A 
HETATM   24  C   UNL     1     -40.214  50.929 -54.383  1.00  0.00     0.152 A 
HETATM   25  N   UNL     1     -39.701  49.697 -54.300  1.00  0.00    -0.187 NA
HETATM   26  N   UNL     1     -39.302  49.610 -53.023  1.00  0.00    -0.289 N 
HETATM   27  H   UNL     1     -38.874  48.746 -52.709  1.00  0.00     0.188 HD
HETATM   28  C   UNL     1     -39.548  50.741 -52.298  1.00  0.00     0.123 A 
ENDBRANCH  20  23
ENDBRANCH   3  17
TORSDOF 6
ENDMDL
