MODEL 1
REMARK VINA RESULT:      -7.4      0.000      0.000
REMARK  8 active torsions:
REMARK  status: ('A' for Active; 'I' for Inactive)
REMARK    1  A    between atoms: C_2  and  C_3 
REMARK    2  A    between atoms: C_3  and  O_4 
REMARK    3  A    between atoms: O_4  and  C_5 
REMARK    4  A    between atoms: C_6  and  O_7 
REMARK    5  A    between atoms: C_10  and  C_11 
REMARK    6  A    between atoms: C_11  and  N_12 
REMARK    7  A    between atoms: N_12  and  C_13 
REMARK    8  A    between atoms: C_20  and  C_21 
REMARK       I    between atoms: C_21  and  N_22 
ROOT
HETATM    1  C   UNL     1     -42.915  56.910 -56.030  1.00  0.00     0.009 A 
HETATM    2  C   UNL     1     -43.441  56.084 -57.040  1.00  0.00     0.039 A 
HETATM    3  C   UNL     1     -43.272  56.418 -58.400  1.00  0.00     0.030 A 
HETATM    4  C   UNL     1     -42.609  57.594 -58.720  1.00  0.00     0.063 A 
HETATM    5  N   UNL     1     -42.611  57.652 -60.084  1.00  0.00    -0.277 N 
HETATM    6  H   UNL     1     -42.217  58.382 -60.667  1.00  0.00     0.189 HD
HETATM    7  N   UNL     1     -43.214  56.612 -60.686  1.00  0.00    -0.168 NA
HETATM    8  C   UNL     1     -43.629  55.841 -59.655  1.00  0.00     0.156 A 
HETATM    9  C   UNL     1     -42.105  58.465 -57.754  1.00  0.00     0.034 A 
HETATM   10  C   UNL     1     -42.284  58.102 -56.409  1.00  0.00     0.026 A 
ENDROOT
BRANCH   1  11
HETATM   11  N   UNL     1     -43.178  56.571 -54.697  1.00  0.00    -0.289 NA
HETATM   12  H   UNL     1     -43.679  57.307 -54.206  1.00  0.00     0.128 HD
BRANCH  11  13
HETATM   13  C   UNL     1     -43.686  55.246 -54.375  1.00  0.00     0.131 C 
BRANCH  13  14
HETATM   14  C   UNL     1     -42.568  54.405 -53.803  1.00  0.00    -0.042 A 
HETATM   15  C   UNL     1     -42.276  54.425 -52.431  1.00  0.00     0.048 A 
HETATM   16  C   UNL     1     -41.248  53.630 -51.908  1.00  0.00     0.102 A 
HETATM   17  C   UNL     1     -40.514  52.781 -52.758  1.00  0.00     0.102 A 
HETATM   18  C   UNL     1     -40.787  52.780 -54.128  1.00  0.00     0.040 A 
HETATM   19  C   UNL     1     -41.803  53.587 -54.646  1.00  0.00     0.011 A 
BRANCH  16  20
HETATM   20  O   UNL     1     -40.934  53.584 -50.571  1.00  0.00    -0.353 OA
HETATM   21  C   UNL     1     -40.381  54.771 -50.018  1.00  0.00     0.210 C 
ENDBRANCH  16  20
BRANCH  17  22
HETATM   22  O   UNL     1     -39.543  52.018 -52.158  1.00  0.00    -0.348 OA
BRANCH  22  23
HETATM   23  C   UNL     1     -39.554  50.615 -52.417  1.00  0.00     0.175 C 
BRANCH  23  24
HETATM   24  C   UNL     1     -39.335  49.894 -51.089  1.00  0.00     0.022 C 
HETATM   25  C   UNL     1     -40.333  50.338 -50.035  1.00  0.00     0.007 C 
ENDBRANCH  23  24
ENDBRANCH  22  23
ENDBRANCH  17  22
ENDBRANCH  13  14
ENDBRANCH  11  13
ENDBRANCH   1  11
BRANCH   8  26
HETATM   26  C   UNL     1     -44.349  54.581 -59.884  1.00  0.00     0.270 C 
HETATM   27  N   UNL     1     -44.930  54.486 -61.120  1.00  0.00    -0.365 N 
HETATM   28  H   UNL     1     -44.826  55.261 -61.765  1.00  0.00     0.159 HD
HETATM   29  H   UNL     1     -45.444  53.657 -61.370  1.00  0.00     0.159 HD
HETATM   30  O   UNL     1     -44.440  53.671 -59.066  1.00  0.00    -0.266 OA
ENDBRANCH   8  26
TORSDOF 8
ENDMDL
MODEL 2
REMARK VINA RESULT:      -7.4      3.266      9.055
REMARK  8 active torsions:
REMARK  status: ('A' for Active; 'I' for Inactive)
REMARK    1  A    between atoms: C_2  and  C_3 
REMARK    2  A    between atoms: C_3  and  O_4 
REMARK    3  A    between atoms: O_4  and  C_5 
REMARK    4  A    between atoms: C_6  and  O_7 
REMARK    5  A    between atoms: C_10  and  C_11 
REMARK    6  A    between atoms: C_11  and  N_12 
REMARK    7  A    between atoms: N_12  and  C_13 
REMARK    8  A    between atoms: C_20  and  C_21 
REMARK       I    between atoms: C_21  and  N_22 
ROOT
HETATM    1  C   UNL     1     -41.172  54.368 -54.548  1.00  0.00     0.009 A 
HETATM    2  C   UNL     1     -40.705  53.050 -54.391  1.00  0.00     0.039 A 
HETATM    3  C   UNL     1     -40.322  52.570 -53.121  1.00  0.00     0.030 A 
HETATM    4  C   UNL     1     -40.380  53.435 -52.038  1.00  0.00     0.063 A 
HETATM    5  N   UNL     1     -39.945  52.706 -50.968  1.00  0.00    -0.277 N 
HETATM    6  H   UNL     1     -39.849  53.021 -50.009  1.00  0.00     0.189 HD
HETATM    7  N   UNL     1     -39.613  51.435 -51.257  1.00  0.00    -0.168 NA
HETATM    8  C   UNL     1     -39.840  51.339 -52.587  1.00  0.00     0.156 A 
HETATM    9  C   UNL     1     -40.797  54.761 -52.150  1.00  0.00     0.034 A 
HETATM   10  C   UNL     1     -41.177  55.207 -53.426  1.00  0.00     0.026 A 
ENDROOT
BRANCH   1  11
HETATM   11  N   UNL     1     -41.466  54.814 -55.842  1.00  0.00    -0.289 NA
HETATM   12  H   UNL     1     -40.916  54.331 -56.548  1.00  0.00     0.128 HD
BRANCH  11  13
HETATM   13  C   UNL     1     -42.853  54.991 -56.247  1.00  0.00     0.131 C 
BRANCH  13  14
HETATM   14  C   UNL     1     -42.912  55.919 -57.440  1.00  0.00    -0.042 A 
HETATM   15  C   UNL     1     -43.407  55.477 -58.675  1.00  0.00     0.048 A 
HETATM   16  C   UNL     1     -43.472  56.349 -59.771  1.00  0.00     0.102 A 
HETATM   17  C   UNL     1     -43.064  57.689 -59.629  1.00  0.00     0.102 A 
HETATM   18  C   UNL     1     -42.547  58.121 -58.405  1.00  0.00     0.040 A 
HETATM   19  C   UNL     1     -42.469  57.242 -57.321  1.00  0.00     0.011 A 
BRANCH  16  20
HETATM   20  O   UNL     1     -43.974  55.985 -60.997  1.00  0.00    -0.353 OA
HETATM   21  C   UNL     1     -45.274  55.411 -60.996  1.00  0.00     0.210 C 
ENDBRANCH  16  20
BRANCH  17  22
HETATM   22  O   UNL     1     -43.186  58.480 -60.744  1.00  0.00    -0.348 OA
BRANCH  22  23
HETATM   23  C   UNL     1     -43.470  59.863 -60.543  1.00  0.00     0.175 C 
BRANCH  23  24
HETATM   24  C   UNL     1     -42.331  60.668 -61.164  1.00  0.00     0.022 C 
HETATM   25  C   UNL     1     -41.477  61.345 -60.107  1.00  0.00     0.007 C 
ENDBRANCH  23  24
ENDBRANCH  22  23
ENDBRANCH  17  22
ENDBRANCH  13  14
ENDBRANCH  11  13
ENDBRANCH   1  11
BRANCH   8  26
HETATM   26  C   UNL     1     -39.597  50.085 -53.315  1.00  0.00     0.270 C 
HETATM   27  N   UNL     1     -39.410  48.997 -52.506  1.00  0.00    -0.365 N 
HETATM   28  H   UNL     1     -39.451  49.127 -51.502  1.00  0.00     0.159 HD
HETATM   29  H   UNL     1     -39.238  48.093 -52.914  1.00  0.00     0.159 HD
HETATM   30  O   UNL     1     -39.561  49.984 -54.537  1.00  0.00    -0.266 OA
ENDBRANCH   8  26
TORSDOF 8
ENDMDL
MODEL 3
REMARK VINA RESULT:      -7.2      1.979      2.385
REMARK  8 active torsions:
REMARK  status: ('A' for Active; 'I' for Inactive)
REMARK    1  A    between atoms: C_2  and  C_3 
REMARK    2  A    between atoms: C_3  and  O_4 
REMARK    3  A    between atoms: O_4  and  C_5 
REMARK    4  A    between atoms: C_6  and  O_7 
REMARK    5  A    between atoms: C_10  and  C_11 
REMARK    6  A    between atoms: C_11  and  N_12 
REMARK    7  A    between atoms: N_12  and  C_13 
REMARK    8  A    between atoms: C_20  and  C_21 
REMARK       I    between atoms: C_21  and  N_22 
ROOT
HETATM    1  C   UNL     1     -43.190  57.384 -57.295  1.00  0.00     0.009 A 
HETATM    2  C   UNL     1     -43.578  56.476 -58.296  1.00  0.00     0.039 A 
HETATM    3  C   UNL     1     -44.799  56.643 -58.984  1.00  0.00     0.030 A 
HETATM    4  C   UNL     1     -45.624  57.699 -58.627  1.00  0.00     0.063 A 
HETATM    5  N   UNL     1     -46.716  57.597 -59.441  1.00  0.00    -0.277 N 
HETATM    6  H   UNL     1     -47.530  58.202 -59.454  1.00  0.00     0.189 HD
HETATM    7  N   UNL     1     -46.674  56.567 -60.304  1.00  0.00    -0.168 NA
HETATM    8  C   UNL     1     -45.493  55.967 -60.030  1.00  0.00     0.156 A 
HETATM    9  C   UNL     1     -45.302  58.603 -57.614  1.00  0.00     0.034 A 
HETATM   10  C   UNL     1     -44.078  58.413 -56.953  1.00  0.00     0.026 A 
ENDROOT
BRANCH   1  11
HETATM   11  N   UNL     1     -42.006  57.128 -56.595  1.00  0.00    -0.289 NA
HETATM   12  H   UNL     1     -41.206  57.600 -57.009  1.00  0.00     0.128 HD
BRANCH  11  13
HETATM   13  C   UNL     1     -41.996  57.196 -55.141  1.00  0.00     0.131 C 
BRANCH  13  14
HETATM   14  C   UNL     1     -41.634  55.840 -54.579  1.00  0.00    -0.042 A 
HETATM   15  C   UNL     1     -42.227  55.364 -53.400  1.00  0.00     0.048 A 
HETATM   16  C   UNL     1     -41.897  54.099 -52.895  1.00  0.00     0.102 A 
HETATM   17  C   UNL     1     -40.982  53.282 -53.586  1.00  0.00     0.102 A 
HETATM   18  C   UNL     1     -40.373  53.767 -54.746  1.00  0.00     0.040 A 
HETATM   19  C   UNL     1     -40.694  55.035 -55.236  1.00  0.00     0.011 A 
BRANCH  16  20
HETATM   20  O   UNL     1     -42.464  53.567 -51.763  1.00  0.00    -0.353 OA
HETATM   21  C   UNL     1     -43.425  54.380 -51.102  1.00  0.00     0.210 C 
ENDBRANCH  16  20
BRANCH  17  22
HETATM   22  O   UNL     1     -40.737  52.049 -53.036  1.00  0.00    -0.348 OA
BRANCH  22  23
HETATM   23  C   UNL     1     -39.387  51.589 -53.026  1.00  0.00     0.175 C 
BRANCH  23  24
HETATM   24  C   UNL     1     -39.274  50.452 -54.038  1.00  0.00     0.022 C 
HETATM   25  C   UNL     1     -40.636  49.913 -54.436  1.00  0.00     0.007 C 
ENDBRANCH  23  24
ENDBRANCH  22  23
ENDBRANCH  17  22
ENDBRANCH  13  14
ENDBRANCH  11  13
ENDBRANCH   1  11
BRANCH   8  26
HETATM   26  C   UNL     1     -45.054  54.774 -60.767  1.00  0.00     0.270 C 
HETATM   27  N   UNL     1     -44.852  53.673 -59.979  1.00  0.00    -0.365 N 
HETATM   28  H   UNL     1     -45.014  53.755 -58.982  1.00  0.00     0.159 HD
HETATM   29  H   UNL     1     -44.551  52.807 -60.395  1.00  0.00     0.159 HD
HETATM   30  O   UNL     1     -44.876  54.730 -61.980  1.00  0.00    -0.266 OA
ENDBRANCH   8  26
TORSDOF 8
ENDMDL
MODEL 4
REMARK VINA RESULT:      -7.2      3.204      8.771
REMARK  8 active torsions:
REMARK  status: ('A' for Active; 'I' for Inactive)
REMARK    1  A    between atoms: C_2  and  C_3 
REMARK    2  A    between atoms: C_3  and  O_4 
REMARK    3  A    between atoms: O_4  and  C_5 
REMARK    4  A    between atoms: C_6  and  O_7 
REMARK    5  A    between atoms: C_10  and  C_11 
REMARK    6  A    between atoms: C_11  and  N_12 
REMARK    7  A    between atoms: N_12  and  C_13 
REMARK    8  A    between atoms: C_20  and  C_21 
REMARK       I    between atoms: C_21  and  N_22 
ROOT
HETATM    1  C   UNL     1     -41.013  54.633 -54.150  1.00  0.00     0.009 A 
HETATM    2  C   UNL     1     -40.556  53.305 -54.061  1.00  0.00     0.039 A 
HETATM    3  C   UNL     1     -40.327  52.706 -52.805  1.00  0.00     0.030 A 
HETATM    4  C   UNL     1     -40.526  53.465 -51.660  1.00  0.00     0.063 A 
HETATM    5  N   UNL     1     -40.219  52.637 -50.618  1.00  0.00    -0.277 N 
HETATM    6  H   UNL     1     -40.246  52.859 -49.630  1.00  0.00     0.189 HD
HETATM    7  N   UNL     1     -39.841  51.399 -50.983  1.00  0.00    -0.168 NA
HETATM    8  C   UNL     1     -39.901  51.429 -52.333  1.00  0.00     0.156 A 
HETATM    9  C   UNL     1     -40.941  54.796 -51.697  1.00  0.00     0.034 A 
HETATM   10  C   UNL     1     -41.165  55.361 -52.963  1.00  0.00     0.026 A 
ENDROOT
BRANCH   1  11
HETATM   11  N   UNL     1     -41.151  55.199 -55.422  1.00  0.00    -0.289 NA
HETATM   12  H   UNL     1     -41.272  54.494 -56.145  1.00  0.00     0.128 HD
BRANCH  11  13
HETATM   13  C   UNL     1     -42.031  56.343 -55.613  1.00  0.00     0.131 C 
BRANCH  13  14
HETATM   14  C   UNL     1     -42.645  56.278 -56.993  1.00  0.00    -0.042 A 
HETATM   15  C   UNL     1     -42.749  57.425 -57.793  1.00  0.00     0.048 A 
HETATM   16  C   UNL     1     -43.305  57.352 -59.077  1.00  0.00     0.102 A 
HETATM   17  C   UNL     1     -43.740  56.114 -59.586  1.00  0.00     0.102 A 
HETATM   18  C   UNL     1     -43.659  54.976 -58.780  1.00  0.00     0.040 A 
HETATM   19  C   UNL     1     -43.119  55.058 -57.494  1.00  0.00     0.011 A 
BRANCH  16  20
HETATM   20  O   UNL     1     -43.408  58.433 -59.918  1.00  0.00    -0.353 OA
HETATM   21  C   UNL     1     -44.334  59.441 -59.532  1.00  0.00     0.210 C 
ENDBRANCH  16  20
BRANCH  17  22
HETATM   22  O   UNL     1     -44.247  56.128 -60.862  1.00  0.00    -0.348 OA
BRANCH  22  23
HETATM   23  C   UNL     1     -45.467  55.426 -61.094  1.00  0.00     0.175 C 
BRANCH  23  24
HETATM   24  C   UNL     1     -46.594  56.219 -60.438  1.00  0.00     0.022 C 
HETATM   25  C   UNL     1     -47.684  56.578 -61.433  1.00  0.00     0.007 C 
ENDBRANCH  23  24
ENDBRANCH  22  23
ENDBRANCH  17  22
ENDBRANCH  13  14
ENDBRANCH  11  13
ENDBRANCH   1  11
BRANCH   8  26
HETATM   26  C   UNL     1     -39.557  50.250 -53.140  1.00  0.00     0.270 C 
HETATM   27  N   UNL     1     -39.399  49.102 -52.413  1.00  0.00    -0.365 N 
HETATM   28  H   UNL     1     -39.527  49.144 -51.408  1.00  0.00     0.159 HD
HETATM   29  H   UNL     1     -39.165  48.241 -52.879  1.00  0.00     0.159 HD
HETATM   30  O   UNL     1     -39.418  50.256 -54.359  1.00  0.00    -0.266 OA
ENDBRANCH   8  26
TORSDOF 8
ENDMDL
MODEL 5
REMARK VINA RESULT:      -7.2      3.003      9.301
REMARK  8 active torsions:
REMARK  status: ('A' for Active; 'I' for Inactive)
REMARK    1  A    between atoms: C_2  and  C_3 
REMARK    2  A    between atoms: C_3  and  O_4 
REMARK    3  A    between atoms: O_4  and  C_5 
REMARK    4  A    between atoms: C_6  and  O_7 
REMARK    5  A    between atoms: C_10  and  C_11 
REMARK    6  A    between atoms: C_11  and  N_12 
REMARK    7  A    between atoms: N_12  and  C_13 
REMARK    8  A    between atoms: C_20  and  C_21 
REMARK       I    between atoms: C_21  and  N_22 
ROOT
HETATM    1  C   UNL     1     -40.934  54.397 -54.567  1.00  0.00     0.009 A 
HETATM    2  C   UNL     1     -41.263  54.663 -53.225  1.00  0.00     0.039 A 
HETATM    3  C   UNL     1     -40.890  53.765 -52.203  1.00  0.00     0.030 A 
HETATM    4  C   UNL     1     -40.226  52.598 -52.552  1.00  0.00     0.063 A 
HETATM    5  N   UNL     1     -40.011  51.937 -51.376  1.00  0.00    -0.277 N 
HETATM    6  H   UNL     1     -39.555  51.041 -51.251  1.00  0.00     0.189 HD
HETATM    7  N   UNL     1     -40.473  52.574 -50.286  1.00  0.00    -0.168 NA
HETATM    8  C   UNL     1     -41.022  53.706 -50.784  1.00  0.00     0.156 A 
HETATM    9  C   UNL     1     -39.913  52.271 -53.872  1.00  0.00     0.034 A 
HETATM   10  C   UNL     1     -40.293  53.188 -54.865  1.00  0.00     0.026 A 
ENDROOT
BRANCH   1  11
HETATM   11  N   UNL     1     -41.395  55.284 -55.547  1.00  0.00    -0.289 NA
HETATM   12  H   UNL     1     -40.673  55.512 -56.227  1.00  0.00     0.128 HD
BRANCH  11  13
HETATM   13  C   UNL     1     -42.692  55.065 -56.170  1.00  0.00     0.131 C 
BRANCH  13  14
HETATM   14  C   UNL     1     -42.827  55.966 -57.376  1.00  0.00    -0.042 A 
HETATM   15  C   UNL     1     -43.298  55.469 -58.600  1.00  0.00     0.048 A 
HETATM   16  C   UNL     1     -43.435  56.315 -59.709  1.00  0.00     0.102 A 
HETATM   17  C   UNL     1     -43.125  57.683 -59.592  1.00  0.00     0.102 A 
HETATM   18  C   UNL     1     -42.633  58.172 -58.380  1.00  0.00     0.040 A 
HETATM   19  C   UNL     1     -42.482  57.320 -57.283  1.00  0.00     0.011 A 
BRANCH  16  20
HETATM   20  O   UNL     1     -43.917  55.894 -60.925  1.00  0.00    -0.353 OA
HETATM   21  C   UNL     1     -45.047  55.034 -60.886  1.00  0.00     0.210 C 
ENDBRANCH  16  20
BRANCH  17  22
HETATM   22  O   UNL     1     -43.313  58.444 -60.719  1.00  0.00    -0.348 OA
BRANCH  22  23
HETATM   23  C   UNL     1     -43.697  59.806 -60.538  1.00  0.00     0.175 C 
BRANCH  23  24
HETATM   24  C   UNL     1     -42.745  60.672 -61.358  1.00  0.00     0.022 C 
HETATM   25  C   UNL     1     -41.600  61.205 -60.516  1.00  0.00     0.007 C 
ENDBRANCH  23  24
ENDBRANCH  22  23
ENDBRANCH  17  22
ENDBRANCH  13  14
ENDBRANCH  11  13
ENDBRANCH   1  11
BRANCH   8  26
HETATM   26  C   UNL     1     -41.652  54.701 -49.905  1.00  0.00     0.270 C 
HETATM   27  N   UNL     1     -41.033  54.846 -48.692  1.00  0.00    -0.365 N 
HETATM   28  H   UNL     1     -40.216  54.281 -48.495  1.00  0.00     0.159 HD
HETATM   29  H   UNL     1     -41.391  55.507 -48.022  1.00  0.00     0.159 HD
HETATM   30  O   UNL     1     -42.642  55.363 -50.198  1.00  0.00    -0.266 OA
ENDBRANCH   8  26
TORSDOF 8
ENDMDL
MODEL 6
REMARK VINA RESULT:      -7.1     14.586     17.444
REMARK  8 active torsions:
REMARK  status: ('A' for Active; 'I' for Inactive)
REMARK    1  A    between atoms: C_2  and  C_3 
REMARK    2  A    between atoms: C_3  and  O_4 
REMARK    3  A    between atoms: O_4  and  C_5 
REMARK    4  A    between atoms: C_6  and  O_7 
REMARK    5  A    between atoms: C_10  and  C_11 
REMARK    6  A    between atoms: C_11  and  N_12 
REMARK    7  A    between atoms: N_12  and  C_13 
REMARK    8  A    between atoms: C_20  and  C_21 
REMARK       I    between atoms: C_21  and  N_22 
ROOT
HETATM    1  C   UNL     1     -36.917  41.697 -56.926  1.00  0.00     0.009 A 
HETATM    2  C   UNL     1     -37.493  41.359 -55.688  1.00  0.00     0.039 A 
HETATM    3  C   UNL     1     -36.810  41.624 -54.482  1.00  0.00     0.030 A 
HETATM    4  C   UNL     1     -35.544  42.190 -54.545  1.00  0.00     0.063 A 
HETATM    5  N   UNL     1     -35.138  42.314 -53.247  1.00  0.00    -0.277 N 
HETATM    6  H   UNL     1     -34.256  42.685 -52.913  1.00  0.00     0.189 HD
HETATM    7  N   UNL     1     -36.032  41.883 -52.339  1.00  0.00    -0.168 NA
HETATM    8  C   UNL     1     -37.070  41.451 -53.091  1.00  0.00     0.156 A 
HETATM    9  C   UNL     1     -34.915  42.505 -55.749  1.00  0.00     0.034 A 
HETATM   10  C   UNL     1     -35.623  42.235 -56.931  1.00  0.00     0.026 A 
ENDROOT
BRANCH   1  11
HETATM   11  N   UNL     1     -37.605  41.343 -58.092  1.00  0.00    -0.289 NA
HETATM   12  H   UNL     1     -38.287  42.048 -58.364  1.00  0.00     0.128 HD
BRANCH  11  13
HETATM   13  C   UNL     1     -36.873  40.814 -59.233  1.00  0.00     0.131 C 
BRANCH  13  14
HETATM   14  C   UNL     1     -37.716  39.771 -59.931  1.00  0.00    -0.042 A 
HETATM   15  C   UNL     1     -37.545  39.497 -61.296  1.00  0.00     0.048 A 
HETATM   16  C   UNL     1     -38.321  38.517 -61.930  1.00  0.00     0.102 A 
HETATM   17  C   UNL     1     -39.263  37.779 -61.190  1.00  0.00     0.102 A 
HETATM   18  C   UNL     1     -39.451  38.069 -59.837  1.00  0.00     0.040 A 
HETATM   19  C   UNL     1     -38.686  39.059 -59.214  1.00  0.00     0.011 A 
BRANCH  16  20
HETATM   20  O   UNL     1     -38.180  38.184 -63.255  1.00  0.00    -0.353 OA
HETATM   21  C   UNL     1     -36.851  38.175 -63.760  1.00  0.00     0.210 C 
ENDBRANCH  16  20
BRANCH  17  22
HETATM   22  O   UNL     1     -39.960  36.821 -61.884  1.00  0.00    -0.348 OA
BRANCH  22  23
HETATM   23  C   UNL     1     -41.343  36.658 -61.574  1.00  0.00     0.175 C 
BRANCH  23  24
HETATM   24  C   UNL     1     -42.127  37.687 -62.384  1.00  0.00     0.022 C 
HETATM   25  C   UNL     1     -41.672  37.730 -63.832  1.00  0.00     0.007 C 
ENDBRANCH  23  24
ENDBRANCH  22  23
ENDBRANCH  17  22
ENDBRANCH  13  14
ENDBRANCH  11  13
ENDBRANCH   1  11
BRANCH   8  26
HETATM   26  C   UNL     1     -38.280  40.891 -52.473  1.00  0.00     0.270 C 
HETATM   27  N   UNL     1     -39.332  41.764 -52.413  1.00  0.00    -0.365 N 
HETATM   28  H   UNL     1     -39.208  42.698 -52.786  1.00  0.00     0.159 HD
HETATM   29  H   UNL     1     -40.206  41.470 -52.008  1.00  0.00     0.159 HD
HETATM   30  O   UNL     1     -38.376  39.747 -52.041  1.00  0.00    -0.266 OA
ENDBRANCH   8  26
TORSDOF 8
ENDMDL
MODEL 7
REMARK VINA RESULT:      -6.7      3.593      9.041
REMARK  8 active torsions:
REMARK  status: ('A' for Active; 'I' for Inactive)
REMARK    1  A    between atoms: C_2  and  C_3 
REMARK    2  A    between atoms: C_3  and  O_4 
REMARK    3  A    between atoms: O_4  and  C_5 
REMARK    4  A    between atoms: C_6  and  O_7 
REMARK    5  A    between atoms: C_10  and  C_11 
REMARK    6  A    between atoms: C_11  and  N_12 
REMARK    7  A    between atoms: N_12  and  C_13 
REMARK    8  A    between atoms: C_20  and  C_21 
REMARK       I    between atoms: C_21  and  N_22 
ROOT
HETATM    1  C   UNL     1     -41.209  54.342 -54.608  1.00  0.00     0.009 A 
HETATM    2  C   UNL     1     -40.718  53.040 -54.405  1.00  0.00     0.039 A 
HETATM    3  C   UNL     1     -40.360  52.600 -53.113  1.00  0.00     0.030 A 
HETATM    4  C   UNL     1     -40.468  53.490 -52.054  1.00  0.00     0.063 A 
HETATM    5  N   UNL     1     -40.047  52.798 -50.955  1.00  0.00    -0.277 N 
HETATM    6  H   UNL     1     -39.986  53.138 -50.002  1.00  0.00     0.189 HD
HETATM    7  N   UNL     1     -39.679  51.529 -51.202  1.00  0.00    -0.168 NA
HETATM    8  C   UNL     1     -39.865  51.394 -52.535  1.00  0.00     0.156 A 
HETATM    9  C   UNL     1     -40.912  54.803 -52.211  1.00  0.00     0.034 A 
HETATM   10  C   UNL     1     -41.265  55.208 -53.508  1.00  0.00     0.026 A 
ENDROOT
BRANCH   1  11
HETATM   11  N   UNL     1     -41.477  54.749 -55.920  1.00  0.00    -0.289 NA
HETATM   12  H   UNL     1     -41.042  54.138 -56.607  1.00  0.00     0.128 HD
BRANCH  11  13
HETATM   13  C   UNL     1     -42.831  55.129 -56.298  1.00  0.00     0.131 C 
BRANCH  13  14
HETATM   14  C   UNL     1     -42.774  56.111 -57.445  1.00  0.00    -0.042 A 
HETATM   15  C   UNL     1     -42.271  57.408 -57.263  1.00  0.00     0.048 A 
HETATM   16  C   UNL     1     -42.208  58.307 -58.337  1.00  0.00     0.102 A 
HETATM   17  C   UNL     1     -42.626  57.902 -59.618  1.00  0.00     0.102 A 
HETATM   18  C   UNL     1     -43.150  56.619 -59.794  1.00  0.00     0.040 A 
HETATM   19  C   UNL     1     -43.226  55.733 -58.716  1.00  0.00     0.011 A 
BRANCH  16  20
HETATM   20  O   UNL     1     -41.700  59.578 -58.227  1.00  0.00    -0.353 OA
HETATM   21  C   UNL     1     -42.460  60.491 -57.446  1.00  0.00     0.210 C 
ENDBRANCH  16  20
BRANCH  17  22
HETATM   22  O   UNL     1     -42.505  58.836 -60.617  1.00  0.00    -0.348 OA
BRANCH  22  23
HETATM   23  C   UNL     1     -43.687  59.524 -61.023  1.00  0.00     0.175 C 
BRANCH  23  24
HETATM   24  C   UNL     1     -43.305  60.971 -61.321  1.00  0.00     0.022 C 
HETATM   25  C   UNL     1     -44.025  61.503 -62.548  1.00  0.00     0.007 C 
ENDBRANCH  23  24
ENDBRANCH  22  23
ENDBRANCH  17  22
ENDBRANCH  13  14
ENDBRANCH  11  13
ENDBRANCH   1  11
BRANCH   8  26
HETATM   26  C   UNL     1     -39.574  50.129 -53.224  1.00  0.00     0.270 C 
HETATM   27  N   UNL     1     -39.432  49.056 -52.386  1.00  0.00    -0.365 N 
HETATM   28  H   UNL     1     -39.535  49.204 -51.389  1.00  0.00     0.159 HD
HETATM   29  H   UNL     1     -39.233  48.145 -52.766  1.00  0.00     0.159 HD
HETATM   30  O   UNL     1     -39.463  50.007 -54.440  1.00  0.00    -0.266 OA
ENDBRANCH   8  26
TORSDOF 8
ENDMDL
MODEL 8
REMARK VINA RESULT:      -6.7      1.812      2.626
REMARK  8 active torsions:
REMARK  status: ('A' for Active; 'I' for Inactive)
REMARK    1  A    between atoms: C_2  and  C_3 
REMARK    2  A    between atoms: C_3  and  O_4 
REMARK    3  A    between atoms: O_4  and  C_5 
REMARK    4  A    between atoms: C_6  and  O_7 
REMARK    5  A    between atoms: C_10  and  C_11 
REMARK    6  A    between atoms: C_11  and  N_12 
REMARK    7  A    between atoms: N_12  and  C_13 
REMARK    8  A    between atoms: C_20  and  C_21 
REMARK       I    between atoms: C_21  and  N_22 
ROOT
HETATM    1  C   UNL     1     -43.623  57.970 -56.303  1.00  0.00     0.009 A 
HETATM    2  C   UNL     1     -44.267  57.143 -57.242  1.00  0.00     0.039 A 
HETATM    3  C   UNL     1     -43.730  56.973 -58.535  1.00  0.00     0.030 A 
HETATM    4  C   UNL     1     -42.577  57.666 -58.874  1.00  0.00     0.063 A 
HETATM    5  N   UNL     1     -42.311  57.317 -60.167  1.00  0.00    -0.277 N 
HETATM    6  H   UNL     1     -41.542  57.640 -60.744  1.00  0.00     0.189 HD
HETATM    7  N   UNL     1     -43.188  56.450 -60.703  1.00  0.00    -0.168 NA
HETATM    8  C   UNL     1     -44.074  56.231 -59.704  1.00  0.00     0.156 A 
HETATM    9  C   UNL     1     -41.926  58.528 -57.991  1.00  0.00     0.034 A 
HETATM   10  C   UNL     1     -42.481  58.671 -56.710  1.00  0.00     0.026 A 
ENDROOT
BRANCH   1  11
HETATM   11  N   UNL     1     -44.240  58.161 -55.060  1.00  0.00    -0.289 NA
HETATM   12  H   UNL     1     -44.865  58.963 -55.063  1.00  0.00     0.128 HD
BRANCH  11  13
HETATM   13  C   UNL     1     -44.803  57.023 -54.350  1.00  0.00     0.131 C 
BRANCH  13  14
HETATM   14  C   UNL     1     -43.695  56.272 -53.647  1.00  0.00    -0.042 A 
HETATM   15  C   UNL     1     -43.037  55.202 -54.272  1.00  0.00     0.048 A 
HETATM   16  C   UNL     1     -42.000  54.522 -53.619  1.00  0.00     0.102 A 
HETATM   17  C   UNL     1     -41.592  54.929 -52.335  1.00  0.00     0.102 A 
HETATM   18  C   UNL     1     -42.264  55.978 -51.703  1.00  0.00     0.040 A 
HETATM   19  C   UNL     1     -43.308  56.641 -52.352  1.00  0.00     0.011 A 
BRANCH  16  20
HETATM   20  O   UNL     1     -41.299  53.487 -54.189  1.00  0.00    -0.353 OA
HETATM   21  C   UNL     1     -40.286  53.853 -55.116  1.00  0.00     0.210 C 
ENDBRANCH  16  20
BRANCH  17  22
HETATM   22  O   UNL     1     -40.552  54.225 -51.780  1.00  0.00    -0.348 OA
BRANCH  22  23
HETATM   23  C   UNL     1     -40.788  53.575 -50.532  1.00  0.00     0.175 C 
BRANCH  23  24
HETATM   24  C   UNL     1     -39.788  54.130 -49.521  1.00  0.00     0.022 C 
HETATM   25  C   UNL     1     -40.321  54.054 -48.101  1.00  0.00     0.007 C 
ENDBRANCH  23  24
ENDBRANCH  22  23
ENDBRANCH  17  22
ENDBRANCH  13  14
ENDBRANCH  11  13
ENDBRANCH   1  11
BRANCH   8  26
HETATM   26  C   UNL     1     -45.216  55.324 -59.881  1.00  0.00     0.270 C 
HETATM   27  N   UNL     1     -44.951  54.021 -59.556  1.00  0.00    -0.365 N 
HETATM   28  H   UNL     1     -44.022  53.784 -59.228  1.00  0.00     0.159 HD
HETATM   29  H   UNL     1     -45.674  53.325 -59.643  1.00  0.00     0.159 HD
HETATM   30  O   UNL     1     -46.324  55.668 -60.279  1.00  0.00    -0.266 OA
ENDBRANCH   8  26
TORSDOF 8
ENDMDL
MODEL 9
REMARK VINA RESULT:      -6.7      3.787      5.314
REMARK  8 active torsions:
REMARK  status: ('A' for Active; 'I' for Inactive)
REMARK    1  A    between atoms: C_2  and  C_3 
REMARK    2  A    between atoms: C_3  and  O_4 
REMARK    3  A    between atoms: O_4  and  C_5 
REMARK    4  A    between atoms: C_6  and  O_7 
REMARK    5  A    between atoms: C_10  and  C_11 
REMARK    6  A    between atoms: C_11  and  N_12 
REMARK    7  A    between atoms: N_12  and  C_13 
REMARK    8  A    between atoms: C_20  and  C_21 
REMARK       I    between atoms: C_21  and  N_22 
ROOT
HETATM    1  C   UNL     1     -44.146  56.866 -53.751  1.00  0.00     0.009 A 
HETATM    2  C   UNL     1     -43.145  57.454 -52.956  1.00  0.00     0.039 A 
HETATM    3  C   UNL     1     -43.060  58.857 -52.831  1.00  0.00     0.030 A 
HETATM    4  C   UNL     1     -43.959  59.644 -53.535  1.00  0.00     0.063 A 
HETATM    5  N   UNL     1     -43.629  60.933 -53.231  1.00  0.00    -0.277 N 
HETATM    6  H   UNL     1     -44.073  61.778 -53.574  1.00  0.00     0.189 HD
HETATM    7  N   UNL     1     -42.593  61.058 -52.382  1.00  0.00    -0.168 NA
HETATM    8  C   UNL     1     -42.230  59.780 -52.129  1.00  0.00     0.156 A 
HETATM    9  C   UNL     1     -44.943  59.108 -54.367  1.00  0.00     0.034 A 
HETATM   10  C   UNL     1     -45.006  57.710 -54.466  1.00  0.00     0.026 A 
ENDROOT
BRANCH   1  11
HETATM   11  N   UNL     1     -44.136  55.474 -53.899  1.00  0.00    -0.289 NA
HETATM   12  H   UNL     1     -45.074  55.095 -54.012  1.00  0.00     0.128 HD
BRANCH  11  13
HETATM   13  C   UNL     1     -43.175  54.848 -54.796  1.00  0.00     0.131 C 
BRANCH  13  14
HETATM   14  C   UNL     1     -42.161  54.076 -53.983  1.00  0.00    -0.042 A 
HETATM   15  C   UNL     1     -41.996  54.321 -52.612  1.00  0.00     0.048 A 
HETATM   16  C   UNL     1     -41.064  53.589 -51.863  1.00  0.00     0.102 A 
HETATM   17  C   UNL     1     -40.303  52.579 -52.481  1.00  0.00     0.102 A 
HETATM   18  C   UNL     1     -40.449  52.353 -53.852  1.00  0.00     0.040 A 
HETATM   19  C   UNL     1     -41.368  53.098 -54.596  1.00  0.00     0.011 A 
BRANCH  16  20
HETATM   20  O   UNL     1     -40.877  53.762 -50.513  1.00  0.00    -0.353 OA
HETATM   21  C   UNL     1     -41.867  54.525 -49.837  1.00  0.00     0.210 C 
ENDBRANCH  16  20
BRANCH  17  22
HETATM   22  O   UNL     1     -39.433  51.894 -51.669  1.00  0.00    -0.348 OA
BRANCH  22  23
HETATM   23  C   UNL     1     -39.158  50.534 -51.998  1.00  0.00     0.175 C 
BRANCH  23  24
HETATM   24  C   UNL     1     -39.818  49.655 -50.939  1.00  0.00     0.022 C 
HETATM   25  C   UNL     1     -40.324  50.472 -49.763  1.00  0.00     0.007 C 
ENDBRANCH  23  24
ENDBRANCH  22  23
ENDBRANCH  17  22
ENDBRANCH  13  14
ENDBRANCH  11  13
ENDBRANCH   1  11
BRANCH   8  26
HETATM   26  C   UNL     1     -41.112  59.468 -51.228  1.00  0.00     0.270 C 
HETATM   27  N   UNL     1     -41.495  58.943 -50.023  1.00  0.00    -0.365 N 
HETATM   28  H   UNL     1     -42.483  58.811 -49.845  1.00  0.00     0.159 HD
HETATM   29  H   UNL     1     -40.798  58.695 -49.340  1.00  0.00     0.159 HD
HETATM   30  O   UNL     1     -39.928  59.646 -51.498  1.00  0.00    -0.266 OA
ENDBRANCH   8  26
TORSDOF 8
ENDMDL
MODEL 10
REMARK VINA RESULT:      -6.6      2.088      2.730
REMARK  8 active torsions:
REMARK  status: ('A' for Active; 'I' for Inactive)
REMARK    1  A    between atoms: C_2  and  C_3 
REMARK    2  A    between atoms: C_3  and  O_4 
REMARK    3  A    between atoms: O_4  and  C_5 
REMARK    4  A    between atoms: C_6  and  O_7 
REMARK    5  A    between atoms: C_10  and  C_11 
REMARK    6  A    between atoms: C_11  and  N_12 
REMARK    7  A    between atoms: N_12  and  C_13 
REMARK    8  A    between atoms: C_20  and  C_21 
REMARK       I    between atoms: C_21  and  N_22 
ROOT
HETATM    1  C   UNL     1     -42.263  59.238 -56.092  1.00  0.00     0.009 A 
HETATM    2  C   UNL     1     -42.522  58.413 -57.202  1.00  0.00     0.039 A 
HETATM    3  C   UNL     1     -42.349  58.900 -58.515  1.00  0.00     0.030 A 
HETATM    4  C   UNL     1     -41.954  60.219 -58.689  1.00  0.00     0.063 A 
HETATM    5  N   UNL     1     -41.884  60.401 -60.040  1.00  0.00    -0.277 N 
HETATM    6  H   UNL     1     -41.632  61.251 -60.532  1.00  0.00     0.189 HD
HETATM    7  N   UNL     1     -42.194  59.313 -60.767  1.00  0.00    -0.168 NA
HETATM    8  C   UNL     1     -42.486  58.377 -59.835  1.00  0.00     0.156 A 
HETATM    9  C   UNL     1     -41.724  61.087 -57.621  1.00  0.00     0.034 A 
HETATM   10  C   UNL     1     -41.899  60.570 -56.327  1.00  0.00     0.026 A 
ENDROOT
BRANCH   1  11
HETATM   11  N   UNL     1     -42.524  58.726 -54.816  1.00  0.00    -0.289 NA
HETATM   12  H   UNL     1     -43.170  57.941 -54.842  1.00  0.00     0.128 HD
BRANCH  11  13
HETATM   13  C   UNL     1     -41.426  58.508 -53.886  1.00  0.00     0.131 C 
BRANCH  13  14
HETATM   14  C   UNL     1     -41.248  57.024 -53.660  1.00  0.00    -0.042 A 
HETATM   15  C   UNL     1     -41.701  56.412 -52.482  1.00  0.00     0.048 A 
HETATM   16  C   UNL     1     -41.546  55.033 -52.288  1.00  0.00     0.102 A 
HETATM   17  C   UNL     1     -40.956  54.243 -53.293  1.00  0.00     0.102 A 
HETATM   18  C   UNL     1     -40.483  54.856 -54.456  1.00  0.00     0.040 A 
HETATM   19  C   UNL     1     -40.625  56.235 -54.636  1.00  0.00     0.011 A 
BRANCH  16  20
HETATM   20  O   UNL     1     -41.994  54.373 -51.170  1.00  0.00    -0.353 OA
HETATM   21  C   UNL     1     -43.404  54.294 -51.012  1.00  0.00     0.210 C 
ENDBRANCH  16  20
BRANCH  17  22
HETATM   22  O   UNL     1     -40.868  52.898 -53.032  1.00  0.00    -0.348 OA
BRANCH  22  23
HETATM   23  C   UNL     1     -40.637  52.027 -54.137  1.00  0.00     0.175 C 
BRANCH  23  24
HETATM   24  C   UNL     1     -39.553  51.033 -53.728  1.00  0.00     0.022 C 
HETATM   25  C   UNL     1     -39.639  49.744 -54.525  1.00  0.00     0.007 C 
ENDBRANCH  23  24
ENDBRANCH  22  23
ENDBRANCH  17  22
ENDBRANCH  13  14
ENDBRANCH  11  13
ENDBRANCH   1  11
BRANCH   8  26
HETATM   26  C   UNL     1     -42.883  57.015 -60.218  1.00  0.00     0.270 C 
HETATM   27  N   UNL     1     -44.169  56.915 -60.674  1.00  0.00    -0.365 N 
HETATM   28  H   UNL     1     -44.735  57.755 -60.715  1.00  0.00     0.159 HD
HETATM   29  H   UNL     1     -44.531  56.021 -60.962  1.00  0.00     0.159 HD
HETATM   30  O   UNL     1     -42.153  56.031 -60.151  1.00  0.00    -0.266 OA
ENDBRANCH   8  26
TORSDOF 8
ENDMDL
