MODEL 1
REMARK VINA RESULT:      -9.2      0.000      0.000
REMARK  7 active torsions:
REMARK  status: ('A' for Active; 'I' for Inactive)
REMARK    1  A    between atoms: C_2  and  C_3 
REMARK    2  A    between atoms: C_3  and  C_4 
REMARK    3  A    between atoms: C_4  and  N_5 
REMARK       I    between atoms: N_5  and  C_6 
REMARK    4  A    between atoms: C_6  and  C_7 
REMARK    5  A    between atoms: C_8  and  N_9 
REMARK    6  A    between atoms: N_10  and  N_11 
REMARK    7  A    between atoms: C_12  and  C_13 
ROOT
HETATM    1  C   UNL     1     -43.351  55.877 -52.979  1.00  0.00     0.104 C 
HETATM    2  C   UNL     1     -44.041  55.879 -54.187  1.00  0.00     0.123 C 
HETATM    3  N   UNL     1     -43.259  55.175 -55.104  1.00  0.00    -0.202 N 
HETATM    4  C   UNL     1     -42.466  54.308 -54.380  1.00  0.00     0.183 A 
HETATM    5  C   UNL     1     -42.448  54.779 -53.067  1.00  0.00     0.124 A 
HETATM    6  N   UNL     1     -41.627  54.220 -52.141  1.00  0.00    -0.242 NA
HETATM    7  C   UNL     1     -40.914  53.169 -52.576  1.00  0.00     0.086 A 
HETATM    8  C   UNL     1     -40.977  52.694 -53.915  1.00  0.00     0.088 A 
HETATM    9  N   UNL     1     -41.735  53.275 -54.857  1.00  0.00    -0.225 NA
HETATM   10  C   UNL     1     -40.084  52.513 -51.676  1.00  0.00     0.034 A 
HETATM   11  C   UNL     1     -39.330  51.399 -52.049  1.00  0.00     0.002 A 
HETATM   12  C   UNL     1     -39.405  50.929 -53.352  1.00  0.00     0.002 A 
HETATM   13  C   UNL     1     -40.224  51.583 -54.271  1.00  0.00     0.034 A 
ENDROOT
BRANCH   3  14
HETATM   14  N   UNL     1     -43.214  55.352 -56.470  1.00  0.00    -0.176 NA
HETATM   15  C   UNL     1     -42.868  56.554 -56.800  1.00  0.00     0.153 C 
BRANCH  15  16
HETATM   16  C   UNL     1     -42.710  56.958 -58.177  1.00  0.00     0.011 A 
HETATM   17  C   UNL     1     -42.432  58.287 -58.631  1.00  0.00     0.004 A 
HETATM   18  C   UNL     1     -42.229  58.220 -60.009  1.00  0.00     0.043 A 
HETATM   19  C   UNL     1     -42.322  59.542 -57.992  1.00  0.00     0.014 A 
HETATM   20  C   UNL     1     -41.897  59.343 -60.778  1.00  0.00     0.030 A 
HETATM   21  N   UNL     1     -42.413  56.908 -60.381  1.00  0.00    -0.364 N 
HETATM   22  C   UNL     1     -41.791  60.573 -60.120  1.00  0.00     0.002 A 
HETATM   23  C   UNL     1     -42.008  60.677 -58.748  1.00  0.00     0.001 A 
HETATM   24  H   UNL     1     -42.317  56.560 -61.325  1.00  0.00     0.165 HD
HETATM   25  C   UNL     1     -42.724  56.142 -59.288  1.00  0.00     0.102 A 
ENDBRANCH  15  16
ENDBRANCH   3  14
BRANCH   2  26
HETATM   26  N   UNL     1     -45.192  56.524 -54.559  1.00  0.00    -0.286 NA
HETATM   27  H   UNL     1     -45.741  56.947 -53.806  1.00  0.00     0.125 HD
HETATM   28  H   UNL     1     -45.822  56.005 -55.180  1.00  0.00     0.125 HD
ENDBRANCH   2  26
BRANCH   1  29
HETATM   29  C   UNL     1     -43.540  56.836 -51.897  1.00  0.00     0.257 C 
HETATM   30  N   UNL     1     -43.526  58.142 -52.352  1.00  0.00    -0.357 N 
HETATM   31  H   UNL     1     -43.325  58.261 -53.340  1.00  0.00     0.162 HD
HETATM   32  O   UNL     1     -43.614  56.541 -50.711  1.00  0.00    -0.267 OA
BRANCH  30  33
HETATM   33  C   UNL     1     -43.353  59.299 -51.501  1.00  0.00     0.123 C 
BRANCH  33  34
HETATM   34  C   UNL     1     -41.994  59.937 -51.800  1.00  0.00     0.023 C 
BRANCH  34  35
HETATM   35  C   UNL     1     -40.783  59.034 -51.526  1.00  0.00    -0.021 C 
HETATM   36  C   UNL     1     -39.831  59.644 -50.501  1.00  0.00     0.009 C 
HETATM   37  C   UNL     1     -40.037  58.769 -52.839  1.00  0.00     0.009 C 
ENDBRANCH  34  35
ENDBRANCH  33  34
ENDBRANCH  30  33
ENDBRANCH   1  29
TORSDOF 7
ENDMDL
MODEL 2
REMARK VINA RESULT:      -9.0      2.470      8.197
REMARK  7 active torsions:
REMARK  status: ('A' for Active; 'I' for Inactive)
REMARK    1  A    between atoms: C_2  and  C_3 
REMARK    2  A    between atoms: C_3  and  C_4 
REMARK    3  A    between atoms: C_4  and  N_5 
REMARK       I    between atoms: N_5  and  C_6 
REMARK    4  A    between atoms: C_6  and  C_7 
REMARK    5  A    between atoms: C_8  and  N_9 
REMARK    6  A    between atoms: N_10  and  N_11 
REMARK    7  A    between atoms: C_12  and  C_13 
ROOT
HETATM    1  C   UNL     1     -43.509  57.586 -55.825  1.00  0.00     0.104 C 
HETATM    2  C   UNL     1     -43.560  56.215 -55.594  1.00  0.00     0.123 C 
HETATM    3  N   UNL     1     -43.570  56.035 -54.210  1.00  0.00    -0.202 N 
HETATM    4  C   UNL     1     -44.091  57.187 -53.655  1.00  0.00     0.183 A 
HETATM    5  C   UNL     1     -43.986  58.185 -54.624  1.00  0.00     0.124 A 
HETATM    6  N   UNL     1     -44.279  59.476 -54.325  1.00  0.00    -0.242 NA
HETATM    7  C   UNL     1     -44.727  59.681 -53.075  1.00  0.00     0.086 A 
HETATM    8  C   UNL     1     -44.852  58.636 -52.119  1.00  0.00     0.088 A 
HETATM    9  N   UNL     1     -44.505  57.367 -52.380  1.00  0.00    -0.225 NA
HETATM   10  C   UNL     1     -45.092  60.969 -52.705  1.00  0.00     0.034 A 
HETATM   11  C   UNL     1     -45.589  61.255 -51.432  1.00  0.00     0.002 A 
HETATM   12  C   UNL     1     -45.723  60.231 -50.506  1.00  0.00     0.002 A 
HETATM   13  C   UNL     1     -45.350  58.934 -50.857  1.00  0.00     0.034 A 
ENDROOT
BRANCH   3  14
HETATM   14  N   UNL     1     -43.084  54.955 -53.505  1.00  0.00    -0.176 NA
HETATM   15  C   UNL     1     -41.823  55.068 -53.239  1.00  0.00     0.153 C 
BRANCH  15  16
HETATM   16  C   UNL     1     -41.108  54.077 -52.470  1.00  0.00     0.011 A 
HETATM   17  C   UNL     1     -40.672  52.801 -52.950  1.00  0.00     0.004 A 
HETATM   18  C   UNL     1     -39.914  52.214 -51.938  1.00  0.00     0.043 A 
HETATM   19  C   UNL     1     -40.844  52.096 -54.162  1.00  0.00     0.014 A 
HETATM   20  C   UNL     1     -39.296  50.965 -52.086  1.00  0.00     0.030 A 
HETATM   21  N   UNL     1     -39.921  53.085 -50.872  1.00  0.00    -0.364 N 
HETATM   22  C   UNL     1     -39.480  50.289 -53.297  1.00  0.00     0.002 A 
HETATM   23  C   UNL     1     -40.248  50.839 -54.319  1.00  0.00     0.001 A 
HETATM   24  H   UNL     1     -39.439  52.925 -49.998  1.00  0.00     0.165 HD
HETATM   25  C   UNL     1     -40.655  54.201 -51.174  1.00  0.00     0.102 A 
ENDBRANCH  15  16
ENDBRANCH   3  14
BRANCH   2  26
HETATM   26  N   UNL     1     -43.479  55.158 -56.462  1.00  0.00    -0.286 NA
HETATM   27  H   UNL     1     -42.890  54.372 -56.170  1.00  0.00     0.125 HD
HETATM   28  H   UNL     1     -43.266  55.389 -57.438  1.00  0.00     0.125 HD
ENDBRANCH   2  26
BRANCH   1  29
HETATM   29  C   UNL     1     -43.037  58.219 -57.052  1.00  0.00     0.257 C 
HETATM   30  N   UNL     1     -43.697  57.741 -58.169  1.00  0.00    -0.357 N 
HETATM   31  H   UNL     1     -44.355  56.988 -58.002  1.00  0.00     0.162 HD
HETATM   32  O   UNL     1     -42.107  59.012 -57.111  1.00  0.00    -0.267 OA
BRANCH  30  33
HETATM   33  C   UNL     1     -43.231  57.919 -59.528  1.00  0.00     0.123 C 
BRANCH  33  34
HETATM   34  C   UNL     1     -43.980  56.947 -60.441  1.00  0.00     0.023 C 
BRANCH  34  35
HETATM   35  C   UNL     1     -44.945  55.995 -59.720  1.00  0.00    -0.021 C 
HETATM   36  C   UNL     1     -44.511  54.537 -59.841  1.00  0.00     0.009 C 
HETATM   37  C   UNL     1     -46.356  56.169 -60.292  1.00  0.00     0.009 C 
ENDBRANCH  34  35
ENDBRANCH  33  34
ENDBRANCH  30  33
ENDBRANCH   1  29
TORSDOF 7
ENDMDL
MODEL 3
REMARK VINA RESULT:      -9.0      2.401      7.484
REMARK  7 active torsions:
REMARK  status: ('A' for Active; 'I' for Inactive)
REMARK    1  A    between atoms: C_2  and  C_3 
REMARK    2  A    between atoms: C_3  and  C_4 
REMARK    3  A    between atoms: C_4  and  N_5 
REMARK       I    between atoms: N_5  and  C_6 
REMARK    4  A    between atoms: C_6  and  C_7 
REMARK    5  A    between atoms: C_8  and  N_9 
REMARK    6  A    between atoms: N_10  and  N_11 
REMARK    7  A    between atoms: C_12  and  C_13 
ROOT
HETATM    1  C   UNL     1     -42.227  58.757 -55.091  1.00  0.00     0.104 C 
HETATM    2  C   UNL     1     -41.486  57.940 -54.243  1.00  0.00     0.123 C 
HETATM    3  N   UNL     1     -41.891  56.626 -54.486  1.00  0.00    -0.202 N 
HETATM    4  C   UNL     1     -42.381  56.585 -55.776  1.00  0.00     0.183 A 
HETATM    5  C   UNL     1     -42.672  57.900 -56.138  1.00  0.00     0.124 A 
HETATM    6  N   UNL     1     -43.314  58.173 -57.304  1.00  0.00    -0.242 NA
HETATM    7  C   UNL     1     -43.571  57.102 -58.073  1.00  0.00     0.086 A 
HETATM    8  C   UNL     1     -43.234  55.776 -57.688  1.00  0.00     0.088 A 
HETATM    9  N   UNL     1     -42.658  55.485 -56.512  1.00  0.00    -0.225 NA
HETATM   10  C   UNL     1     -44.185  57.302 -59.303  1.00  0.00     0.034 A 
HETATM   11  C   UNL     1     -44.461  56.241 -60.168  1.00  0.00     0.002 A 
HETATM   12  C   UNL     1     -44.119  54.950 -59.795  1.00  0.00     0.002 A 
HETATM   13  C   UNL     1     -43.512  54.730 -58.558  1.00  0.00     0.034 A 
ENDROOT
BRANCH   3  14
HETATM   14  N   UNL     1     -41.885  55.573 -53.597  1.00  0.00    -0.176 NA
HETATM   15  C   UNL     1     -40.758  54.937 -53.594  1.00  0.00     0.153 C 
BRANCH  15  16
HETATM   16  C   UNL     1     -40.505  53.825 -52.710  1.00  0.00     0.011 A 
HETATM   17  C   UNL     1     -40.281  52.470 -53.114  1.00  0.00     0.004 A 
HETATM   18  C   UNL     1     -39.950  51.746 -51.969  1.00  0.00     0.043 A 
HETATM   19  C   UNL     1     -40.317  51.795 -54.354  1.00  0.00     0.014 A 
HETATM   20  C   UNL     1     -39.629  50.383 -52.006  1.00  0.00     0.030 A 
HETATM   21  N   UNL     1     -40.008  52.620 -50.907  1.00  0.00    -0.364 N 
HETATM   22  C   UNL     1     -39.670  49.738 -53.247  1.00  0.00     0.002 A 
HETATM   23  C   UNL     1     -40.016  50.429 -54.405  1.00  0.00     0.001 A 
HETATM   24  H   UNL     1     -39.803  52.373 -49.949  1.00  0.00     0.165 HD
HETATM   25  C   UNL     1     -40.362  53.871 -51.339  1.00  0.00     0.102 A 
ENDBRANCH  15  16
ENDBRANCH   3  14
BRANCH   2  26
HETATM   26  N   UNL     1     -40.613  58.255 -53.234  1.00  0.00    -0.286 NA
HETATM   27  H   UNL     1     -40.036  59.089 -53.375  1.00  0.00     0.125 HD
HETATM   28  H   UNL     1     -40.018  57.492 -52.896  1.00  0.00     0.125 HD
ENDBRANCH   2  26
BRANCH   1  29
HETATM   29  C   UNL     1     -42.479  60.179 -54.887  1.00  0.00     0.257 C 
HETATM   30  N   UNL     1     -42.990  60.783 -56.021  1.00  0.00    -0.357 N 
HETATM   31  H   UNL     1     -43.057  60.190 -56.842  1.00  0.00     0.162 HD
HETATM   32  O   UNL     1     -42.194  60.796 -53.870  1.00  0.00    -0.267 OA
BRANCH  30  33
HETATM   33  C   UNL     1     -43.023  62.213 -56.237  1.00  0.00     0.123 C 
BRANCH  33  34
HETATM   34  C   UNL     1     -42.593  62.509 -57.676  1.00  0.00     0.023 C 
BRANCH  34  35
HETATM   35  C   UNL     1     -41.512  61.572 -58.232  1.00  0.00    -0.021 C 
HETATM   36  C   UNL     1     -40.256  62.330 -58.656  1.00  0.00     0.009 C 
HETATM   37  C   UNL     1     -42.077  60.791 -59.424  1.00  0.00     0.009 C 
ENDBRANCH  34  35
ENDBRANCH  33  34
ENDBRANCH  30  33
ENDBRANCH   1  29
TORSDOF 7
ENDMDL
MODEL 4
REMARK VINA RESULT:      -9.0      1.554      2.670
REMARK  7 active torsions:
REMARK  status: ('A' for Active; 'I' for Inactive)
REMARK    1  A    between atoms: C_2  and  C_3 
REMARK    2  A    between atoms: C_3  and  C_4 
REMARK    3  A    between atoms: C_4  and  N_5 
REMARK       I    between atoms: N_5  and  C_6 
REMARK    4  A    between atoms: C_6  and  C_7 
REMARK    5  A    between atoms: C_8  and  N_9 
REMARK    6  A    between atoms: N_10  and  N_11 
REMARK    7  A    between atoms: C_12  and  C_13 
ROOT
HETATM    1  C   UNL     1     -42.156  55.857 -51.854  1.00  0.00     0.104 C 
HETATM    2  C   UNL     1     -43.215  56.166 -52.700  1.00  0.00     0.123 C 
HETATM    3  N   UNL     1     -42.995  55.483 -53.897  1.00  0.00    -0.202 N 
HETATM    4  C   UNL     1     -42.209  54.387 -53.600  1.00  0.00     0.183 A 
HETATM    5  C   UNL     1     -41.614  54.642 -52.364  1.00  0.00     0.124 A 
HETATM    6  N   UNL     1     -40.662  53.810 -51.868  1.00  0.00    -0.242 NA
HETATM    7  C   UNL     1     -40.407  52.727 -52.621  1.00  0.00     0.086 A 
HETATM    8  C   UNL     1     -41.054  52.482 -53.864  1.00  0.00     0.088 A 
HETATM    9  N   UNL     1     -41.949  53.326 -54.396  1.00  0.00    -0.225 NA
HETATM   10  C   UNL     1     -39.477  51.804 -52.161  1.00  0.00     0.034 A 
HETATM   11  C   UNL     1     -39.178  50.643 -52.877  1.00  0.00     0.002 A 
HETATM   12  C   UNL     1     -39.820  50.399 -54.081  1.00  0.00     0.002 A 
HETATM   13  C   UNL     1     -40.748  51.322 -54.564  1.00  0.00     0.034 A 
ENDROOT
BRANCH   3  14
HETATM   14  N   UNL     1     -43.407  55.856 -55.158  1.00  0.00    -0.176 NA
HETATM   15  C   UNL     1     -42.494  56.508 -55.802  1.00  0.00     0.153 C 
BRANCH  15  16
HETATM   16  C   UNL     1     -42.685  56.960 -57.159  1.00  0.00     0.011 A 
HETATM   17  C   UNL     1     -43.295  56.207 -58.213  1.00  0.00     0.004 A 
HETATM   18  C   UNL     1     -43.397  57.051 -59.319  1.00  0.00     0.043 A 
HETATM   19  C   UNL     1     -43.782  54.886 -58.323  1.00  0.00     0.014 A 
HETATM   20  C   UNL     1     -43.986  56.646 -60.524  1.00  0.00     0.030 A 
HETATM   21  N   UNL     1     -42.837  58.256 -58.960  1.00  0.00    -0.364 N 
HETATM   22  C   UNL     1     -44.463  55.333 -60.605  1.00  0.00     0.002 A 
HETATM   23  C   UNL     1     -44.358  54.460 -59.526  1.00  0.00     0.001 A 
HETATM   24  H   UNL     1     -42.782  59.065 -59.564  1.00  0.00     0.165 HD
HETATM   25  C   UNL     1     -42.385  58.206 -57.668  1.00  0.00     0.102 A 
ENDBRANCH  15  16
ENDBRANCH   3  14
BRANCH   2  26
HETATM   26  N   UNL     1     -44.247  57.056 -52.552  1.00  0.00    -0.286 NA
HETATM   27  H   UNL     1     -44.373  57.738 -53.305  1.00  0.00     0.125 HD
HETATM   28  H   UNL     1     -44.299  57.543 -51.651  1.00  0.00     0.125 HD
ENDBRANCH   2  26
BRANCH   1  29
HETATM   29  C   UNL     1     -41.722  56.657 -50.714  1.00  0.00     0.257 C 
HETATM   30  N   UNL     1     -41.651  58.003 -51.023  1.00  0.00    -0.357 N 
HETATM   31  H   UNL     1     -41.839  58.243 -51.991  1.00  0.00     0.162 HD
HETATM   32  O   UNL     1     -41.374  56.198 -49.635  1.00  0.00    -0.267 OA
BRANCH  30  33
HETATM   33  C   UNL     1     -40.947  58.985 -50.227  1.00  0.00     0.123 C 
BRANCH  33  34
HETATM   34  C   UNL     1     -41.699  60.315 -50.298  1.00  0.00     0.023 C 
BRANCH  34  35
HETATM   35  C   UNL     1     -43.016  60.271 -51.085  1.00  0.00    -0.021 C 
HETATM   36  C   UNL     1     -42.929  61.050 -52.396  1.00  0.00     0.009 C 
HETATM   37  C   UNL     1     -44.148  60.834 -50.218  1.00  0.00     0.009 C 
ENDBRANCH  34  35
ENDBRANCH  33  34
ENDBRANCH  30  33
ENDBRANCH   1  29
TORSDOF 7
ENDMDL
MODEL 5
REMARK VINA RESULT:      -8.8      2.679      7.121
REMARK  7 active torsions:
REMARK  status: ('A' for Active; 'I' for Inactive)
REMARK    1  A    between atoms: C_2  and  C_3 
REMARK    2  A    between atoms: C_3  and  C_4 
REMARK    3  A    between atoms: C_4  and  N_5 
REMARK       I    between atoms: N_5  and  C_6 
REMARK    4  A    between atoms: C_6  and  C_7 
REMARK    5  A    between atoms: C_8  and  N_9 
REMARK    6  A    between atoms: N_10  and  N_11 
REMARK    7  A    between atoms: C_12  and  C_13 
ROOT
HETATM    1  C   UNL     1     -42.699  59.222 -54.563  1.00  0.00     0.104 C 
HETATM    2  C   UNL     1     -41.491  58.701 -54.111  1.00  0.00     0.123 C 
HETATM    3  N   UNL     1     -41.426  57.379 -54.553  1.00  0.00    -0.202 N 
HETATM    4  C   UNL     1     -42.224  57.287 -55.677  1.00  0.00     0.183 A 
HETATM    5  C   UNL     1     -43.079  58.389 -55.654  1.00  0.00     0.124 A 
HETATM    6  N   UNL     1     -44.090  58.500 -56.554  1.00  0.00    -0.242 NA
HETATM    7  C   UNL     1     -44.142  57.521 -57.473  1.00  0.00     0.086 A 
HETATM    8  C   UNL     1     -43.235  56.427 -57.486  1.00  0.00     0.088 A 
HETATM    9  N   UNL     1     -42.272  56.270 -56.566  1.00  0.00    -0.225 NA
HETATM   10  C   UNL     1     -45.121  57.587 -58.457  1.00  0.00     0.034 A 
HETATM   11  C   UNL     1     -45.222  56.620 -59.458  1.00  0.00     0.002 A 
HETATM   12  C   UNL     1     -44.327  55.560 -59.476  1.00  0.00     0.002 A 
HETATM   13  C   UNL     1     -43.346  55.473 -58.489  1.00  0.00     0.034 A 
ENDROOT
BRANCH   3  14
HETATM   14  N   UNL     1     -40.763  56.330 -53.953  1.00  0.00    -0.176 NA
HETATM   15  C   UNL     1     -41.470  55.764 -53.030  1.00  0.00     0.153 C 
BRANCH  15  16
HETATM   16  C   UNL     1     -40.998  54.615 -52.295  1.00  0.00     0.011 A 
HETATM   17  C   UNL     1     -40.614  53.358 -52.865  1.00  0.00     0.004 A 
HETATM   18  C   UNL     1     -40.102  52.574 -51.833  1.00  0.00     0.043 A 
HETATM   19  C   UNL     1     -40.645  52.821 -54.172  1.00  0.00     0.014 A 
HETATM   20  C   UNL     1     -39.594  51.286 -52.045  1.00  0.00     0.030 A 
HETATM   21  N   UNL     1     -40.205  53.313 -50.676  1.00  0.00    -0.364 N 
HETATM   22  C   UNL     1     -39.634  50.778 -53.348  1.00  0.00     0.002 A 
HETATM   23  C   UNL     1     -40.159  51.529 -54.398  1.00  0.00     0.001 A 
HETATM   24  H   UNL     1     -39.898  52.998 -49.766  1.00  0.00     0.165 HD
HETATM   25  C   UNL     1     -40.763  54.536 -50.939  1.00  0.00     0.102 A 
ENDBRANCH  15  16
ENDBRANCH   3  14
BRANCH   2  26
HETATM   26  N   UNL     1     -40.544  59.234 -53.276  1.00  0.00    -0.286 NA
HETATM   27  H   UNL     1     -39.787  59.760 -53.722  1.00  0.00     0.125 HD
HETATM   28  H   UNL     1     -40.141  58.595 -52.582  1.00  0.00     0.125 HD
ENDBRANCH   2  26
BRANCH   1  29
HETATM   29  C   UNL     1     -43.393  60.369 -53.988  1.00  0.00     0.257 C 
HETATM   30  N   UNL     1     -44.758  60.163 -53.909  1.00  0.00    -0.357 N 
HETATM   31  H   UNL     1     -45.095  59.294 -54.310  1.00  0.00     0.162 HD
HETATM   32  O   UNL     1     -42.857  61.428 -53.690  1.00  0.00    -0.267 OA
BRANCH  30  33
HETATM   33  C   UNL     1     -45.730  61.215 -53.705  1.00  0.00     0.123 C 
BRANCH  33  34
HETATM   34  C   UNL     1     -46.503  60.935 -52.414  1.00  0.00     0.023 C 
BRANCH  34  35
HETATM   35  C   UNL     1     -45.627  60.644 -51.188  1.00  0.00    -0.021 C 
HETATM   36  C   UNL     1     -45.804  59.216 -50.680  1.00  0.00     0.009 C 
HETATM   37  C   UNL     1     -45.964  61.640 -50.072  1.00  0.00     0.009 C 
ENDBRANCH  34  35
ENDBRANCH  33  34
ENDBRANCH  30  33
ENDBRANCH   1  29
TORSDOF 7
ENDMDL
MODEL 6
REMARK VINA RESULT:      -8.4      2.477      7.306
REMARK  7 active torsions:
REMARK  status: ('A' for Active; 'I' for Inactive)
REMARK    1  A    between atoms: C_2  and  C_3 
REMARK    2  A    between atoms: C_3  and  C_4 
REMARK    3  A    between atoms: C_4  and  N_5 
REMARK       I    between atoms: N_5  and  C_6 
REMARK    4  A    between atoms: C_6  and  C_7 
REMARK    5  A    between atoms: C_8  and  N_9 
REMARK    6  A    between atoms: N_10  and  N_11 
REMARK    7  A    between atoms: C_12  and  C_13 
ROOT
HETATM    1  C   UNL     1     -43.002  58.596 -52.229  1.00  0.00     0.104 C 
HETATM    2  C   UNL     1     -42.220  57.668 -51.549  1.00  0.00     0.123 C 
HETATM    3  N   UNL     1     -42.286  56.473 -52.267  1.00  0.00    -0.202 N 
HETATM    4  C   UNL     1     -42.576  56.803 -53.576  1.00  0.00     0.183 A 
HETATM    5  C   UNL     1     -43.100  58.096 -53.559  1.00  0.00     0.124 A 
HETATM    6  N   UNL     1     -43.623  58.647 -54.685  1.00  0.00    -0.242 NA
HETATM    7  C   UNL     1     -43.529  57.884 -55.786  1.00  0.00     0.086 A 
HETATM    8  C   UNL     1     -42.961  56.580 -55.776  1.00  0.00     0.088 A 
HETATM    9  N   UNL     1     -42.499  55.998 -54.659  1.00  0.00    -0.225 NA
HETATM   10  C   UNL     1     -44.000  58.395 -56.989  1.00  0.00     0.034 A 
HETATM   11  C   UNL     1     -43.915  57.670 -58.179  1.00  0.00     0.002 A 
HETATM   12  C   UNL     1     -43.348  56.404 -58.168  1.00  0.00     0.002 A 
HETATM   13  C   UNL     1     -42.880  55.871 -56.967  1.00  0.00     0.034 A 
ENDROOT
BRANCH   3  14
HETATM   14  N   UNL     1     -42.167  55.194 -51.770  1.00  0.00    -0.176 NA
HETATM   15  C   UNL     1     -41.048  54.637 -52.107  1.00  0.00     0.153 C 
BRANCH  15  16
HETATM   16  C   UNL     1     -40.684  53.313 -51.663  1.00  0.00     0.011 A 
HETATM   17  C   UNL     1     -40.359  52.206 -52.511  1.00  0.00     0.004 A 
HETATM   18  C   UNL     1     -39.944  51.161 -51.688  1.00  0.00     0.043 A 
HETATM   19  C   UNL     1     -40.370  52.004 -53.909  1.00  0.00     0.014 A 
HETATM   20  C   UNL     1     -39.513  49.928 -52.195  1.00  0.00     0.030 A 
HETATM   21  N   UNL     1     -40.048  51.604 -50.389  1.00  0.00    -0.364 N 
HETATM   22  C   UNL     1     -39.530  49.754 -53.583  1.00  0.00     0.002 A 
HETATM   23  C   UNL     1     -39.959  50.771 -54.431  1.00  0.00     0.001 A 
HETATM   24  H   UNL     1     -39.800  51.058 -49.575  1.00  0.00     0.165 HD
HETATM   25  C   UNL     1     -40.513  52.892 -50.361  1.00  0.00     0.102 A 
ENDBRANCH  15  16
ENDBRANCH   3  14
BRANCH   2  26
HETATM   26  N   UNL     1     -41.583  57.752 -50.337  1.00  0.00    -0.286 NA
HETATM   27  H   UNL     1     -42.159  57.587 -49.507  1.00  0.00     0.125 HD
HETATM   28  H   UNL     1     -41.011  58.589 -50.184  1.00  0.00     0.125 HD
ENDBRANCH   2  26
BRANCH   1  29
HETATM   29  C   UNL     1     -43.588  59.797 -51.646  1.00  0.00     0.257 C 
HETATM   30  N   UNL     1     -44.306  59.518 -50.496  1.00  0.00    -0.357 N 
HETATM   31  H   UNL     1     -44.383  58.536 -50.254  1.00  0.00     0.162 HD
HETATM   32  O   UNL     1     -43.537  60.911 -52.149  1.00  0.00    -0.267 OA
BRANCH  30  33
HETATM   33  C   UNL     1     -45.261  60.423 -49.893  1.00  0.00     0.123 C 
BRANCH  33  34
HETATM   34  C   UNL     1     -44.573  61.192 -48.764  1.00  0.00     0.023 C 
BRANCH  34  35
HETATM   35  C   UNL     1     -45.165  62.577 -48.471  1.00  0.00    -0.021 C 
HETATM   36  C   UNL     1     -45.129  62.916 -46.983  1.00  0.00     0.009 C 
HETATM   37  C   UNL     1     -46.609  62.633 -48.984  1.00  0.00     0.009 C 
ENDBRANCH  34  35
ENDBRANCH  33  34
ENDBRANCH  30  33
ENDBRANCH   1  29
TORSDOF 7
ENDMDL
MODEL 7
REMARK VINA RESULT:      -8.3      2.525      8.176
REMARK  7 active torsions:
REMARK  status: ('A' for Active; 'I' for Inactive)
REMARK    1  A    between atoms: C_2  and  C_3 
REMARK    2  A    between atoms: C_3  and  C_4 
REMARK    3  A    between atoms: C_4  and  N_5 
REMARK       I    between atoms: N_5  and  C_6 
REMARK    4  A    between atoms: C_6  and  C_7 
REMARK    5  A    between atoms: C_8  and  N_9 
REMARK    6  A    between atoms: N_10  and  N_11 
REMARK    7  A    between atoms: C_12  and  C_13 
ROOT
HETATM    1  C   UNL     1     -44.399  58.587 -54.759  1.00  0.00     0.104 C 
HETATM    2  C   UNL     1     -44.607  57.371 -54.115  1.00  0.00     0.123 C 
HETATM    3  N   UNL     1     -43.961  57.447 -52.880  1.00  0.00    -0.202 N 
HETATM    4  C   UNL     1     -43.888  58.784 -52.543  1.00  0.00     0.183 A 
HETATM    5  C   UNL     1     -44.078  59.508 -53.720  1.00  0.00     0.124 A 
HETATM    6  N   UNL     1     -43.911  60.855 -53.741  1.00  0.00    -0.242 NA
HETATM    7  C   UNL     1     -43.623  61.409 -52.552  1.00  0.00     0.086 A 
HETATM    8  C   UNL     1     -43.465  60.646 -51.363  1.00  0.00     0.088 A 
HETATM    9  N   UNL     1     -43.564  59.308 -51.340  1.00  0.00    -0.225 NA
HETATM   10  C   UNL     1     -43.482  62.789 -52.480  1.00  0.00     0.034 A 
HETATM   11  C   UNL     1     -43.206  63.438 -51.275  1.00  0.00     0.002 A 
HETATM   12  C   UNL     1     -43.066  62.692 -50.115  1.00  0.00     0.002 A 
HETATM   13  C   UNL     1     -43.194  61.305 -50.171  1.00  0.00     0.034 A 
ENDROOT
BRANCH   3  14
HETATM   14  N   UNL     1     -43.422  56.407 -52.155  1.00  0.00    -0.176 NA
HETATM   15  C   UNL     1     -42.282  56.018 -52.626  1.00  0.00     0.153 C 
BRANCH  15  16
HETATM   16  C   UNL     1     -41.509  54.970 -52.001  1.00  0.00     0.011 A 
HETATM   17  C   UNL     1     -40.985  53.812 -52.660  1.00  0.00     0.004 A 
HETATM   18  C   UNL     1     -40.198  53.129 -51.733  1.00  0.00     0.043 A 
HETATM   19  C   UNL     1     -41.098  53.289 -53.967  1.00  0.00     0.014 A 
HETATM   20  C   UNL     1     -39.498  51.960 -52.055  1.00  0.00     0.030 A 
HETATM   21  N   UNL     1     -40.273  53.827 -50.549  1.00  0.00    -0.364 N 
HETATM   22  C   UNL     1     -39.625  51.464 -53.357  1.00  0.00     0.002 A 
HETATM   23  C   UNL     1     -40.419  52.111 -54.300  1.00  0.00     0.001 A 
HETATM   24  H   UNL     1     -39.789  53.568 -49.700  1.00  0.00     0.165 HD
HETATM   25  C   UNL     1     -41.077  54.926 -50.693  1.00  0.00     0.102 A 
ENDBRANCH  15  16
ENDBRANCH   3  14
BRANCH   2  26
HETATM   26  N   UNL     1     -45.189  56.212 -54.560  1.00  0.00    -0.286 NA
HETATM   27  H   UNL     1     -45.538  56.217 -55.522  1.00  0.00     0.125 HD
HETATM   28  H   UNL     1     -45.902  55.800 -53.949  1.00  0.00     0.125 HD
ENDBRANCH   2  26
BRANCH   1  29
HETATM   29  C   UNL     1     -44.483  58.807 -56.198  1.00  0.00     0.257 C 
HETATM   30  N   UNL     1     -45.377  57.942 -56.804  1.00  0.00    -0.357 N 
HETATM   31  H   UNL     1     -45.795  57.245 -56.196  1.00  0.00     0.162 HD
HETATM   32  O   UNL     1     -43.787  59.596 -56.823  1.00  0.00    -0.267 OA
BRANCH  30  33
HETATM   33  C   UNL     1     -45.429  57.690 -58.227  1.00  0.00     0.123 C 
BRANCH  33  34
HETATM   34  C   UNL     1     -44.223  56.836 -58.625  1.00  0.00     0.023 C 
BRANCH  34  35
HETATM   35  C   UNL     1     -43.626  57.163 -60.001  1.00  0.00    -0.021 C 
HETATM   36  C   UNL     1     -42.117  56.935 -60.042  1.00  0.00     0.009 C 
HETATM   37  C   UNL     1     -43.944  58.618 -60.362  1.00  0.00     0.009 C 
ENDBRANCH  34  35
ENDBRANCH  33  34
ENDBRANCH  30  33
ENDBRANCH   1  29
TORSDOF 7
ENDMDL
MODEL 8
REMARK VINA RESULT:      -8.3      2.732      7.298
REMARK  7 active torsions:
REMARK  status: ('A' for Active; 'I' for Inactive)
REMARK    1  A    between atoms: C_2  and  C_3 
REMARK    2  A    between atoms: C_3  and  C_4 
REMARK    3  A    between atoms: C_4  and  N_5 
REMARK       I    between atoms: N_5  and  C_6 
REMARK    4  A    between atoms: C_6  and  C_7 
REMARK    5  A    between atoms: C_8  and  N_9 
REMARK    6  A    between atoms: N_10  and  N_11 
REMARK    7  A    between atoms: C_12  and  C_13 
ROOT
HETATM    1  C   UNL     1     -42.175  58.022 -55.599  1.00  0.00     0.104 C 
HETATM    2  C   UNL     1     -41.942  59.067 -54.712  1.00  0.00     0.123 C 
HETATM    3  N   UNL     1     -41.927  58.517 -53.429  1.00  0.00    -0.202 N 
HETATM    4  C   UNL     1     -41.574  57.189 -53.561  1.00  0.00     0.183 A 
HETATM    5  C   UNL     1     -41.801  56.843 -54.894  1.00  0.00     0.124 A 
HETATM    6  N   UNL     1     -41.689  55.553 -55.304  1.00  0.00    -0.242 NA
HETATM    7  C   UNL     1     -41.289  54.689 -54.356  1.00  0.00     0.086 A 
HETATM    8  C   UNL     1     -41.037  55.080 -53.012  1.00  0.00     0.088 A 
HETATM    9  N   UNL     1     -41.205  56.337 -52.578  1.00  0.00    -0.225 NA
HETATM   10  C   UNL     1     -41.107  53.357 -54.707  1.00  0.00     0.034 A 
HETATM   11  C   UNL     1     -40.670  52.407 -53.783  1.00  0.00     0.002 A 
HETATM   12  C   UNL     1     -40.412  52.794 -52.476  1.00  0.00     0.002 A 
HETATM   13  C   UNL     1     -40.601  54.124 -52.104  1.00  0.00     0.034 A 
ENDROOT
BRANCH   3  14
HETATM   14  N   UNL     1     -42.272  59.141 -52.250  1.00  0.00    -0.176 NA
HETATM   15  C   UNL     1     -43.549  59.311 -52.137  1.00  0.00     0.153 C 
BRANCH  15  16
HETATM   16  C   UNL     1     -44.146  59.903 -50.964  1.00  0.00     0.011 A 
HETATM   17  C   UNL     1     -43.872  61.214 -50.458  1.00  0.00     0.004 A 
HETATM   18  C   UNL     1     -44.747  61.439 -49.395  1.00  0.00     0.043 A 
HETATM   19  C   UNL     1     -42.966  62.237 -50.817  1.00  0.00     0.014 A 
HETATM   20  C   UNL     1     -44.778  62.647 -48.688  1.00  0.00     0.030 A 
HETATM   21  N   UNL     1     -45.496  60.294 -49.240  1.00  0.00    -0.364 N 
HETATM   22  C   UNL     1     -43.872  63.645 -49.064  1.00  0.00     0.002 A 
HETATM   23  C   UNL     1     -42.973  63.444 -50.108  1.00  0.00     0.001 A 
HETATM   24  H   UNL     1     -46.223  60.175 -48.548  1.00  0.00     0.165 HD
HETATM   25  C   UNL     1     -45.128  59.355 -50.166  1.00  0.00     0.102 A 
ENDBRANCH  15  16
ENDBRANCH   3  14
BRANCH   2  26
HETATM   26  N   UNL     1     -41.868  60.419 -54.922  1.00  0.00    -0.286 NA
HETATM   27  H   UNL     1     -40.942  60.796 -55.142  1.00  0.00     0.125 HD
HETATM   28  H   UNL     1     -42.309  61.013 -54.211  1.00  0.00     0.125 HD
ENDBRANCH   2  26
BRANCH   1  29
HETATM   29  C   UNL     1     -42.713  58.162 -56.948  1.00  0.00     0.257 C 
HETATM   30  N   UNL     1     -42.235  57.184 -57.802  1.00  0.00    -0.357 N 
HETATM   31  H   UNL     1     -41.542  56.557 -57.407  1.00  0.00     0.162 HD
HETATM   32  O   UNL     1     -43.430  59.082 -57.318  1.00  0.00    -0.267 OA
BRANCH  30  33
HETATM   33  C   UNL     1     -42.314  57.254 -59.245  1.00  0.00     0.123 C 
BRANCH  33  34
HETATM   34  C   UNL     1     -42.884  55.937 -59.775  1.00  0.00     0.023 C 
BRANCH  34  35
HETATM   35  C   UNL     1     -44.243  56.058 -60.479  1.00  0.00    -0.021 C 
HETATM   36  C   UNL     1     -45.142  57.098 -59.816  1.00  0.00     0.009 C 
HETATM   37  C   UNL     1     -44.939  54.693 -60.483  1.00  0.00     0.009 C 
ENDBRANCH  34  35
ENDBRANCH  33  34
ENDBRANCH  30  33
ENDBRANCH   1  29
TORSDOF 7
ENDMDL
MODEL 9
REMARK VINA RESULT:      -8.3      2.133      7.150
REMARK  7 active torsions:
REMARK  status: ('A' for Active; 'I' for Inactive)
REMARK    1  A    between atoms: C_2  and  C_3 
REMARK    2  A    between atoms: C_3  and  C_4 
REMARK    3  A    between atoms: C_4  and  N_5 
REMARK       I    between atoms: N_5  and  C_6 
REMARK    4  A    between atoms: C_6  and  C_7 
REMARK    5  A    between atoms: C_8  and  N_9 
REMARK    6  A    between atoms: N_10  and  N_11 
REMARK    7  A    between atoms: C_12  and  C_13 
ROOT
HETATM    1  C   UNL     1     -44.126  57.379 -52.831  1.00  0.00     0.104 C 
HETATM    2  C   UNL     1     -43.147  56.481 -52.418  1.00  0.00     0.123 C 
HETATM    3  N   UNL     1     -42.893  55.631 -53.495  1.00  0.00    -0.202 N 
HETATM    4  C   UNL     1     -43.231  56.319 -54.643  1.00  0.00     0.183 A 
HETATM    5  C   UNL     1     -44.067  57.366 -54.254  1.00  0.00     0.124 A 
HETATM    6  N   UNL     1     -44.690  58.138 -55.182  1.00  0.00    -0.242 NA
HETATM    7  C   UNL     1     -44.383  57.850 -56.457  1.00  0.00     0.086 A 
HETATM    8  C   UNL     1     -43.503  56.794 -56.820  1.00  0.00     0.088 A 
HETATM    9  N   UNL     1     -42.930  55.983 -55.918  1.00  0.00    -0.225 NA
HETATM   10  C   UNL     1     -44.944  58.625 -57.465  1.00  0.00     0.034 A 
HETATM   11  C   UNL     1     -44.654  58.401 -58.812  1.00  0.00     0.002 A 
HETATM   12  C   UNL     1     -43.784  57.379 -59.162  1.00  0.00     0.002 A 
HETATM   13  C   UNL     1     -43.220  56.585 -58.163  1.00  0.00     0.034 A 
ENDROOT
BRANCH   3  14
HETATM   14  N   UNL     1     -42.462  54.323 -53.443  1.00  0.00    -0.176 NA
HETATM   15  C   UNL     1     -41.176  54.224 -53.546  1.00  0.00     0.153 C 
BRANCH  15  16
HETATM   16  C   UNL     1     -40.494  52.954 -53.472  1.00  0.00     0.011 A 
HETATM   17  C   UNL     1     -40.321  52.165 -52.290  1.00  0.00     0.004 A 
HETATM   18  C   UNL     1     -39.727  50.964 -52.676  1.00  0.00     0.043 A 
HETATM   19  C   UNL     1     -40.628  52.361 -50.925  1.00  0.00     0.014 A 
HETATM   20  C   UNL     1     -39.447  49.936 -51.767  1.00  0.00     0.030 A 
HETATM   21  N   UNL     1     -39.515  51.037 -54.034  1.00  0.00    -0.364 N 
HETATM   22  C   UNL     1     -39.763  50.153 -50.421  1.00  0.00     0.002 A 
HETATM   23  C   UNL     1     -40.338  51.350 -50.001  1.00  0.00     0.001 A 
HETATM   24  H   UNL     1     -39.107  50.299 -54.590  1.00  0.00     0.165 HD
HETATM   25  C   UNL     1     -39.954  52.240 -54.521  1.00  0.00     0.102 A 
ENDBRANCH  15  16
ENDBRANCH   3  14
BRANCH   2  26
HETATM   26  N   UNL     1     -42.578  56.282 -51.187  1.00  0.00    -0.286 NA
HETATM   27  H   UNL     1     -42.323  55.319 -50.952  1.00  0.00     0.125 HD
HETATM   28  H   UNL     1     -43.067  56.701 -50.389  1.00  0.00     0.125 HD
ENDBRANCH   2  26
BRANCH   1  29
HETATM   29  C   UNL     1     -45.010  58.131 -51.947  1.00  0.00     0.257 C 
HETATM   30  N   UNL     1     -45.371  59.351 -52.490  1.00  0.00    -0.357 N 
HETATM   31  H   UNL     1     -44.933  59.585 -53.375  1.00  0.00     0.162 HD
HETATM   32  O   UNL     1     -45.332  57.777 -50.821  1.00  0.00    -0.267 OA
BRANCH  30  33
HETATM   33  C   UNL     1     -45.948  60.440 -51.732  1.00  0.00     0.123 C 
BRANCH  33  34
HETATM   34  C   UNL     1     -44.893  61.533 -51.550  1.00  0.00     0.023 C 
BRANCH  34  35
HETATM   35  C   UNL     1     -44.222  61.559 -50.170  1.00  0.00    -0.021 C 
HETATM   36  C   UNL     1     -42.893  60.807 -50.163  1.00  0.00     0.009 C 
HETATM   37  C   UNL     1     -45.170  60.952 -49.130  1.00  0.00     0.009 C 
ENDBRANCH  34  35
ENDBRANCH  33  34
ENDBRANCH  30  33
ENDBRANCH   1  29
TORSDOF 7
ENDMDL
MODEL 10
REMARK VINA RESULT:      -8.2      2.435      8.022
REMARK  7 active torsions:
REMARK  status: ('A' for Active; 'I' for Inactive)
REMARK    1  A    between atoms: C_2  and  C_3 
REMARK    2  A    between atoms: C_3  and  C_4 
REMARK    3  A    between atoms: C_4  and  N_5 
REMARK       I    between atoms: N_5  and  C_6 
REMARK    4  A    between atoms: C_6  and  C_7 
REMARK    5  A    between atoms: C_8  and  N_9 
REMARK    6  A    between atoms: N_10  and  N_11 
REMARK    7  A    between atoms: C_12  and  C_13 
ROOT
HETATM    1  C   UNL     1     -42.277  58.111 -56.155  1.00  0.00     0.104 C 
HETATM    2  C   UNL     1     -42.107  56.787 -55.763  1.00  0.00     0.123 C 
HETATM    3  N   UNL     1     -41.659  56.806 -54.442  1.00  0.00    -0.202 N 
HETATM    4  C   UNL     1     -42.098  57.990 -53.883  1.00  0.00     0.183 A 
HETATM    5  C   UNL     1     -42.410  58.844 -54.941  1.00  0.00     0.124 A 
HETATM    6  N   UNL     1     -42.729  60.144 -54.712  1.00  0.00    -0.242 NA
HETATM    7  C   UNL     1     -42.779  60.497 -53.417  1.00  0.00     0.086 A 
HETATM    8  C   UNL     1     -42.483  59.593 -52.360  1.00  0.00     0.088 A 
HETATM    9  N   UNL     1     -42.105  58.324 -52.573  1.00  0.00    -0.225 NA
HETATM   10  C   UNL     1     -43.143  61.799 -53.098  1.00  0.00     0.034 A 
HETATM   11  C   UNL     1     -43.239  62.232 -51.774  1.00  0.00     0.002 A 
HETATM   12  C   UNL     1     -42.964  61.344 -50.745  1.00  0.00     0.002 A 
HETATM   13  C   UNL     1     -42.586  60.036 -51.047  1.00  0.00     0.034 A 
ENDROOT
BRANCH   3  14
HETATM   14  N   UNL     1     -40.864  55.871 -53.816  1.00  0.00    -0.176 NA
HETATM   15  C   UNL     1     -41.542  55.089 -53.039  1.00  0.00     0.153 C 
BRANCH  15  16
HETATM   16  C   UNL     1     -40.926  54.003 -52.314  1.00  0.00     0.011 A 
HETATM   17  C   UNL     1     -40.565  52.731 -52.862  1.00  0.00     0.004 A 
HETATM   18  C   UNL     1     -39.887  52.029 -51.866  1.00  0.00     0.043 A 
HETATM   19  C   UNL     1     -40.744  52.116 -54.121  1.00  0.00     0.014 A 
HETATM   20  C   UNL     1     -39.355  50.750 -52.075  1.00  0.00     0.030 A 
HETATM   21  N   UNL     1     -39.869  52.830 -50.747  1.00  0.00    -0.364 N 
HETATM   22  C   UNL     1     -39.543  50.165 -53.332  1.00  0.00     0.002 A 
HETATM   23  C   UNL     1     -40.234  50.832 -54.340  1.00  0.00     0.001 A 
HETATM   24  H   UNL     1     -39.431  52.582 -49.871  1.00  0.00     0.165 HD
HETATM   25  C   UNL     1     -40.511  54.014 -50.999  1.00  0.00     0.102 A 
ENDBRANCH  15  16
ENDBRANCH   3  14
BRANCH   2  26
HETATM   26  N   UNL     1     -42.193  55.623 -56.483  1.00  0.00    -0.286 NA
HETATM   27  H   UNL     1     -41.699  55.605 -57.380  1.00  0.00     0.125 HD
HETATM   28  H   UNL     1     -43.135  55.240 -56.614  1.00  0.00     0.125 HD
ENDBRANCH   2  26
BRANCH   1  29
HETATM   29  C   UNL     1     -42.286  58.590 -57.532  1.00  0.00     0.257 C 
HETATM   30  N   UNL     1     -41.739  59.856 -57.645  1.00  0.00    -0.357 N 
HETATM   31  H   UNL     1     -41.473  60.298 -56.771  1.00  0.00     0.162 HD
HETATM   32  O   UNL     1     -42.794  57.994 -58.473  1.00  0.00    -0.267 OA
BRANCH  30  33
HETATM   33  C   UNL     1     -41.910  60.717 -58.794  1.00  0.00     0.123 C 
BRANCH  33  34
HETATM   34  C   UNL     1     -40.744  61.707 -58.852  1.00  0.00     0.023 C 
BRANCH  34  35
HETATM   35  C   UNL     1     -41.152  63.175 -59.041  1.00  0.00    -0.021 C 
HETATM   36  C   UNL     1     -40.120  64.138 -58.459  1.00  0.00     0.009 C 
HETATM   37  C   UNL     1     -42.517  63.414 -58.386  1.00  0.00     0.009 C 
ENDBRANCH  34  35
ENDBRANCH  33  34
ENDBRANCH  30  33
ENDBRANCH   1  29
TORSDOF 7
ENDMDL
