MODEL 1
REMARK VINA RESULT:      -8.9      0.000      0.000
REMARK  8 active torsions:
REMARK  status: ('A' for Active; 'I' for Inactive)
REMARK    1  A    between atoms: C_4  and  O_5 
REMARK    2  A    between atoms: O_5  and  C_6 
REMARK    3  A    between atoms: C_8  and  C_9 
REMARK    4  A    between atoms: C_9  and  N_10 
REMARK    5  A    between atoms: C_9  and  C_14 
REMARK       I    between atoms: N_10  and  C_11 
REMARK       I    between atoms: C_11  and  N_12 
REMARK    6  A    between atoms: C_14  and  C_15 
REMARK       I    between atoms: C_15  and  N_16 
REMARK    7  A    between atoms: N_16  and  N_17 
REMARK       I    between atoms: N_17  and  C_18 
REMARK    8  A    between atoms: C_18  and  C_19 
ROOT
HETATM    1  C   UNL     1     -41.979  57.946 -51.893  1.00  0.00     0.127 C 
ENDROOT
BRANCH   1   2
HETATM    2  C   UNL     1     -42.102  56.457 -51.584  1.00  0.00    -0.032 A 
HETATM    3  C   UNL     1     -41.002  55.591 -51.728  1.00  0.00     0.046 A 
HETATM    4  C   UNL     1     -41.090  54.239 -51.384  1.00  0.00     0.076 A 
HETATM    5  C   UNL     1     -42.267  53.728 -50.842  1.00  0.00     0.037 A 
HETATM    6  C   UNL     1     -43.362  54.570 -50.673  1.00  0.00     0.003 A 
HETATM    7  C   UNL     1     -43.277  55.921 -51.029  1.00  0.00     0.009 A 
BRANCH   4   8
HETATM    8  O   UNL     1     -39.940  53.494 -51.518  1.00  0.00    -0.311 OA
BRANCH   8   9
HETATM    9  C   UNL     1     -39.987  52.365 -52.305  1.00  0.00     0.076 A 
HETATM   10  C   UNL     1     -40.327  52.389 -53.659  1.00  0.00     0.037 A 
HETATM   11  C   UNL     1     -40.310  51.206 -54.399  1.00  0.00     0.003 A 
HETATM   12  C   UNL     1     -39.934  50.006 -53.792  1.00  0.00     0.000 A 
HETATM   13  C   UNL     1     -39.567  49.989 -52.447  1.00  0.00     0.003 A 
HETATM   14  C   UNL     1     -39.587  51.170 -51.705  1.00  0.00     0.037 A 
ENDBRANCH   8   9
ENDBRANCH   4   8
ENDBRANCH   1   2
BRANCH   1  15
HETATM   15  N   UNL     1     -40.604  58.452 -52.009  1.00  0.00    -0.339 N 
HETATM   16  C   UNL     1     -39.975  59.191 -51.066  1.00  0.00     0.292 C 
HETATM   17  N   UNL     1     -38.718  59.541 -51.424  1.00  0.00    -0.254 NA
HETATM   18  O   UNL     1     -40.448  59.520 -49.992  1.00  0.00    -0.254 OA
HETATM   19  H   UNL     1     -38.174  58.838 -51.901  1.00  0.00     0.128 HD
HETATM   20  H   UNL     1     -38.219  60.002 -50.670  1.00  0.00     0.128 HD
HETATM   21  H   UNL     1     -40.262  58.601 -52.947  1.00  0.00     0.164 HD
ENDBRANCH   1  15
BRANCH   1  22
HETATM   22  C   UNL     1     -42.931  58.581 -52.922  1.00  0.00     0.134 C 
BRANCH  22  23
HETATM   23  C   UNL     1     -43.590  57.725 -53.987  1.00  0.00     0.238 C 
HETATM   24  N   UNL     1     -42.843  57.447 -55.099  1.00  0.00    -0.267 N 
HETATM   25  H   UNL     1     -41.818  57.483 -55.108  1.00  0.00     0.190 HD
HETATM   26  O   UNL     1     -44.779  57.407 -53.892  1.00  0.00    -0.272 OA
BRANCH  24  27
HETATM   27  N   UNL     1     -43.439  56.781 -56.170  1.00  0.00    -0.262 N 
HETATM   28  C   UNL     1     -43.094  57.148 -57.455  1.00  0.00     0.288 C 
HETATM   29  O   UNL     1     -42.185  57.925 -57.735  1.00  0.00    -0.264 OA
HETATM   30  H   UNL     1     -44.295  56.252 -55.994  1.00  0.00     0.190 HD
BRANCH  28  31
HETATM   31  C   UNL     1     -43.936  56.530 -58.521  1.00  0.00     0.125 A 
HETATM   32  N   UNL     1     -44.987  57.267 -58.978  1.00  0.00    -0.255 NA
HETATM   33  C   UNL     1     -45.732  56.705 -59.953  1.00  0.00     0.117 A 
HETATM   34  C   UNL     1     -45.488  55.448 -60.488  1.00  0.00     0.019 A 
HETATM   35  C   UNL     1     -44.410  54.717 -59.999  1.00  0.00     0.004 A 
HETATM   36  C   UNL     1     -43.614  55.264 -58.999  1.00  0.00     0.037 A 
ENDBRANCH  28  31
ENDBRANCH  24  27
ENDBRANCH  22  23
ENDBRANCH   1  22
TORSDOF 8
ENDMDL
MODEL 2
REMARK VINA RESULT:      -8.7      1.846      2.064
REMARK  8 active torsions:
REMARK  status: ('A' for Active; 'I' for Inactive)
REMARK    1  A    between atoms: C_4  and  O_5 
REMARK    2  A    between atoms: O_5  and  C_6 
REMARK    3  A    between atoms: C_8  and  C_9 
REMARK    4  A    between atoms: C_9  and  N_10 
REMARK    5  A    between atoms: C_9  and  C_14 
REMARK       I    between atoms: N_10  and  C_11 
REMARK       I    between atoms: C_11  and  N_12 
REMARK    6  A    between atoms: C_14  and  C_15 
REMARK       I    between atoms: C_15  and  N_16 
REMARK    7  A    between atoms: N_16  and  N_17 
REMARK       I    between atoms: N_17  and  C_18 
REMARK    8  A    between atoms: C_18  and  C_19 
ROOT
HETATM    1  C   UNL     1     -42.253  56.275 -52.279  1.00  0.00     0.127 C 
ENDROOT
BRANCH   1   2
HETATM    2  C   UNL     1     -41.598  55.366 -51.245  1.00  0.00    -0.032 A 
HETATM    3  C   UNL     1     -40.678  54.371 -51.628  1.00  0.00     0.046 A 
HETATM    4  C   UNL     1     -40.025  53.579 -50.679  1.00  0.00     0.076 A 
HETATM    5  C   UNL     1     -40.238  53.792 -49.320  1.00  0.00     0.037 A 
HETATM    6  C   UNL     1     -41.128  54.784 -48.916  1.00  0.00     0.003 A 
HETATM    7  C   UNL     1     -41.792  55.568 -49.867  1.00  0.00     0.009 A 
BRANCH   4   8
HETATM    8  O   UNL     1     -39.109  52.671 -51.161  1.00  0.00    -0.311 OA
BRANCH   8   9
HETATM    9  C   UNL     1     -39.513  51.808 -52.155  1.00  0.00     0.076 A 
HETATM   10  C   UNL     1     -39.921  52.234 -53.421  1.00  0.00     0.037 A 
HETATM   11  C   UNL     1     -40.275  51.293 -54.389  1.00  0.00     0.003 A 
HETATM   12  C   UNL     1     -40.203  49.930 -54.098  1.00  0.00     0.000 A 
HETATM   13  C   UNL     1     -39.769  49.505 -52.843  1.00  0.00     0.003 A 
HETATM   14  C   UNL     1     -39.418  50.444 -51.873  1.00  0.00     0.037 A 
ENDBRANCH   8   9
ENDBRANCH   4   8
ENDBRANCH   1   2
BRANCH   1  15
HETATM   15  N   UNL     1     -42.538  57.642 -51.822  1.00  0.00    -0.339 N 
HETATM   16  C   UNL     1     -43.780  58.148 -51.636  1.00  0.00     0.292 C 
HETATM   17  N   UNL     1     -43.768  59.436 -51.223  1.00  0.00    -0.254 NA
HETATM   18  O   UNL     1     -44.823  57.540 -51.800  1.00  0.00    -0.254 OA
HETATM   19  H   UNL     1     -43.060  59.686 -50.549  1.00  0.00     0.128 HD
HETATM   20  H   UNL     1     -44.695  59.771 -50.985  1.00  0.00     0.128 HD
HETATM   21  H   UNL     1     -41.836  58.338 -52.030  1.00  0.00     0.164 HD
ENDBRANCH   1  15
BRANCH   1  22
HETATM   22  C   UNL     1     -41.763  56.230 -53.738  1.00  0.00     0.134 C 
BRANCH  22  23
HETATM   23  C   UNL     1     -42.721  55.868 -54.857  1.00  0.00     0.238 C 
HETATM   24  N   UNL     1     -42.166  55.627 -56.084  1.00  0.00    -0.267 N 
HETATM   25  H   UNL     1     -41.186  55.353 -56.211  1.00  0.00     0.190 HD
HETATM   26  O   UNL     1     -43.942  55.912 -54.680  1.00  0.00    -0.272 OA
BRANCH  24  27
HETATM   27  N   UNL     1     -43.003  55.425 -57.181  1.00  0.00    -0.262 N 
HETATM   28  C   UNL     1     -43.143  56.440 -58.107  1.00  0.00     0.288 C 
HETATM   29  O   UNL     1     -42.469  57.466 -58.119  1.00  0.00    -0.264 OA
HETATM   30  H   UNL     1     -43.690  54.670 -57.133  1.00  0.00     0.190 HD
BRANCH  28  31
HETATM   31  C   UNL     1     -44.215  56.209 -59.120  1.00  0.00     0.125 A 
HETATM   32  N   UNL     1     -45.284  57.052 -59.085  1.00  0.00    -0.255 NA
HETATM   33  C   UNL     1     -46.239  56.845 -60.016  1.00  0.00     0.117 A 
HETATM   34  C   UNL     1     -46.186  55.839 -60.970  1.00  0.00     0.019 A 
HETATM   35  C   UNL     1     -45.083  54.989 -60.978  1.00  0.00     0.004 A 
HETATM   36  C   UNL     1     -44.075  55.175 -60.040  1.00  0.00     0.037 A 
ENDBRANCH  28  31
ENDBRANCH  24  27
ENDBRANCH  22  23
ENDBRANCH   1  22
TORSDOF 8
ENDMDL
MODEL 3
REMARK VINA RESULT:      -8.5      1.798      2.212
REMARK  8 active torsions:
REMARK  status: ('A' for Active; 'I' for Inactive)
REMARK    1  A    between atoms: C_4  and  O_5 
REMARK    2  A    between atoms: O_5  and  C_6 
REMARK    3  A    between atoms: C_8  and  C_9 
REMARK    4  A    between atoms: C_9  and  N_10 
REMARK    5  A    between atoms: C_9  and  C_14 
REMARK       I    between atoms: N_10  and  C_11 
REMARK       I    between atoms: C_11  and  N_12 
REMARK    6  A    between atoms: C_14  and  C_15 
REMARK       I    between atoms: C_15  and  N_16 
REMARK    7  A    between atoms: N_16  and  N_17 
REMARK       I    between atoms: N_17  and  C_18 
REMARK    8  A    between atoms: C_18  and  C_19 
ROOT
HETATM    1  C   UNL     1     -41.856  57.979 -51.608  1.00  0.00     0.127 C 
ENDROOT
BRANCH   1   2
HETATM    2  C   UNL     1     -42.075  56.487 -51.841  1.00  0.00    -0.032 A 
HETATM    3  C   UNL     1     -41.170  55.729 -52.608  1.00  0.00     0.046 A 
HETATM    4  C   UNL     1     -41.330  54.350 -52.769  1.00  0.00     0.076 A 
HETATM    5  C   UNL     1     -42.373  53.684 -52.129  1.00  0.00     0.037 A 
HETATM    6  C   UNL     1     -43.269  54.410 -51.350  1.00  0.00     0.003 A 
HETATM    7  C   UNL     1     -43.116  55.793 -51.199  1.00  0.00     0.009 A 
BRANCH   4   8
HETATM    8  O   UNL     1     -40.360  53.699 -53.498  1.00  0.00    -0.311 OA
BRANCH   8   9
HETATM    9  C   UNL     1     -40.164  52.357 -53.263  1.00  0.00     0.076 A 
HETATM   10  C   UNL     1     -40.305  51.378 -54.249  1.00  0.00     0.037 A 
HETATM   11  C   UNL     1     -40.046  50.041 -53.941  1.00  0.00     0.003 A 
HETATM   12  C   UNL     1     -39.628  49.687 -52.657  1.00  0.00     0.000 A 
HETATM   13  C   UNL     1     -39.461  50.670 -51.681  1.00  0.00     0.003 A 
HETATM   14  C   UNL     1     -39.723  52.006 -51.986  1.00  0.00     0.037 A 
ENDBRANCH   8   9
ENDBRANCH   4   8
ENDBRANCH   1   2
BRANCH   1  15
HETATM   15  N   UNL     1     -40.461  58.430 -51.701  1.00  0.00    -0.339 N 
HETATM   16  C   UNL     1     -39.879  59.308 -50.851  1.00  0.00     0.292 C 
HETATM   17  N   UNL     1     -38.588  59.567 -51.163  1.00  0.00    -0.254 NA
HETATM   18  O   UNL     1     -40.419  59.826 -49.889  1.00  0.00    -0.254 OA
HETATM   19  H   UNL     1     -38.034  58.782 -51.469  1.00  0.00     0.128 HD
HETATM   20  H   UNL     1     -38.132  60.140 -50.461  1.00  0.00     0.128 HD
HETATM   21  H   UNL     1     -40.045  58.409 -52.621  1.00  0.00     0.164 HD
ENDBRANCH   1  15
BRANCH   1  22
HETATM   22  C   UNL     1     -42.845  58.988 -52.220  1.00  0.00     0.134 C 
BRANCH  22  23
HETATM   23  C   UNL     1     -42.775  59.331 -53.696  1.00  0.00     0.238 C 
HETATM   24  N   UNL     1     -43.549  58.578 -54.537  1.00  0.00    -0.267 N 
HETATM   25  H   UNL     1     -44.380  58.064 -54.223  1.00  0.00     0.190 HD
HETATM   26  O   UNL     1     -41.966  60.166 -54.111  1.00  0.00    -0.272 OA
BRANCH  24  27
HETATM   27  N   UNL     1     -43.425  58.754 -55.915  1.00  0.00    -0.262 N 
HETATM   28  C   UNL     1     -42.641  57.870 -56.630  1.00  0.00     0.288 C 
HETATM   29  O   UNL     1     -42.156  56.841 -56.166  1.00  0.00    -0.264 OA
HETATM   30  H   UNL     1     -43.674  59.662 -56.311  1.00  0.00     0.190 HD
BRANCH  28  31
HETATM   31  C   UNL     1     -42.403  58.264 -58.049  1.00  0.00     0.125 A 
HETATM   32  N   UNL     1     -42.485  57.275 -58.983  1.00  0.00    -0.255 NA
HETATM   33  C   UNL     1     -42.284  57.645 -60.265  1.00  0.00     0.117 A 
HETATM   34  C   UNL     1     -41.998  58.944 -60.661  1.00  0.00     0.019 A 
HETATM   35  C   UNL     1     -41.915  59.932 -59.684  1.00  0.00     0.004 A 
HETATM   36  C   UNL     1     -42.123  59.592 -58.352  1.00  0.00     0.037 A 
ENDBRANCH  28  31
ENDBRANCH  24  27
ENDBRANCH  22  23
ENDBRANCH   1  22
TORSDOF 8
ENDMDL
MODEL 4
REMARK VINA RESULT:      -8.5      4.125      7.232
REMARK  8 active torsions:
REMARK  status: ('A' for Active; 'I' for Inactive)
REMARK    1  A    between atoms: C_4  and  O_5 
REMARK    2  A    between atoms: O_5  and  C_6 
REMARK    3  A    between atoms: C_8  and  C_9 
REMARK    4  A    between atoms: C_9  and  N_10 
REMARK    5  A    between atoms: C_9  and  C_14 
REMARK       I    between atoms: N_10  and  C_11 
REMARK       I    between atoms: C_11  and  N_12 
REMARK    6  A    between atoms: C_14  and  C_15 
REMARK       I    between atoms: C_15  and  N_16 
REMARK    7  A    between atoms: N_16  and  N_17 
REMARK       I    between atoms: N_17  and  C_18 
REMARK    8  A    between atoms: C_18  and  C_19 
ROOT
HETATM    1  C   UNL     1     -41.768  58.025 -51.645  1.00  0.00     0.127 C 
ENDROOT
BRANCH   1   2
HETATM    2  C   UNL     1     -42.044  56.548 -51.904  1.00  0.00    -0.032 A 
HETATM    3  C   UNL     1     -41.185  55.776 -52.709  1.00  0.00     0.046 A 
HETATM    4  C   UNL     1     -41.397  54.407 -52.897  1.00  0.00     0.076 A 
HETATM    5  C   UNL     1     -42.447  53.764 -52.246  1.00  0.00     0.037 A 
HETATM    6  C   UNL     1     -43.298  54.503 -51.430  1.00  0.00     0.003 A 
HETATM    7  C   UNL     1     -43.093  55.876 -51.252  1.00  0.00     0.009 A 
BRANCH   4   8
HETATM    8  O   UNL     1     -40.468  53.740 -53.663  1.00  0.00    -0.311 OA
BRANCH   8   9
HETATM    9  C   UNL     1     -40.233  52.412 -53.387  1.00  0.00     0.076 A 
HETATM   10  C   UNL     1     -40.390  51.395 -54.330  1.00  0.00     0.037 A 
HETATM   11  C   UNL     1     -40.091  50.076 -53.984  1.00  0.00     0.003 A 
HETATM   12  C   UNL     1     -39.616  49.779 -52.704  1.00  0.00     0.000 A 
HETATM   13  C   UNL     1     -39.434  50.800 -51.772  1.00  0.00     0.003 A 
HETATM   14  C   UNL     1     -39.736  52.118 -52.116  1.00  0.00     0.037 A 
ENDBRANCH   8   9
ENDBRANCH   4   8
ENDBRANCH   1   2
BRANCH   1  15
HETATM   15  N   UNL     1     -40.361  58.432 -51.770  1.00  0.00    -0.339 N 
HETATM   16  C   UNL     1     -39.741  59.316 -50.955  1.00  0.00     0.292 C 
HETATM   17  N   UNL     1     -38.448  59.527 -51.292  1.00  0.00    -0.254 NA
HETATM   18  O   UNL     1     -40.251  59.878 -50.002  1.00  0.00    -0.254 OA
HETATM   19  H   UNL     1     -37.921  58.717 -51.583  1.00  0.00     0.128 HD
HETATM   20  H   UNL     1     -37.964  60.107 -50.615  1.00  0.00     0.128 HD
HETATM   21  H   UNL     1     -39.959  58.371 -52.695  1.00  0.00     0.164 HD
ENDBRANCH   1  15
BRANCH   1  22
HETATM   22  C   UNL     1     -42.739  59.081 -52.203  1.00  0.00     0.134 C 
BRANCH  22  23
HETATM   23  C   UNL     1     -43.753  59.746 -51.292  1.00  0.00     0.238 C 
HETATM   24  N   UNL     1     -43.273  60.276 -50.125  1.00  0.00    -0.267 N 
HETATM   25  H   UNL     1     -42.292  60.546 -49.994  1.00  0.00     0.190 HD
HETATM   26  O   UNL     1     -44.959  59.695 -51.548  1.00  0.00    -0.272 OA
BRANCH  24  27
HETATM   27  N   UNL     1     -44.174  60.778 -49.185  1.00  0.00    -0.262 N 
HETATM   28  C   UNL     1     -44.229  62.142 -48.980  1.00  0.00     0.288 C 
HETATM   29  O   UNL     1     -43.645  62.973 -49.673  1.00  0.00    -0.264 OA
HETATM   30  H   UNL     1     -44.556  60.134 -48.490  1.00  0.00     0.190 HD
BRANCH  28  31
HETATM   31  C   UNL     1     -45.063  62.559 -47.814  1.00  0.00     0.125 A 
HETATM   32  N   UNL     1     -44.889  63.831 -47.360  1.00  0.00    -0.255 NA
HETATM   33  C   UNL     1     -45.660  64.203 -46.316  1.00  0.00     0.117 A 
HETATM   34  C   UNL     1     -46.584  63.372 -45.700  1.00  0.00     0.019 A 
HETATM   35  C   UNL     1     -46.736  62.076 -46.184  1.00  0.00     0.004 A 
HETATM   36  C   UNL     1     -45.966  61.657 -47.262  1.00  0.00     0.037 A 
ENDBRANCH  28  31
ENDBRANCH  24  27
ENDBRANCH  22  23
ENDBRANCH   1  22
TORSDOF 8
ENDMDL
MODEL 5
REMARK VINA RESULT:      -8.3      2.215      3.004
REMARK  8 active torsions:
REMARK  status: ('A' for Active; 'I' for Inactive)
REMARK    1  A    between atoms: C_4  and  O_5 
REMARK    2  A    between atoms: O_5  and  C_6 
REMARK    3  A    between atoms: C_8  and  C_9 
REMARK    4  A    between atoms: C_9  and  N_10 
REMARK    5  A    between atoms: C_9  and  C_14 
REMARK       I    between atoms: N_10  and  C_11 
REMARK       I    between atoms: C_11  and  N_12 
REMARK    6  A    between atoms: C_14  and  C_15 
REMARK       I    between atoms: C_15  and  N_16 
REMARK    7  A    between atoms: N_16  and  N_17 
REMARK       I    between atoms: N_17  and  C_18 
REMARK    8  A    between atoms: C_18  and  C_19 
ROOT
HETATM    1  C   UNL     1     -43.200  57.809 -51.659  1.00  0.00     0.127 C 
ENDROOT
BRANCH   1   2
HETATM    2  C   UNL     1     -42.963  56.304 -51.579  1.00  0.00    -0.032 A 
HETATM    3  C   UNL     1     -41.749  55.735 -52.006  1.00  0.00     0.046 A 
HETATM    4  C   UNL     1     -41.500  54.365 -51.875  1.00  0.00     0.076 A 
HETATM    5  C   UNL     1     -42.441  53.537 -51.269  1.00  0.00     0.037 A 
HETATM    6  C   UNL     1     -43.642  54.081 -50.822  1.00  0.00     0.003 A 
HETATM    7  C   UNL     1     -43.895  55.450 -50.965  1.00  0.00     0.009 A 
BRANCH   4   8
HETATM    8  O   UNL     1     -40.261  53.923 -52.279  1.00  0.00    -0.311 OA
BRANCH   8   9
HETATM    9  C   UNL     1     -40.146  52.621 -52.710  1.00  0.00     0.076 A 
HETATM   10  C   UNL     1     -40.433  52.219 -54.017  1.00  0.00     0.037 A 
HETATM   11  C   UNL     1     -40.250  50.886 -54.388  1.00  0.00     0.003 A 
HETATM   12  C   UNL     1     -39.763  49.962 -53.461  1.00  0.00     0.000 A 
HETATM   13  C   UNL     1     -39.452  50.371 -52.164  1.00  0.00     0.003 A 
HETATM   14  C   UNL     1     -39.637  51.702 -51.791  1.00  0.00     0.037 A 
ENDBRANCH   8   9
ENDBRANCH   4   8
ENDBRANCH   1   2
BRANCH   1  15
HETATM   15  N   UNL     1     -44.072  58.363 -50.614  1.00  0.00    -0.339 N 
HETATM   16  C   UNL     1     -45.239  59.008 -50.848  1.00  0.00     0.292 C 
HETATM   17  N   UNL     1     -45.844  59.431 -49.715  1.00  0.00    -0.254 NA
HETATM   18  O   UNL     1     -45.734  59.199 -51.945  1.00  0.00    -0.254 OA
HETATM   19  H   UNL     1     -45.813  58.803 -48.926  1.00  0.00     0.128 HD
HETATM   20  H   UNL     1     -46.765  59.817 -49.893  1.00  0.00     0.128 HD
HETATM   21  H   UNL     1     -43.621  58.627 -49.750  1.00  0.00     0.164 HD
ENDBRANCH   1  15
BRANCH   1  22
HETATM   22  C   UNL     1     -42.022  58.739 -51.999  1.00  0.00     0.134 C 
BRANCH  22  23
HETATM   23  C   UNL     1     -41.726  59.105 -53.440  1.00  0.00     0.238 C 
HETATM   24  N   UNL     1     -42.682  58.780 -54.364  1.00  0.00    -0.267 N 
HETATM   25  H   UNL     1     -43.667  58.630 -54.121  1.00  0.00     0.190 HD
HETATM   26  O   UNL     1     -40.624  59.562 -53.761  1.00  0.00    -0.272 OA
BRANCH  24  27
HETATM   27  N   UNL     1     -42.410  58.966 -55.719  1.00  0.00    -0.262 N 
HETATM   28  C   UNL     1     -43.251  58.392 -56.651  1.00  0.00     0.288 C 
HETATM   29  O   UNL     1     -44.317  57.844 -56.379  1.00  0.00    -0.264 OA
HETATM   30  H   UNL     1     -41.472  59.272 -55.987  1.00  0.00     0.190 HD
BRANCH  28  31
HETATM   31  C   UNL     1     -42.760  58.469 -58.058  1.00  0.00     0.125 A 
HETATM   32  N   UNL     1     -42.542  57.286 -58.698  1.00  0.00    -0.255 NA
HETATM   33  C   UNL     1     -42.114  57.367 -59.975  1.00  0.00     0.117 A 
HETATM   34  C   UNL     1     -41.885  58.563 -60.641  1.00  0.00     0.019 A 
HETATM   35  C   UNL     1     -42.111  59.755 -59.960  1.00  0.00     0.004 A 
HETATM   36  C   UNL     1     -42.560  59.714 -58.645  1.00  0.00     0.037 A 
ENDBRANCH  28  31
ENDBRANCH  24  27
ENDBRANCH  22  23
ENDBRANCH   1  22
TORSDOF 8
ENDMDL
MODEL 6
REMARK VINA RESULT:      -8.3      4.437      7.451
REMARK  8 active torsions:
REMARK  status: ('A' for Active; 'I' for Inactive)
REMARK    1  A    between atoms: C_4  and  O_5 
REMARK    2  A    between atoms: O_5  and  C_6 
REMARK    3  A    between atoms: C_8  and  C_9 
REMARK    4  A    between atoms: C_9  and  N_10 
REMARK    5  A    between atoms: C_9  and  C_14 
REMARK       I    between atoms: N_10  and  C_11 
REMARK       I    between atoms: C_11  and  N_12 
REMARK    6  A    between atoms: C_14  and  C_15 
REMARK       I    between atoms: C_15  and  N_16 
REMARK    7  A    between atoms: N_16  and  N_17 
REMARK       I    between atoms: N_17  and  C_18 
REMARK    8  A    between atoms: C_18  and  C_19 
ROOT
HETATM    1  C   UNL     1     -42.833  57.570 -53.082  1.00  0.00     0.127 C 
ENDROOT
BRANCH   1   2
HETATM    2  C   UNL     1     -42.650  56.186 -53.697  1.00  0.00    -0.032 A 
HETATM    3  C   UNL     1     -41.400  55.540 -53.680  1.00  0.00     0.046 A 
HETATM    4  C   UNL     1     -41.242  54.245 -54.183  1.00  0.00     0.076 A 
HETATM    5  C   UNL     1     -42.340  53.544 -54.674  1.00  0.00     0.037 A 
HETATM    6  C   UNL     1     -43.591  54.156 -54.683  1.00  0.00     0.003 A 
HETATM    7  C   UNL     1     -43.746  55.457 -54.191  1.00  0.00     0.009 A 
BRANCH   4   8
HETATM    8  O   UNL     1     -39.987  53.690 -54.070  1.00  0.00    -0.311 OA
BRANCH   8   9
HETATM    9  C   UNL     1     -39.869  52.478 -53.428  1.00  0.00     0.076 A 
HETATM   10  C   UNL     1     -39.844  52.348 -52.038  1.00  0.00     0.037 A 
HETATM   11  C   UNL     1     -39.765  51.078 -51.462  1.00  0.00     0.003 A 
HETATM   12  C   UNL     1     -39.731  49.943 -52.274  1.00  0.00     0.000 A 
HETATM   13  C   UNL     1     -39.785  50.074 -53.661  1.00  0.00     0.003 A 
HETATM   14  C   UNL     1     -39.860  51.342 -54.238  1.00  0.00     0.037 A 
ENDBRANCH   8   9
ENDBRANCH   4   8
ENDBRANCH   1   2
BRANCH   1  15
HETATM   15  N   UNL     1     -42.714  58.694 -54.021  1.00  0.00    -0.339 N 
HETATM   16  C   UNL     1     -41.596  59.437 -54.193  1.00  0.00     0.292 C 
HETATM   17  N   UNL     1     -41.752  60.422 -55.108  1.00  0.00    -0.254 NA
HETATM   18  O   UNL     1     -40.537  59.267 -53.614  1.00  0.00    -0.254 OA
HETATM   19  H   UNL     1     -42.285  60.188 -55.932  1.00  0.00     0.128 HD
HETATM   20  H   UNL     1     -40.881  60.903 -55.306  1.00  0.00     0.128 HD
HETATM   21  H   UNL     1     -43.570  59.179 -54.247  1.00  0.00     0.164 HD
ENDBRANCH   1  15
BRANCH   1  22
HETATM   22  C   UNL     1     -43.941  57.788 -52.037  1.00  0.00     0.134 C 
BRANCH  22  23
HETATM   23  C   UNL     1     -43.907  58.999 -51.125  1.00  0.00     0.238 C 
HETATM   24  N   UNL     1     -44.929  59.116 -50.222  1.00  0.00    -0.267 N 
HETATM   25  H   UNL     1     -45.490  58.317 -49.904  1.00  0.00     0.190 HD
HETATM   26  O   UNL     1     -43.061  59.884 -51.285  1.00  0.00    -0.272 OA
BRANCH  24  27
HETATM   27  N   UNL     1     -45.027  60.275 -49.452  1.00  0.00    -0.262 N 
HETATM   28  C   UNL     1     -45.775  60.240 -48.292  1.00  0.00     0.288 C 
HETATM   29  O   UNL     1     -46.248  59.218 -47.801  1.00  0.00    -0.264 OA
HETATM   30  H   UNL     1     -44.790  61.167 -49.888  1.00  0.00     0.190 HD
BRANCH  28  31
HETATM   31  C   UNL     1     -45.992  61.573 -47.656  1.00  0.00     0.125 A 
HETATM   32  N   UNL     1     -47.057  62.298 -48.101  1.00  0.00    -0.255 NA
HETATM   33  C   UNL     1     -47.254  63.495 -47.508  1.00  0.00     0.117 A 
HETATM   34  C   UNL     1     -46.442  64.006 -46.505  1.00  0.00     0.019 A 
HETATM   35  C   UNL     1     -45.360  63.244 -46.075  1.00  0.00     0.004 A 
HETATM   36  C   UNL     1     -45.127  62.003 -46.656  1.00  0.00     0.037 A 
ENDBRANCH  28  31
ENDBRANCH  24  27
ENDBRANCH  22  23
ENDBRANCH   1  22
TORSDOF 8
ENDMDL
MODEL 7
REMARK VINA RESULT:      -8.2     15.558     18.205
REMARK  8 active torsions:
REMARK  status: ('A' for Active; 'I' for Inactive)
REMARK    1  A    between atoms: C_4  and  O_5 
REMARK    2  A    between atoms: O_5  and  C_6 
REMARK    3  A    between atoms: C_8  and  C_9 
REMARK    4  A    between atoms: C_9  and  N_10 
REMARK    5  A    between atoms: C_9  and  C_14 
REMARK       I    between atoms: N_10  and  C_11 
REMARK       I    between atoms: C_11  and  N_12 
REMARK    6  A    between atoms: C_14  and  C_15 
REMARK       I    between atoms: C_15  and  N_16 
REMARK    7  A    between atoms: N_16  and  N_17 
REMARK       I    between atoms: N_17  and  C_18 
REMARK    8  A    between atoms: C_18  and  C_19 
ROOT
HETATM    1  C   UNL     1     -33.894  41.070 -50.826  1.00  0.00     0.127 C 
ENDROOT
BRANCH   1   2
HETATM    2  C   UNL     1     -33.335  40.056 -49.834  1.00  0.00    -0.032 A 
HETATM    3  C   UNL     1     -32.008  40.144 -49.371  1.00  0.00     0.046 A 
HETATM    4  C   UNL     1     -31.511  39.257 -48.413  1.00  0.00     0.076 A 
HETATM    5  C   UNL     1     -32.341  38.287 -47.856  1.00  0.00     0.037 A 
HETATM    6  C   UNL     1     -33.662  38.193 -48.284  1.00  0.00     0.003 A 
HETATM    7  C   UNL     1     -34.156  39.074 -49.253  1.00  0.00     0.009 A 
BRANCH   4   8
HETATM    8  O   UNL     1     -30.215  39.465 -47.995  1.00  0.00    -0.311 OA
BRANCH   8   9
HETATM    9  C   UNL     1     -29.974  39.540 -46.642  1.00  0.00     0.076 A 
HETATM   10  C   UNL     1     -29.504  38.464 -45.887  1.00  0.00     0.037 A 
HETATM   11  C   UNL     1     -29.244  38.633 -44.526  1.00  0.00     0.003 A 
HETATM   12  C   UNL     1     -29.433  39.880 -43.927  1.00  0.00     0.000 A 
HETATM   13  C   UNL     1     -29.876  40.961 -44.689  1.00  0.00     0.003 A 
HETATM   14  C   UNL     1     -30.141  40.792 -46.048  1.00  0.00     0.037 A 
ENDBRANCH   8   9
ENDBRANCH   4   8
ENDBRANCH   1   2
BRANCH   1  15
HETATM   15  N   UNL     1     -33.114  41.236 -52.061  1.00  0.00    -0.339 N 
HETATM   16  C   UNL     1     -33.000  40.297 -53.029  1.00  0.00     0.292 C 
HETATM   17  N   UNL     1     -32.214  40.693 -54.057  1.00  0.00    -0.254 NA
HETATM   18  O   UNL     1     -33.538  39.204 -53.022  1.00  0.00    -0.254 OA
HETATM   19  H   UNL     1     -32.309  41.653 -54.352  1.00  0.00     0.128 HD
HETATM   20  H   UNL     1     -32.221  40.028 -54.823  1.00  0.00     0.128 HD
HETATM   21  H   UNL     1     -32.336  41.878 -52.015  1.00  0.00     0.164 HD
ENDBRANCH   1  15
BRANCH   1  22
HETATM   22  C   UNL     1     -35.412  41.120 -51.076  1.00  0.00     0.134 C 
BRANCH  22  23
HETATM   23  C   UNL     1     -35.953  41.561 -52.423  1.00  0.00     0.238 C 
HETATM   24  N   UNL     1     -36.592  40.607 -53.168  1.00  0.00    -0.267 N 
HETATM   25  H   UNL     1     -37.008  39.763 -52.759  1.00  0.00     0.190 HD
HETATM   26  O   UNL     1     -35.713  42.690 -52.858  1.00  0.00    -0.272 OA
BRANCH  24  27
HETATM   27  N   UNL     1     -36.989  40.914 -54.469  1.00  0.00    -0.262 N 
HETATM   28  C   UNL     1     -36.876  39.944 -55.445  1.00  0.00     0.288 C 
HETATM   29  O   UNL     1     -36.585  38.771 -55.227  1.00  0.00    -0.264 OA
HETATM   30  H   UNL     1     -37.085  41.898 -54.726  1.00  0.00     0.190 HD
BRANCH  28  31
HETATM   31  C   UNL     1     -37.124  40.433 -56.833  1.00  0.00     0.125 A 
HETATM   32  N   UNL     1     -37.891  39.641 -57.634  1.00  0.00    -0.255 NA
HETATM   33  C   UNL     1     -38.123  40.099 -58.882  1.00  0.00     0.117 A 
HETATM   34  C   UNL     1     -37.625  41.298 -59.372  1.00  0.00     0.019 A 
HETATM   35  C   UNL     1     -36.841  42.083 -58.533  1.00  0.00     0.004 A 
HETATM   36  C   UNL     1     -36.585  41.649 -57.238  1.00  0.00     0.037 A 
ENDBRANCH  28  31
ENDBRANCH  24  27
ENDBRANCH  22  23
ENDBRANCH   1  22
TORSDOF 8
ENDMDL
MODEL 8
REMARK VINA RESULT:      -8.2      2.418      7.325
REMARK  8 active torsions:
REMARK  status: ('A' for Active; 'I' for Inactive)
REMARK    1  A    between atoms: C_4  and  O_5 
REMARK    2  A    between atoms: O_5  and  C_6 
REMARK    3  A    between atoms: C_8  and  C_9 
REMARK    4  A    between atoms: C_9  and  N_10 
REMARK    5  A    between atoms: C_9  and  C_14 
REMARK       I    between atoms: N_10  and  C_11 
REMARK       I    between atoms: C_11  and  N_12 
REMARK    6  A    between atoms: C_14  and  C_15 
REMARK       I    between atoms: C_15  and  N_16 
REMARK    7  A    between atoms: N_16  and  N_17 
REMARK       I    between atoms: N_17  and  C_18 
REMARK    8  A    between atoms: C_18  and  C_19 
ROOT
HETATM    1  C   UNL     1     -42.736  58.038 -54.101  1.00  0.00     0.127 C 
ENDROOT
BRANCH   1   2
HETATM    2  C   UNL     1     -42.401  58.745 -55.410  1.00  0.00    -0.032 A 
HETATM    3  C   UNL     1     -42.292  58.029 -56.617  1.00  0.00     0.046 A 
HETATM    4  C   UNL     1     -42.051  58.680 -57.830  1.00  0.00     0.076 A 
HETATM    5  C   UNL     1     -41.959  60.069 -57.876  1.00  0.00     0.037 A 
HETATM    6  C   UNL     1     -42.083  60.799 -56.697  1.00  0.00     0.003 A 
HETATM    7  C   UNL     1     -42.312  60.146 -55.481  1.00  0.00     0.009 A 
BRANCH   4   8
HETATM    8  O   UNL     1     -42.012  57.889 -58.956  1.00  0.00    -0.311 OA
BRANCH   8   9
HETATM    9  C   UNL     1     -43.145  57.183 -59.292  1.00  0.00     0.076 A 
HETATM   10  C   UNL     1     -44.370  57.791 -59.575  1.00  0.00     0.037 A 
HETATM   11  C   UNL     1     -45.463  57.007 -59.949  1.00  0.00     0.003 A 
HETATM   12  C   UNL     1     -45.325  55.622 -60.060  1.00  0.00     0.000 A 
HETATM   13  C   UNL     1     -44.094  55.020 -59.805  1.00  0.00     0.003 A 
HETATM   14  C   UNL     1     -43.002  55.801 -59.427  1.00  0.00     0.037 A 
ENDBRANCH   8   9
ENDBRANCH   4   8
ENDBRANCH   1   2
BRANCH   1  15
HETATM   15  N   UNL     1     -42.977  58.924 -52.953  1.00  0.00    -0.339 N 
HETATM   16  C   UNL     1     -42.486  58.718 -51.708  1.00  0.00     0.292 C 
HETATM   17  N   UNL     1     -42.865  59.674 -50.828  1.00  0.00    -0.254 NA
HETATM   18  O   UNL     1     -41.769  57.791 -51.374  1.00  0.00    -0.254 OA
HETATM   19  H   UNL     1     -42.875  60.622 -51.172  1.00  0.00     0.128 HD
HETATM   20  H   UNL     1     -42.408  59.570 -49.929  1.00  0.00     0.128 HD
HETATM   21  H   UNL     1     -43.829  59.464 -52.977  1.00  0.00     0.164 HD
ENDBRANCH   1  15
BRANCH   1  22
HETATM   22  C   UNL     1     -43.688  56.828 -54.122  1.00  0.00     0.134 C 
BRANCH  22  23
HETATM   23  C   UNL     1     -43.205  55.466 -53.661  1.00  0.00     0.238 C 
HETATM   24  N   UNL     1     -41.951  55.412 -53.118  1.00  0.00    -0.267 N 
HETATM   25  H   UNL     1     -41.482  56.228 -52.709  1.00  0.00     0.190 HD
HETATM   26  O   UNL     1     -43.874  54.453 -53.883  1.00  0.00    -0.272 OA
BRANCH  24  27
HETATM   27  N   UNL     1     -41.399  54.170 -52.802  1.00  0.00    -0.262 N 
HETATM   28  C   UNL     1     -40.542  53.575 -53.706  1.00  0.00     0.288 C 
HETATM   29  O   UNL     1     -40.107  54.123 -54.715  1.00  0.00    -0.264 OA
HETATM   30  H   UNL     1     -41.842  53.617 -52.066  1.00  0.00     0.190 HD
BRANCH  28  31
HETATM   31  C   UNL     1     -40.176  52.166 -53.374  1.00  0.00     0.125 A 
HETATM   32  N   UNL     1     -39.817  51.913 -52.085  1.00  0.00    -0.255 NA
HETATM   33  C   UNL     1     -39.504  50.634 -51.791  1.00  0.00     0.117 A 
HETATM   34  C   UNL     1     -39.523  49.599 -52.717  1.00  0.00     0.019 A 
HETATM   35  C   UNL     1     -39.890  49.889 -54.027  1.00  0.00     0.004 A 
HETATM   36  C   UNL     1     -40.227  51.194 -54.368  1.00  0.00     0.037 A 
ENDBRANCH  28  31
ENDBRANCH  24  27
ENDBRANCH  22  23
ENDBRANCH   1  22
TORSDOF 8
ENDMDL
MODEL 9
REMARK VINA RESULT:      -8.2      2.459      5.311
REMARK  8 active torsions:
REMARK  status: ('A' for Active; 'I' for Inactive)
REMARK    1  A    between atoms: C_4  and  O_5 
REMARK    2  A    between atoms: O_5  and  C_6 
REMARK    3  A    between atoms: C_8  and  C_9 
REMARK    4  A    between atoms: C_9  and  N_10 
REMARK    5  A    between atoms: C_9  and  C_14 
REMARK       I    between atoms: N_10  and  C_11 
REMARK       I    between atoms: C_11  and  N_12 
REMARK    6  A    between atoms: C_14  and  C_15 
REMARK       I    between atoms: C_15  and  N_16 
REMARK    7  A    between atoms: N_16  and  N_17 
REMARK       I    between atoms: N_17  and  C_18 
REMARK    8  A    between atoms: C_18  and  C_19 
ROOT
HETATM    1  C   UNL     1     -40.549  53.753 -53.879  1.00  0.00     0.127 C 
ENDROOT
BRANCH   1   2
HETATM    2  C   UNL     1     -40.881  54.269 -52.483  1.00  0.00    -0.032 A 
HETATM    3  C   UNL     1     -41.277  55.603 -52.274  1.00  0.00     0.046 A 
HETATM    4  C   UNL     1     -41.645  56.064 -51.006  1.00  0.00     0.076 A 
HETATM    5  C   UNL     1     -41.674  55.189 -49.923  1.00  0.00     0.037 A 
HETATM    6  C   UNL     1     -41.305  53.860 -50.109  1.00  0.00     0.003 A 
HETATM    7  C   UNL     1     -40.924  53.403 -51.376  1.00  0.00     0.009 A 
BRANCH   4   8
HETATM    8  O   UNL     1     -42.062  57.373 -50.924  1.00  0.00    -0.311 OA
BRANCH   8   9
HETATM    9  C   UNL     1     -42.787  57.890 -51.974  1.00  0.00     0.076 A 
HETATM   10  C   UNL     1     -42.315  58.911 -52.801  1.00  0.00     0.037 A 
HETATM   11  C   UNL     1     -43.094  59.352 -53.873  1.00  0.00     0.003 A 
HETATM   12  C   UNL     1     -44.331  58.759 -54.128  1.00  0.00     0.000 A 
HETATM   13  C   UNL     1     -44.789  57.720 -53.318  1.00  0.00     0.003 A 
HETATM   14  C   UNL     1     -44.013  57.281 -52.245  1.00  0.00     0.037 A 
ENDBRANCH   8   9
ENDBRANCH   4   8
ENDBRANCH   1   2
BRANCH   1  15
HETATM   15  N   UNL     1     -40.981  52.376 -54.159  1.00  0.00    -0.339 N 
HETATM   16  C   UNL     1     -40.179  51.289 -54.083  1.00  0.00     0.292 C 
HETATM   17  N   UNL     1     -40.817  50.140 -54.403  1.00  0.00    -0.254 NA
HETATM   18  O   UNL     1     -39.004  51.297 -53.757  1.00  0.00    -0.254 OA
HETATM   19  H   UNL     1     -41.762  50.042 -54.065  1.00  0.00     0.128 HD
HETATM   20  H   UNL     1     -40.238  49.322 -54.241  1.00  0.00     0.128 HD
HETATM   21  H   UNL     1     -41.757  52.273 -54.796  1.00  0.00     0.164 HD
ENDBRANCH   1  15
BRANCH   1  22
HETATM   22  C   UNL     1     -40.735  54.687 -55.089  1.00  0.00     0.134 C 
BRANCH  22  23
HETATM   23  C   UNL     1     -42.058  54.728 -55.830  1.00  0.00     0.238 C 
HETATM   24  N   UNL     1     -42.185  55.680 -56.804  1.00  0.00    -0.267 N 
HETATM   25  H   UNL     1     -41.382  56.112 -57.274  1.00  0.00     0.190 HD
HETATM   26  O   UNL     1     -42.999  54.012 -55.477  1.00  0.00    -0.272 OA
BRANCH  24  27
HETATM   27  N   UNL     1     -43.422  55.857 -57.425  1.00  0.00    -0.262 N 
HETATM   28  C   UNL     1     -43.469  55.930 -58.803  1.00  0.00     0.288 C 
HETATM   29  O   UNL     1     -42.515  55.703 -59.543  1.00  0.00    -0.264 OA
HETATM   30  H   UNL     1     -44.202  56.200 -56.861  1.00  0.00     0.190 HD
BRANCH  28  31
HETATM   31  C   UNL     1     -44.797  56.329 -59.355  1.00  0.00     0.125 A 
HETATM   32  N   UNL     1     -45.412  57.392 -58.766  1.00  0.00    -0.255 NA
HETATM   33  C   UNL     1     -46.604  57.756 -59.283  1.00  0.00     0.117 A 
HETATM   34  C   UNL     1     -47.215  57.110 -60.349  1.00  0.00     0.019 A 
HETATM   35  C   UNL     1     -46.565  56.025 -60.928  1.00  0.00     0.004 A 
HETATM   36  C   UNL     1     -45.332  55.624 -60.428  1.00  0.00     0.037 A 
ENDBRANCH  28  31
ENDBRANCH  24  27
ENDBRANCH  22  23
ENDBRANCH   1  22
TORSDOF 8
ENDMDL
MODEL 10
REMARK VINA RESULT:      -8.0      3.531      5.735
REMARK  8 active torsions:
REMARK  status: ('A' for Active; 'I' for Inactive)
REMARK    1  A    between atoms: C_4  and  O_5 
REMARK    2  A    between atoms: O_5  and  C_6 
REMARK    3  A    between atoms: C_8  and  C_9 
REMARK    4  A    between atoms: C_9  and  N_10 
REMARK    5  A    between atoms: C_9  and  C_14 
REMARK       I    between atoms: N_10  and  C_11 
REMARK       I    between atoms: C_11  and  N_12 
REMARK    6  A    between atoms: C_14  and  C_15 
REMARK       I    between atoms: C_15  and  N_16 
REMARK    7  A    between atoms: N_16  and  N_17 
REMARK       I    between atoms: N_17  and  C_18 
REMARK    8  A    between atoms: C_18  and  C_19 
ROOT
HETATM    1  C   UNL     1     -41.761  57.017 -52.741  1.00  0.00     0.127 C 
ENDROOT
BRANCH   1   2
HETATM    2  C   UNL     1     -41.885  55.710 -53.517  1.00  0.00    -0.032 A 
HETATM    3  C   UNL     1     -40.794  54.829 -53.641  1.00  0.00     0.046 A 
HETATM    4  C   UNL     1     -40.920  53.600 -54.294  1.00  0.00     0.076 A 
HETATM    5  C   UNL     1     -42.154  53.198 -54.800  1.00  0.00     0.037 A 
HETATM    6  C   UNL     1     -43.252  54.043 -54.672  1.00  0.00     0.003 A 
HETATM    7  C   UNL     1     -43.122  55.279 -54.029  1.00  0.00     0.009 A 
BRANCH   4   8
HETATM    8  O   UNL     1     -39.803  52.796 -54.314  1.00  0.00    -0.311 OA
BRANCH   8   9
HETATM    9  C   UNL     1     -39.712  51.789 -53.380  1.00  0.00     0.076 A 
HETATM   10  C   UNL     1     -39.767  52.015 -52.003  1.00  0.00     0.037 A 
HETATM   11  C   UNL     1     -39.710  50.935 -51.120  1.00  0.00     0.003 A 
HETATM   12  C   UNL     1     -39.619  49.632 -51.614  1.00  0.00     0.000 A 
HETATM   13  C   UNL     1     -39.592  49.407 -52.990  1.00  0.00     0.003 A 
HETATM   14  C   UNL     1     -39.644  50.485 -53.873  1.00  0.00     0.037 A 
ENDBRANCH   8   9
ENDBRANCH   4   8
ENDBRANCH   1   2
BRANCH   1  15
HETATM   15  N   UNL     1     -41.935  58.239 -53.538  1.00  0.00    -0.339 N 
HETATM   16  C   UNL     1     -40.993  59.199 -53.688  1.00  0.00     0.292 C 
HETATM   17  N   UNL     1     -41.408  60.229 -54.462  1.00  0.00    -0.254 NA
HETATM   18  O   UNL     1     -39.874  59.175 -53.205  1.00  0.00    -0.254 OA
HETATM   19  H   UNL     1     -41.958  59.988 -55.273  1.00  0.00     0.128 HD
HETATM   20  H   UNL     1     -40.662  60.888 -54.655  1.00  0.00     0.128 HD
HETATM   21  H   UNL     1     -42.882  58.570 -53.647  1.00  0.00     0.164 HD
ENDBRANCH   1  15
BRANCH   1  22
HETATM   22  C   UNL     1     -42.401  57.126 -51.345  1.00  0.00     0.134 C 
BRANCH  22  23
HETATM   23  C   UNL     1     -43.251  58.330 -50.985  1.00  0.00     0.238 C 
HETATM   24  N   UNL     1     -44.607  58.143 -50.979  1.00  0.00    -0.267 N 
HETATM   25  H   UNL     1     -45.045  57.221 -50.868  1.00  0.00     0.190 HD
HETATM   26  O   UNL     1     -42.736  59.440 -50.827  1.00  0.00    -0.272 OA
BRANCH  24  27
HETATM   27  N   UNL     1     -45.445  59.242 -50.790  1.00  0.00    -0.262 N 
HETATM   28  C   UNL     1     -45.865  59.954 -51.895  1.00  0.00     0.288 C 
HETATM   29  O   UNL     1     -45.677  59.607 -53.058  1.00  0.00    -0.264 OA
HETATM   30  H   UNL     1     -45.498  59.654 -49.856  1.00  0.00     0.190 HD
BRANCH  28  31
HETATM   31  C   UNL     1     -46.577  61.226 -51.575  1.00  0.00     0.125 A 
HETATM   32  N   UNL     1     -47.458  61.687 -52.507  1.00  0.00    -0.255 NA
HETATM   33  C   UNL     1     -48.109  62.830 -52.201  1.00  0.00     0.117 A 
HETATM   34  C   UNL     1     -47.921  63.536 -51.022  1.00  0.00     0.019 A 
HETATM   35  C   UNL     1     -47.012  63.043 -50.091  1.00  0.00     0.004 A 
HETATM   36  C   UNL     1     -46.327  61.866 -50.366  1.00  0.00     0.037 A 
ENDBRANCH  28  31
ENDBRANCH  24  27
ENDBRANCH  22  23
ENDBRANCH   1  22
TORSDOF 8
ENDMDL
