MODEL 1
REMARK VINA RESULT:      -7.5      0.000      0.000
REMARK  6 active torsions:
REMARK  status: ('A' for Active; 'I' for Inactive)
REMARK    1  A    between atoms: C_3  and  N_4 
REMARK    2  A    between atoms: N_4  and  C_5 
REMARK    3  A    between atoms: C_5  and  C_6 
REMARK    4  A    between atoms: N_8  and  C_10 
REMARK    5  A    between atoms: C_10  and  C_11 
REMARK    6  A    between atoms: C_12  and  O_13 
ROOT
HETATM    1  C   UNL     1     -42.422  56.843 -55.726  1.00  0.00     0.026 C 
HETATM    2  C   UNL     1     -41.638  55.547 -55.550  1.00  0.00     0.241 C 
HETATM    3  N   UNL     1     -42.055  55.052 -54.186  1.00  0.00    -0.067 N 
HETATM    4  H   UNL     1     -42.260  54.036 -54.258  1.00  0.00     0.280 HD
HETATM    5  C   UNL     1     -43.322  55.772 -53.789  1.00  0.00     0.235 C 
HETATM    6  C   UNL     1     -43.749  56.500 -55.054  1.00  0.00     0.035 C 
ENDROOT
BRANCH   3   7
HETATM    7  C   UNL     1     -40.978  55.096 -53.127  1.00  0.00     0.276 C 
BRANCH   7   8
HETATM    8  C   UNL     1     -40.547  53.731 -52.664  1.00  0.00     0.002 A 
HETATM    9  C   UNL     1     -40.305  53.467 -51.308  1.00  0.00     0.073 A 
HETATM   10  C   UNL     1     -39.878  52.214 -50.877  1.00  0.00     0.038 A 
HETATM   11  C   UNL     1     -39.688  51.195 -51.810  1.00  0.00     0.022 A 
HETATM   12  C   UNL     1     -39.920  51.441 -53.162  1.00  0.00     0.011 A 
HETATM   13 BR   UNL     1     -39.672  50.059 -54.426  1.00  0.00    -0.051 Br
HETATM   14  C   UNL     1     -40.339  52.701 -53.593  1.00  0.00     0.030 A 
BRANCH   9  15
HETATM   15  O   UNL     1     -40.525  54.473 -50.404  1.00  0.00    -0.360 OA
HETATM   16  H   UNL     1     -39.817  54.420 -49.727  1.00  0.00     0.217 HD
ENDBRANCH   9  15
ENDBRANCH   7   8
ENDBRANCH   3   7
BRANCH   1  17
HETATM   17  C   UNL     1     -42.546  57.286 -57.190  1.00  0.00     0.100 C 
BRANCH  17  18
HETATM   18  N   UNL     1     -42.806  56.121 -58.029  1.00  0.00    -0.279 NA
HETATM   19  H   UNL     1     -42.687  55.238 -57.523  1.00  0.00     0.129 HD
BRANCH  18  20
HETATM   20  C   UNL     1     -43.923  56.018 -58.861  1.00  0.00     0.079 A 
HETATM   21  C   UNL     1     -43.885  55.140 -59.955  1.00  0.00     0.042 A 
HETATM   22  C   UNL     1     -44.970  55.045 -60.823  1.00  0.00     0.005 A 
HETATM   23  C   UNL     1     -46.082  55.846 -60.611  1.00  0.00     0.017 A 
HETATM   24  C   UNL     1     -46.074  56.730 -59.545  1.00  0.00     0.089 A 
HETATM   25  N   UNL     1     -45.011  56.794 -58.724  1.00  0.00    -0.357 N 
HETATM   26  H   UNL     1     -45.034  57.475 -57.975  1.00  0.00     0.166 HD
ENDBRANCH  18  20
ENDBRANCH  17  18
ENDBRANCH   1  17
TORSDOF 6
ENDMDL
MODEL 2
REMARK VINA RESULT:      -7.2      5.191      8.063
REMARK  6 active torsions:
REMARK  status: ('A' for Active; 'I' for Inactive)
REMARK    1  A    between atoms: C_3  and  N_4 
REMARK    2  A    between atoms: N_4  and  C_5 
REMARK    3  A    between atoms: C_5  and  C_6 
REMARK    4  A    between atoms: N_8  and  C_10 
REMARK    5  A    between atoms: C_10  and  C_11 
REMARK    6  A    between atoms: C_12  and  O_13 
ROOT
HETATM    1  C   UNL     1     -41.531  54.421 -50.015  1.00  0.00     0.026 C 
HETATM    2  C   UNL     1     -42.579  54.482 -51.120  1.00  0.00     0.241 C 
HETATM    3  N   UNL     1     -42.827  55.959 -51.306  1.00  0.00    -0.067 N 
HETATM    4  H   UNL     1     -42.830  56.163 -52.324  1.00  0.00     0.280 HD
HETATM    5  C   UNL     1     -41.683  56.713 -50.669  1.00  0.00     0.235 C 
HETATM    6  C   UNL     1     -40.663  55.635 -50.338  1.00  0.00     0.035 C 
ENDROOT
BRANCH   3   7
HETATM    7  C   UNL     1     -44.189  56.445 -50.868  1.00  0.00     0.276 C 
BRANCH   7   8
HETATM    8  C   UNL     1     -44.658  57.656 -51.626  1.00  0.00     0.002 A 
HETATM    9  C   UNL     1     -45.352  58.692 -50.984  1.00  0.00     0.073 A 
HETATM   10  C   UNL     1     -45.813  59.802 -51.687  1.00  0.00     0.038 A 
HETATM   11  C   UNL     1     -45.581  59.891 -53.059  1.00  0.00     0.022 A 
HETATM   12  C   UNL     1     -44.896  58.869 -53.714  1.00  0.00     0.011 A 
HETATM   13 BR   UNL     1     -44.572  58.994 -55.571  1.00  0.00    -0.051 Br
HETATM   14  C   UNL     1     -44.442  57.753 -53.009  1.00  0.00     0.030 A 
BRANCH   9  15
HETATM   15  O   UNL     1     -45.545  58.599 -49.631  1.00  0.00    -0.360 OA
HETATM   16  H   UNL     1     -46.085  57.797 -49.466  1.00  0.00     0.217 HD
ENDBRANCH   9  15
ENDBRANCH   7   8
ENDBRANCH   3   7
BRANCH   1  17
HETATM   17  C   UNL     1     -40.769  53.089 -49.970  1.00  0.00     0.100 C 
BRANCH  17  18
HETATM   18  N   UNL     1     -39.812  53.040 -51.072  1.00  0.00    -0.279 NA
HETATM   19  H   UNL     1     -38.850  53.212 -50.765  1.00  0.00     0.129 HD
BRANCH  18  20
HETATM   20  C   UNL     1     -39.806  52.023 -52.028  1.00  0.00     0.079 A 
HETATM   21  C   UNL     1     -40.172  52.321 -53.349  1.00  0.00     0.042 A 
HETATM   22  C   UNL     1     -40.212  51.318 -54.316  1.00  0.00     0.005 A 
HETATM   23  C   UNL     1     -39.910  50.014 -53.954  1.00  0.00     0.017 A 
HETATM   24  C   UNL     1     -39.591  49.745 -52.633  1.00  0.00     0.089 A 
HETATM   25  N   UNL     1     -39.558  50.737 -51.726  1.00  0.00    -0.357 N 
HETATM   26  H   UNL     1     -39.350  50.492 -50.766  1.00  0.00     0.166 HD
ENDBRANCH  18  20
ENDBRANCH  17  18
ENDBRANCH   1  17
TORSDOF 6
ENDMDL
MODEL 3
REMARK VINA RESULT:      -7.2      3.558      7.902
REMARK  6 active torsions:
REMARK  status: ('A' for Active; 'I' for Inactive)
REMARK    1  A    between atoms: C_3  and  N_4 
REMARK    2  A    between atoms: N_4  and  C_5 
REMARK    3  A    between atoms: C_5  and  C_6 
REMARK    4  A    between atoms: N_8  and  C_10 
REMARK    5  A    between atoms: C_10  and  C_11 
REMARK    6  A    between atoms: C_12  and  O_13 
ROOT
HETATM    1  C   UNL     1     -42.296  55.336 -53.071  1.00  0.00     0.026 C 
HETATM    2  C   UNL     1     -42.279  55.070 -54.573  1.00  0.00     0.241 C 
HETATM    3  N   UNL     1     -42.133  56.443 -55.184  1.00  0.00    -0.067 N 
HETATM    4  H   UNL     1     -41.409  56.392 -55.927  1.00  0.00     0.280 HD
HETATM    5  C   UNL     1     -41.653  57.389 -54.109  1.00  0.00     0.235 C 
HETATM    6  C   UNL     1     -41.293  56.480 -52.944  1.00  0.00     0.035 C 
ENDROOT
BRANCH   3   7
HETATM    7  C   UNL     1     -43.343  56.946 -55.935  1.00  0.00     0.276 C 
BRANCH   7   8
HETATM    8  C   UNL     1     -43.134  57.005 -57.423  1.00  0.00     0.002 A 
HETATM    9  C   UNL     1     -43.266  55.860 -58.221  1.00  0.00     0.073 A 
HETATM   10  C   UNL     1     -43.046  55.904 -59.596  1.00  0.00     0.038 A 
HETATM   11  C   UNL     1     -42.689  57.111 -60.197  1.00  0.00     0.022 A 
HETATM   12  C   UNL     1     -42.550  58.258 -59.418  1.00  0.00     0.011 A 
HETATM   13 BR   UNL     1     -42.077  59.896 -60.231  1.00  0.00    -0.051 Br
HETATM   14  C   UNL     1     -42.763  58.210 -58.039  1.00  0.00     0.030 A 
BRANCH   9  15
HETATM   15  O   UNL     1     -43.645  54.691 -57.617  1.00  0.00    -0.360 OA
HETATM   16  H   UNL     1     -44.581  54.524 -57.860  1.00  0.00     0.217 HD
ENDBRANCH   9  15
ENDBRANCH   7   8
ENDBRANCH   3   7
BRANCH   1  17
HETATM   17  C   UNL     1     -41.958  54.098 -52.229  1.00  0.00     0.100 C 
BRANCH  17  18
HETATM   18  N   UNL     1     -40.579  53.696 -52.490  1.00  0.00    -0.279 NA
HETATM   19  H   UNL     1     -39.919  54.098 -51.817  1.00  0.00     0.129 HD
BRANCH  18  20
HETATM   20  C   UNL     1     -40.209  52.376 -52.751  1.00  0.00     0.079 A 
HETATM   21  C   UNL     1     -40.386  51.857 -54.043  1.00  0.00     0.042 A 
HETATM   22  C   UNL     1     -40.061  50.531 -54.324  1.00  0.00     0.005 A 
HETATM   23  C   UNL     1     -39.584  49.719 -53.306  1.00  0.00     0.017 A 
HETATM   24  C   UNL     1     -39.458  50.249 -52.032  1.00  0.00     0.089 A 
HETATM   25  N   UNL     1     -39.777  51.534 -51.797  1.00  0.00    -0.357 N 
HETATM   26  H   UNL     1     -39.698  51.872 -50.846  1.00  0.00     0.166 HD
ENDBRANCH  18  20
ENDBRANCH  17  18
ENDBRANCH   1  17
TORSDOF 6
ENDMDL
MODEL 4
REMARK VINA RESULT:      -7.1      4.130      8.472
REMARK  6 active torsions:
REMARK  status: ('A' for Active; 'I' for Inactive)
REMARK    1  A    between atoms: C_3  and  N_4 
REMARK    2  A    between atoms: N_4  and  C_5 
REMARK    3  A    between atoms: C_5  and  C_6 
REMARK    4  A    between atoms: N_8  and  C_10 
REMARK    5  A    between atoms: C_10  and  C_11 
REMARK    6  A    between atoms: C_12  and  O_13 
ROOT
HETATM    1  C   UNL     1     -43.219  55.561 -55.133  1.00  0.00     0.026 C 
HETATM    2  C   UNL     1     -42.868  54.904 -56.463  1.00  0.00     0.241 C 
HETATM    3  N   UNL     1     -42.529  56.066 -57.365  1.00  0.00    -0.067 N 
HETATM    4  H   UNL     1     -41.656  55.836 -57.879  1.00  0.00     0.280 HD
HETATM    5  C   UNL     1     -42.271  57.276 -56.499  1.00  0.00     0.235 C 
HETATM    6  C   UNL     1     -42.227  56.720 -55.084  1.00  0.00     0.035 C 
ENDROOT
BRANCH   3   7
HETATM    7  C   UNL     1     -43.512  56.322 -58.483  1.00  0.00     0.276 C 
BRANCH   7   8
HETATM    8  C   UNL     1     -43.208  57.571 -59.265  1.00  0.00     0.002 A 
HETATM    9  C   UNL     1     -42.120  57.629 -60.147  1.00  0.00     0.073 A 
HETATM   10  C   UNL     1     -41.818  58.792 -60.852  1.00  0.00     0.038 A 
HETATM   11  C   UNL     1     -42.613  59.925 -60.681  1.00  0.00     0.022 A 
HETATM   12  C   UNL     1     -43.696  59.885 -59.806  1.00  0.00     0.011 A 
HETATM   13 BR   UNL     1     -44.780  61.416 -59.581  1.00  0.00    -0.051 Br
HETATM   14  C   UNL     1     -43.993  58.722 -59.094  1.00  0.00     0.030 A 
BRANCH   9  15
HETATM   15  O   UNL     1     -41.369  56.497 -60.322  1.00  0.00    -0.360 OA
HETATM   16  H   UNL     1     -40.535  56.617 -59.819  1.00  0.00     0.217 HD
ENDBRANCH   9  15
ENDBRANCH   7   8
ENDBRANCH   3   7
BRANCH   1  17
HETATM   17  C   UNL     1     -43.135  54.602 -53.938  1.00  0.00     0.100 C 
BRANCH  17  18
HETATM   18  N   UNL     1     -41.792  54.654 -53.367  1.00  0.00    -0.279 NA
HETATM   19  H   UNL     1     -41.751  55.217 -52.512  1.00  0.00     0.129 HD
BRANCH  18  20
HETATM   20  C   UNL     1     -40.993  53.522 -53.202  1.00  0.00     0.079 A 
HETATM   21  C   UNL     1     -40.844  52.625 -54.271  1.00  0.00     0.042 A 
HETATM   22  C   UNL     1     -40.083  51.468 -54.123  1.00  0.00     0.005 A 
HETATM   23  C   UNL     1     -39.493  51.195 -52.899  1.00  0.00     0.017 A 
HETATM   24  C   UNL     1     -39.690  52.080 -51.851  1.00  0.00     0.089 A 
HETATM   25  N   UNL     1     -40.428  53.190 -52.029  1.00  0.00    -0.357 N 
HETATM   26  H   UNL     1     -40.571  53.794 -51.229  1.00  0.00     0.166 HD
ENDBRANCH  18  20
ENDBRANCH  17  18
ENDBRANCH   1  17
TORSDOF 6
ENDMDL
MODEL 5
REMARK VINA RESULT:      -7.0      1.485      1.924
REMARK  6 active torsions:
REMARK  status: ('A' for Active; 'I' for Inactive)
REMARK    1  A    between atoms: C_3  and  N_4 
REMARK    2  A    between atoms: N_4  and  C_5 
REMARK    3  A    between atoms: C_5  and  C_6 
REMARK    4  A    between atoms: N_8  and  C_10 
REMARK    5  A    between atoms: C_10  and  C_11 
REMARK    6  A    between atoms: C_12  and  O_13 
ROOT
HETATM    1  C   UNL     1     -43.489  57.247 -54.582  1.00  0.00     0.026 C 
HETATM    2  C   UNL     1     -42.932  55.856 -54.863  1.00  0.00     0.241 C 
HETATM    3  N   UNL     1     -42.482  55.363 -53.508  1.00  0.00    -0.067 N 
HETATM    4  H   UNL     1     -42.814  54.386 -53.391  1.00  0.00     0.280 HD
HETATM    5  C   UNL     1     -43.137  56.223 -52.452  1.00  0.00     0.235 C 
HETATM    6  C   UNL     1     -44.155  57.050 -53.222  1.00  0.00     0.035 C 
ENDROOT
BRANCH   3   7
HETATM    7  C   UNL     1     -40.988  55.227 -53.335  1.00  0.00     0.276 C 
BRANCH   7   8
HETATM    8  C   UNL     1     -40.573  53.881 -52.809  1.00  0.00     0.002 A 
HETATM    9  C   UNL     1     -40.330  53.677 -51.443  1.00  0.00     0.073 A 
HETATM   10  C   UNL     1     -39.918  52.439 -50.955  1.00  0.00     0.038 A 
HETATM   11  C   UNL     1     -39.743  51.376 -51.841  1.00  0.00     0.022 A 
HETATM   12  C   UNL     1     -39.977  51.562 -53.202  1.00  0.00     0.011 A 
HETATM   13 BR   UNL     1     -39.751  50.119 -54.400  1.00  0.00    -0.051 Br
HETATM   14  C   UNL     1     -40.381  52.805 -53.690  1.00  0.00     0.030 A 
BRANCH   9  15
HETATM   15  O   UNL     1     -40.534  54.726 -50.587  1.00  0.00    -0.360 OA
HETATM   16  H   UNL     1     -41.015  55.423 -51.084  1.00  0.00     0.217 HD
ENDBRANCH   9  15
ENDBRANCH   7   8
ENDBRANCH   3   7
BRANCH   1  17
HETATM   17  C   UNL     1     -44.428  57.761 -55.681  1.00  0.00     0.100 C 
BRANCH  17  18
HETATM   18  N   UNL     1     -44.370  56.861 -56.829  1.00  0.00    -0.279 NA
HETATM   19  H   UNL     1     -45.299  56.568 -57.146  1.00  0.00     0.129 HD
BRANCH  18  20
HETATM   20  C   UNL     1     -43.567  57.105 -57.945  1.00  0.00     0.079 A 
HETATM   21  C   UNL     1     -43.268  56.049 -58.819  1.00  0.00     0.042 A 
HETATM   22  C   UNL     1     -42.439  56.254 -59.920  1.00  0.00     0.005 A 
HETATM   23  C   UNL     1     -41.890  57.510 -60.131  1.00  0.00     0.017 A 
HETATM   24  C   UNL     1     -42.173  58.522 -59.229  1.00  0.00     0.089 A 
HETATM   25  N   UNL     1     -42.980  58.291 -58.179  1.00  0.00    -0.357 N 
HETATM   26  H   UNL     1     -43.136  59.050 -57.527  1.00  0.00     0.166 HD
ENDBRANCH  18  20
ENDBRANCH  17  18
ENDBRANCH   1  17
TORSDOF 6
ENDMDL
MODEL 6
REMARK VINA RESULT:      -6.9      3.522      6.035
REMARK  6 active torsions:
REMARK  status: ('A' for Active; 'I' for Inactive)
REMARK    1  A    between atoms: C_3  and  N_4 
REMARK    2  A    between atoms: N_4  and  C_5 
REMARK    3  A    between atoms: C_5  and  C_6 
REMARK    4  A    between atoms: N_8  and  C_10 
REMARK    5  A    between atoms: C_10  and  C_11 
REMARK    6  A    between atoms: C_12  and  O_13 
ROOT
HETATM    1  C   UNL     1     -42.931  56.578 -55.036  1.00  0.00     0.026 C 
HETATM    2  C   UNL     1     -43.811  55.925 -53.976  1.00  0.00     0.241 C 
HETATM    3  N   UNL     1     -44.849  56.977 -53.667  1.00  0.00    -0.067 N 
HETATM    4  H   UNL     1     -45.780  56.517 -53.645  1.00  0.00     0.280 HD
HETATM    5  C   UNL     1     -44.840  57.992 -54.785  1.00  0.00     0.235 C 
HETATM    6  C   UNL     1     -43.954  57.366 -55.851  1.00  0.00     0.035 C 
ENDROOT
BRANCH   3   7
HETATM    7  C   UNL     1     -44.753  57.593 -52.291  1.00  0.00     0.276 C 
BRANCH   7   8
HETATM    8  C   UNL     1     -43.470  57.260 -51.581  1.00  0.00     0.002 A 
HETATM    9  C   UNL     1     -43.340  56.085 -50.827  1.00  0.00     0.073 A 
HETATM   10  C   UNL     1     -42.163  55.787 -50.144  1.00  0.00     0.038 A 
HETATM   11  C   UNL     1     -41.087  56.672 -50.211  1.00  0.00     0.022 A 
HETATM   12  C   UNL     1     -41.201  57.846 -50.952  1.00  0.00     0.011 A 
HETATM   13 BR   UNL     1     -39.741  59.040 -51.052  1.00  0.00    -0.051 Br
HETATM   14  C   UNL     1     -42.384  58.147 -51.629  1.00  0.00     0.030 A 
BRANCH   9  15
HETATM   15  O   UNL     1     -44.398  55.215 -50.797  1.00  0.00    -0.360 OA
HETATM   16  H   UNL     1     -45.220  55.751 -50.810  1.00  0.00     0.217 HD
ENDBRANCH   9  15
ENDBRANCH   7   8
ENDBRANCH   3   7
BRANCH   1  17
HETATM   17  C   UNL     1     -42.110  55.570 -55.852  1.00  0.00     0.100 C 
BRANCH  17  18
HETATM   18  N   UNL     1     -40.832  55.333 -55.186  1.00  0.00    -0.279 NA
HETATM   19  H   UNL     1     -40.479  56.166 -54.706  1.00  0.00     0.129 HD
BRANCH  18  20
HETATM   20  C   UNL     1     -40.588  54.214 -54.388  1.00  0.00     0.079 A 
HETATM   21  C   UNL     1     -40.641  54.343 -52.991  1.00  0.00     0.042 A 
HETATM   22  C   UNL     1     -40.365  53.253 -52.169  1.00  0.00     0.005 A 
HETATM   23  C   UNL     1     -40.011  52.041 -52.744  1.00  0.00     0.017 A 
HETATM   24  C   UNL     1     -39.930  51.956 -54.125  1.00  0.00     0.089 A 
HETATM   25  N   UNL     1     -40.206  53.027 -54.889  1.00  0.00    -0.357 N 
HETATM   26  H   UNL     1     -40.106  52.930 -55.891  1.00  0.00     0.166 HD
ENDBRANCH  18  20
ENDBRANCH  17  18
ENDBRANCH   1  17
TORSDOF 6
ENDMDL
MODEL 7
REMARK VINA RESULT:      -6.9      3.077      5.383
REMARK  6 active torsions:
REMARK  status: ('A' for Active; 'I' for Inactive)
REMARK    1  A    between atoms: C_3  and  N_4 
REMARK    2  A    between atoms: N_4  and  C_5 
REMARK    3  A    between atoms: C_5  and  C_6 
REMARK    4  A    between atoms: N_8  and  C_10 
REMARK    5  A    between atoms: C_10  and  C_11 
REMARK    6  A    between atoms: C_12  and  O_13 
ROOT
HETATM    1  C   UNL     1     -42.520  57.583 -55.158  1.00  0.00     0.026 C 
HETATM    2  C   UNL     1     -41.476  56.715 -54.463  1.00  0.00     0.241 C 
HETATM    3  N   UNL     1     -41.852  55.307 -54.859  1.00  0.00    -0.067 N 
HETATM    4  H   UNL     1     -40.986  54.806 -55.140  1.00  0.00     0.280 HD
HETATM    5  C   UNL     1     -42.773  55.382 -56.053  1.00  0.00     0.235 C 
HETATM    6  C   UNL     1     -42.715  56.841 -56.478  1.00  0.00     0.035 C 
ENDROOT
BRANCH   3   7
HETATM    7  C   UNL     1     -42.383  54.443 -53.739  1.00  0.00     0.276 C 
BRANCH   7   8
HETATM    8  C   UNL     1     -41.356  53.495 -53.184  1.00  0.00     0.002 A 
HETATM    9  C   UNL     1     -40.738  53.735 -51.949  1.00  0.00     0.073 A 
HETATM   10  C   UNL     1     -39.765  52.875 -51.444  1.00  0.00     0.038 A 
HETATM   11  C   UNL     1     -39.397  51.748 -52.178  1.00  0.00     0.022 A 
HETATM   12  C   UNL     1     -39.999  51.496 -53.409  1.00  0.00     0.011 A 
HETATM   13 BR   UNL     1     -39.509  49.964 -54.399  1.00  0.00    -0.051 Br
HETATM   14  C   UNL     1     -40.967  52.363 -53.917  1.00  0.00     0.030 A 
BRANCH   9  15
HETATM   15  O   UNL     1     -41.134  54.832 -51.230  1.00  0.00    -0.360 OA
HETATM   16  H   UNL     1     -40.347  55.167 -50.748  1.00  0.00     0.217 HD
ENDBRANCH   9  15
ENDBRANCH   7   8
ENDBRANCH   3   7
BRANCH   1  17
HETATM   17  C   UNL     1     -42.090  59.048 -55.310  1.00  0.00     0.100 C 
BRANCH  17  18
HETATM   18  N   UNL     1     -41.213  59.414 -54.202  1.00  0.00    -0.279 NA
HETATM   19  H   UNL     1     -40.434  60.010 -54.498  1.00  0.00     0.129 HD
BRANCH  18  20
HETATM   20  C   UNL     1     -41.692  59.873 -52.974  1.00  0.00     0.079 A 
HETATM   21  C   UNL     1     -42.690  60.859 -52.952  1.00  0.00     0.042 A 
HETATM   22  C   UNL     1     -43.160  61.363 -51.741  1.00  0.00     0.005 A 
HETATM   23  C   UNL     1     -42.614  60.900 -50.554  1.00  0.00     0.017 A 
HETATM   24  C   UNL     1     -41.602  59.954 -50.610  1.00  0.00     0.089 A 
HETATM   25  N   UNL     1     -41.174  59.486 -51.795  1.00  0.00    -0.357 N 
HETATM   26  H   UNL     1     -40.413  58.819 -51.792  1.00  0.00     0.166 HD
ENDBRANCH  18  20
ENDBRANCH  17  18
ENDBRANCH   1  17
TORSDOF 6
ENDMDL
MODEL 8
REMARK VINA RESULT:      -6.8      2.028      2.700
REMARK  6 active torsions:
REMARK  status: ('A' for Active; 'I' for Inactive)
REMARK    1  A    between atoms: C_3  and  N_4 
REMARK    2  A    between atoms: N_4  and  C_5 
REMARK    3  A    between atoms: C_5  and  C_6 
REMARK    4  A    between atoms: N_8  and  C_10 
REMARK    5  A    between atoms: C_10  and  C_11 
REMARK    6  A    between atoms: C_12  and  O_13 
ROOT
HETATM    1  C   UNL     1     -43.947  58.158 -55.807  1.00  0.00     0.026 C 
HETATM    2  C   UNL     1     -43.142  56.874 -55.974  1.00  0.00     0.241 C 
HETATM    3  N   UNL     1     -43.015  56.338 -54.568  1.00  0.00    -0.067 N 
HETATM    4  H   UNL     1     -43.223  55.321 -54.588  1.00  0.00     0.280 HD
HETATM    5  C   UNL     1     -44.048  57.024 -53.707  1.00  0.00     0.235 C 
HETATM    6  C   UNL     1     -44.924  57.773 -54.699  1.00  0.00     0.035 C 
ENDROOT
BRANCH   3   7
HETATM    7  C   UNL     1     -41.621  56.379 -53.987  1.00  0.00     0.276 C 
BRANCH   7   8
HETATM    8  C   UNL     1     -41.081  55.017 -53.646  1.00  0.00     0.002 A 
HETATM    9  C   UNL     1     -40.675  54.124 -54.647  1.00  0.00     0.073 A 
HETATM   10  C   UNL     1     -40.201  52.851 -54.337  1.00  0.00     0.038 A 
HETATM   11  C   UNL     1     -40.126  52.452 -53.003  1.00  0.00     0.022 A 
HETATM   12  C   UNL     1     -40.530  53.326 -51.995  1.00  0.00     0.011 A 
HETATM   13 BR   UNL     1     -40.419  52.791 -50.187  1.00  0.00    -0.051 Br
HETATM   14  C   UNL     1     -41.012  54.598 -52.308  1.00  0.00     0.030 A 
BRANCH   9  15
HETATM   15  O   UNL     1     -40.729  54.545 -55.950  1.00  0.00    -0.360 OA
HETATM   16  H   UNL     1     -39.924  55.079 -56.120  1.00  0.00     0.217 HD
ENDBRANCH   9  15
ENDBRANCH   7   8
ENDBRANCH   3   7
BRANCH   1  17
HETATM   17  C   UNL     1     -44.614  58.633 -57.105  1.00  0.00     0.100 C 
BRANCH  17  18
HETATM   18  N   UNL     1     -45.656  57.686 -57.490  1.00  0.00    -0.279 NA
HETATM   19  H   UNL     1     -46.599  58.051 -57.324  1.00  0.00     0.129 HD
BRANCH  18  20
HETATM   20  C   UNL     1     -45.646  56.997 -58.704  1.00  0.00     0.079 A 
HETATM   21  C   UNL     1     -46.777  57.050 -59.532  1.00  0.00     0.042 A 
HETATM   22  C   UNL     1     -46.810  56.342 -60.732  1.00  0.00     0.005 A 
HETATM   23  C   UNL     1     -45.721  55.561 -61.089  1.00  0.00     0.017 A 
HETATM   24  C   UNL     1     -44.635  55.498 -60.231  1.00  0.00     0.089 A 
HETATM   25  N   UNL     1     -44.635  56.197 -59.083  1.00  0.00    -0.357 N 
HETATM   26  H   UNL     1     -43.834  56.099 -58.471  1.00  0.00     0.166 HD
ENDBRANCH  18  20
ENDBRANCH  17  18
ENDBRANCH   1  17
TORSDOF 6
ENDMDL
MODEL 9
REMARK VINA RESULT:      -6.8      3.521      8.242
REMARK  6 active torsions:
REMARK  status: ('A' for Active; 'I' for Inactive)
REMARK    1  A    between atoms: C_3  and  N_4 
REMARK    2  A    between atoms: N_4  and  C_5 
REMARK    3  A    between atoms: C_5  and  C_6 
REMARK    4  A    between atoms: N_8  and  C_10 
REMARK    5  A    between atoms: C_10  and  C_11 
REMARK    6  A    between atoms: C_12  and  O_13 
ROOT
HETATM    1  C   UNL     1     -42.493  54.791 -54.337  1.00  0.00     0.026 C 
HETATM    2  C   UNL     1     -41.576  55.106 -55.513  1.00  0.00     0.241 C 
HETATM    3  N   UNL     1     -42.411  56.001 -56.396  1.00  0.00    -0.067 N 
HETATM    4  H   UNL     1     -41.824  56.804 -56.694  1.00  0.00     0.280 HD
HETATM    5  C   UNL     1     -43.566  56.528 -55.577  1.00  0.00     0.235 C 
HETATM    6  C   UNL     1     -43.232  56.114 -54.152  1.00  0.00     0.035 C 
ENDROOT
BRANCH   3   7
HETATM    7  C   UNL     1     -42.832  55.395 -57.715  1.00  0.00     0.276 C 
BRANCH   7   8
HETATM    8  C   UNL     1     -43.470  56.388 -58.647  1.00  0.00     0.002 A 
HETATM    9  C   UNL     1     -42.817  57.579 -58.996  1.00  0.00     0.073 A 
HETATM   10  C   UNL     1     -43.415  58.515 -59.837  1.00  0.00     0.038 A 
HETATM   11  C   UNL     1     -44.689  58.266 -60.346  1.00  0.00     0.022 A 
HETATM   12  C   UNL     1     -45.353  57.089 -60.007  1.00  0.00     0.011 A 
HETATM   13 BR   UNL     1     -47.074  56.745 -60.704  1.00  0.00    -0.051 Br
HETATM   14  C   UNL     1     -44.756  56.156 -59.157  1.00  0.00     0.030 A 
BRANCH   9  15
HETATM   15  O   UNL     1     -41.555  57.792 -58.508  1.00  0.00    -0.360 OA
HETATM   16  H   UNL     1     -40.951  57.867 -59.278  1.00  0.00     0.217 HD
ENDBRANCH   9  15
ENDBRANCH   7   8
ENDBRANCH   3   7
BRANCH   1  17
HETATM   17  C   UNL     1     -41.741  54.305 -53.090  1.00  0.00     0.100 C 
BRANCH  17  18
HETATM   18  N   UNL     1     -40.486  53.677 -53.495  1.00  0.00    -0.279 NA
HETATM   19  H   UNL     1     -39.665  54.202 -53.179  1.00  0.00     0.129 HD
BRANCH  18  20
HETATM   20  C   UNL     1     -40.236  52.313 -53.344  1.00  0.00     0.079 A 
HETATM   21  C   UNL     1     -39.755  51.835 -52.115  1.00  0.00     0.042 A 
HETATM   22  C   UNL     1     -39.462  50.484 -51.947  1.00  0.00     0.005 A 
HETATM   23  C   UNL     1     -39.625  49.615 -53.016  1.00  0.00     0.017 A 
HETATM   24  C   UNL     1     -40.064  50.123 -54.227  1.00  0.00     0.089 A 
HETATM   25  N   UNL     1     -40.342  51.433 -54.354  1.00  0.00    -0.357 N 
HETATM   26  H   UNL     1     -40.631  51.767 -55.265  1.00  0.00     0.166 HD
ENDBRANCH  18  20
ENDBRANCH  17  18
ENDBRANCH   1  17
TORSDOF 6
ENDMDL
MODEL 10
REMARK VINA RESULT:      -6.7      4.604      5.966
REMARK  6 active torsions:
REMARK  status: ('A' for Active; 'I' for Inactive)
REMARK    1  A    between atoms: C_3  and  N_4 
REMARK    2  A    between atoms: N_4  and  C_5 
REMARK    3  A    between atoms: C_5  and  C_6 
REMARK    4  A    between atoms: N_8  and  C_10 
REMARK    5  A    between atoms: C_10  and  C_11 
REMARK    6  A    between atoms: C_12  and  O_13 
ROOT
HETATM    1  C   UNL     1     -43.334  56.530 -51.505  1.00  0.00     0.026 C 
HETATM    2  C   UNL     1     -42.670  55.671 -52.576  1.00  0.00     0.241 C 
HETATM    3  N   UNL     1     -42.294  54.404 -51.845  1.00  0.00    -0.067 N 
HETATM    4  H   UNL     1     -42.570  53.595 -52.434  1.00  0.00     0.280 HD
HETATM    5  C   UNL     1     -43.080  54.352 -50.557  1.00  0.00     0.235 C 
HETATM    6  C   UNL     1     -44.088  55.483 -50.688  1.00  0.00     0.035 C 
ENDROOT
BRANCH   3   7
HETATM    7  C   UNL     1     -40.811  54.184 -51.658  1.00  0.00     0.276 C 
BRANCH   7   8
HETATM    8  C   UNL     1     -40.416  52.734 -51.707  1.00  0.00     0.002 A 
HETATM    9  C   UNL     1     -40.210  51.997 -50.533  1.00  0.00     0.073 A 
HETATM   10  C   UNL     1     -39.817  50.661 -50.573  1.00  0.00     0.038 A 
HETATM   11  C   UNL     1     -39.625  50.039 -51.807  1.00  0.00     0.022 A 
HETATM   12  C   UNL     1     -39.822  50.758 -52.984  1.00  0.00     0.011 A 
HETATM   13 BR   UNL     1     -39.573  49.913 -54.655  1.00  0.00    -0.051 Br
HETATM   14  C   UNL     1     -40.208  52.099 -52.941  1.00  0.00     0.030 A 
BRANCH   9  15
HETATM   15  O   UNL     1     -40.431  52.618 -49.332  1.00  0.00    -0.360 OA
HETATM   16  H   UNL     1     -40.821  51.953 -48.725  1.00  0.00     0.217 HD
ENDBRANCH   9  15
ENDBRANCH   7   8
ENDBRANCH   3   7
BRANCH   1  17
HETATM   17  C   UNL     1     -44.219  57.644 -52.080  1.00  0.00     0.100 C 
BRANCH  17  18
HETATM   18  N   UNL     1     -43.387  58.794 -52.425  1.00  0.00    -0.279 NA
HETATM   19  H   UNL     1     -43.927  59.662 -52.495  1.00  0.00     0.129 HD
BRANCH  18  20
HETATM   20  C   UNL     1     -42.171  59.067 -51.797  1.00  0.00     0.079 A 
HETATM   21  C   UNL     1     -40.976  58.891 -52.511  1.00  0.00     0.042 A 
HETATM   22  C   UNL     1     -39.746  59.120 -51.898  1.00  0.00     0.005 A 
HETATM   23  C   UNL     1     -39.711  59.500 -50.565  1.00  0.00     0.017 A 
HETATM   24  C   UNL     1     -40.907  59.627 -49.876  1.00  0.00     0.089 A 
HETATM   25  N   UNL     1     -42.077  59.402 -50.499  1.00  0.00    -0.357 N 
HETATM   26  H   UNL     1     -42.925  59.477 -49.951  1.00  0.00     0.166 HD
ENDBRANCH  18  20
ENDBRANCH  17  18
ENDBRANCH   1  17
TORSDOF 6
ENDMDL
