MODEL 1
REMARK VINA RESULT:      -8.5      0.000      0.000
REMARK  2 active torsions:
REMARK  status: ('A' for Active; 'I' for Inactive)
REMARK    1  A    between atoms: O_2  and  C_3 
REMARK    2  A    between atoms: C_7  and  N_8 
REMARK       I    between atoms: N_8  and  C_9 
REMARK       I    between atoms: C_9  and  N_10 
ROOT
HETATM    1  N   UNL     1     -41.475  54.821 -54.042  1.00  0.00    -0.309 N 
HETATM    2  C   UNL     1     -42.714  55.346 -53.754  1.00  0.00     0.323 C 
HETATM    3  N   UNL     1     -43.061  56.479 -54.482  1.00  0.00    -0.328 N 
HETATM    4  C   UNL     1     -44.437  56.970 -54.319  1.00  0.00     0.185 C 
HETATM    5  C   UNL     1     -44.883  57.542 -55.621  1.00  0.00     0.035 A 
HETATM    6  C   UNL     1     -44.093  57.825 -56.718  1.00  0.00    -0.020 A 
HETATM    7  C   UNL     1     -42.628  57.556 -56.701  1.00  0.00     0.061 C 
HETATM    8  C   UNL     1     -42.154  57.370 -55.243  1.00  0.00     0.132 C 
HETATM    9  N   UNL     1     -46.174  57.867 -55.929  1.00  0.00    -0.357 N 
HETATM   10  H   UNL     1     -46.972  57.758 -55.318  1.00  0.00     0.166 HD
HETATM   11  C   UNL     1     -46.237  58.351 -57.219  1.00  0.00     0.043 A 
HETATM   12  C   UNL     1     -44.939  58.332 -57.740  1.00  0.00    -0.001 A 
HETATM   13  C   UNL     1     -47.340  58.791 -57.960  1.00  0.00     0.030 A 
HETATM   14  C   UNL     1     -47.112  59.221 -59.271  1.00  0.00     0.002 A 
HETATM   15  C   UNL     1     -45.831  59.210 -59.816  1.00  0.00     0.001 A 
HETATM   16  C   UNL     1     -44.736  58.769 -59.063  1.00  0.00     0.014 A 
HETATM   17  O   UNL     1     -43.495  54.862 -52.937  1.00  0.00    -0.247 OA
HETATM   18  H   UNL     1     -41.001  55.210 -54.837  1.00  0.00     0.170 HD
ENDROOT
BRANCH   1  19
HETATM   19  C   UNL     1     -40.869  53.673 -53.484  1.00  0.00     0.038 A 
HETATM   20  C   UNL     1     -40.612  52.495 -54.187  1.00  0.00     0.056 A 
HETATM   21  C   UNL     1     -39.971  51.420 -53.560  1.00  0.00     0.069 A 
HETATM   22  C   UNL     1     -39.574  51.509 -52.220  1.00  0.00     0.090 A 
HETATM   23 CL   UNL     1     -39.654  49.997 -54.491  1.00  0.00    -0.081 Cl
HETATM   24  C   UNL     1     -39.867  52.670 -51.502  1.00  0.00     0.041 A 
HETATM   25  C   UNL     1     -40.501  53.745 -52.134  1.00  0.00     0.032 A 
BRANCH  22  26
HETATM   26  O   UNL     1     -38.965  50.424 -51.646  1.00  0.00    -0.354 OA
HETATM   27  C   UNL     1     -39.770  49.741 -50.688  1.00  0.00     0.210 C 
ENDBRANCH  22  26
ENDBRANCH   1  19
TORSDOF 2
ENDMDL
MODEL 2
REMARK VINA RESULT:      -8.3      2.823      3.752
REMARK  2 active torsions:
REMARK  status: ('A' for Active; 'I' for Inactive)
REMARK    1  A    between atoms: O_2  and  C_3 
REMARK    2  A    between atoms: C_7  and  N_8 
REMARK       I    between atoms: N_8  and  C_9 
REMARK       I    between atoms: C_9  and  N_10 
ROOT
HETATM    1  N   UNL     1     -42.721  55.060 -56.553  1.00  0.00    -0.309 N 
HETATM    2  C   UNL     1     -42.890  56.366 -56.955  1.00  0.00     0.323 C 
HETATM    3  N   UNL     1     -43.434  56.529 -58.225  1.00  0.00    -0.328 N 
HETATM    4  C   UNL     1     -43.780  57.902 -58.621  1.00  0.00     0.185 C 
HETATM    5  C   UNL     1     -44.989  57.843 -59.490  1.00  0.00     0.035 A 
HETATM    6  C   UNL     1     -45.548  56.716 -60.061  1.00  0.00    -0.020 A 
HETATM    7  C   UNL     1     -44.958  55.367 -59.837  1.00  0.00     0.061 C 
HETATM    8  C   UNL     1     -43.517  55.516 -59.304  1.00  0.00     0.132 C 
HETATM    9  N   UNL     1     -45.747  58.923 -59.847  1.00  0.00    -0.357 N 
HETATM   10  H   UNL     1     -45.580  59.880 -59.566  1.00  0.00     0.166 HD
HETATM   11  C   UNL     1     -46.799  58.513 -60.638  1.00  0.00     0.043 A 
HETATM   12  C   UNL     1     -46.699  57.126 -60.786  1.00  0.00    -0.001 A 
HETATM   13  C   UNL     1     -47.830  59.260 -61.220  1.00  0.00     0.030 A 
HETATM   14  C   UNL     1     -48.787  58.572 -61.971  1.00  0.00     0.002 A 
HETATM   15  C   UNL     1     -48.713  57.191 -62.134  1.00  0.00     0.001 A 
HETATM   16  C   UNL     1     -47.676  56.456 -61.547  1.00  0.00     0.014 A 
HETATM   17  O   UNL     1     -42.617  57.342 -56.260  1.00  0.00    -0.247 OA
HETATM   18  H   UNL     1     -43.129  54.358 -57.143  1.00  0.00     0.170 HD
ENDROOT
BRANCH   1  19
HETATM   19  C   UNL     1     -42.218  54.591 -55.320  1.00  0.00     0.038 A 
HETATM   20  C   UNL     1     -42.962  54.514 -54.141  1.00  0.00     0.056 A 
HETATM   21  C   UNL     1     -42.389  54.000 -52.972  1.00  0.00     0.069 A 
HETATM   22  C   UNL     1     -41.062  53.550 -52.966  1.00  0.00     0.090 A 
HETATM   23 CL   UNL     1     -43.370  53.902 -51.551  1.00  0.00    -0.081 Cl
HETATM   24  C   UNL     1     -40.303  53.664 -54.132  1.00  0.00     0.041 A 
HETATM   25  C   UNL     1     -40.881  54.173 -55.300  1.00  0.00     0.032 A 
BRANCH  22  26
HETATM   26  O   UNL     1     -40.541  53.070 -51.793  1.00  0.00    -0.354 OA
HETATM   27  C   UNL     1     -39.739  51.902 -51.945  1.00  0.00     0.210 C 
ENDBRANCH  22  26
ENDBRANCH   1  19
TORSDOF 2
ENDMDL
MODEL 3
REMARK VINA RESULT:      -7.9      4.171      5.782
REMARK  2 active torsions:
REMARK  status: ('A' for Active; 'I' for Inactive)
REMARK    1  A    between atoms: O_2  and  C_3 
REMARK    2  A    between atoms: C_7  and  N_8 
REMARK       I    between atoms: N_8  and  C_9 
REMARK       I    between atoms: C_9  and  N_10 
ROOT
HETATM    1  N   UNL     1     -42.170  55.564 -52.854  1.00  0.00    -0.309 N 
HETATM    2  C   UNL     1     -41.822  56.868 -53.120  1.00  0.00     0.323 C 
HETATM    3  N   UNL     1     -42.790  57.816 -52.806  1.00  0.00    -0.328 N 
HETATM    4  C   UNL     1     -42.393  59.227 -52.924  1.00  0.00     0.185 C 
HETATM    5  C   UNL     1     -43.102  59.998 -51.864  1.00  0.00     0.035 A 
HETATM    6  C   UNL     1     -44.149  59.560 -51.077  1.00  0.00    -0.020 A 
HETATM    7  C   UNL     1     -44.692  58.180 -51.218  1.00  0.00     0.061 C 
HETATM    8  C   UNL     1     -44.233  57.580 -52.564  1.00  0.00     0.132 C 
HETATM    9  N   UNL     1     -42.804  61.282 -51.502  1.00  0.00    -0.357 N 
HETATM   10  H   UNL     1     -42.074  61.854 -51.904  1.00  0.00     0.166 HD
HETATM   11  C   UNL     1     -43.638  61.683 -50.480  1.00  0.00     0.043 A 
HETATM   12  C   UNL     1     -44.493  60.615 -50.190  1.00  0.00    -0.001 A 
HETATM   13  C   UNL     1     -43.691  62.900 -49.789  1.00  0.00     0.030 A 
HETATM   14  C   UNL     1     -44.641  63.028 -48.772  1.00  0.00     0.002 A 
HETATM   15  C   UNL     1     -45.504  61.980 -48.461  1.00  0.00     0.001 A 
HETATM   16  C   UNL     1     -45.441  60.770 -49.161  1.00  0.00     0.014 A 
HETATM   17  O   UNL     1     -40.735  57.212 -53.579  1.00  0.00    -0.247 OA
HETATM   18  H   UNL     1     -43.018  55.428 -52.334  1.00  0.00     0.170 HD
ENDROOT
BRANCH   1  19
HETATM   19  C   UNL     1     -41.390  54.402 -53.045  1.00  0.00     0.038 A 
HETATM   20  C   UNL     1     -40.970  53.554 -52.018  1.00  0.00     0.056 A 
HETATM   21  C   UNL     1     -40.230  52.402 -52.308  1.00  0.00     0.069 A 
HETATM   22  C   UNL     1     -39.902  52.078 -53.631  1.00  0.00     0.090 A 
HETATM   23 CL   UNL     1     -39.764  51.375 -50.997  1.00  0.00    -0.081 Cl
HETATM   24  C   UNL     1     -40.284  52.945 -54.656  1.00  0.00     0.041 A 
HETATM   25  C   UNL     1     -41.030  54.092 -54.363  1.00  0.00     0.032 A 
BRANCH  22  26
HETATM   26  O   UNL     1     -39.162  50.948 -53.861  1.00  0.00    -0.354 OA
HETATM   27  C   UNL     1     -39.909  49.859 -54.398  1.00  0.00     0.210 C 
ENDBRANCH  22  26
ENDBRANCH   1  19
TORSDOF 2
ENDMDL
MODEL 4
REMARK VINA RESULT:      -7.8      4.189      9.217
REMARK  2 active torsions:
REMARK  status: ('A' for Active; 'I' for Inactive)
REMARK    1  A    between atoms: O_2  and  C_3 
REMARK    2  A    between atoms: C_7  and  N_8 
REMARK       I    between atoms: N_8  and  C_9 
REMARK       I    between atoms: C_9  and  N_10 
ROOT
HETATM    1  N   UNL     1     -42.194  57.605 -57.537  1.00  0.00    -0.309 N 
HETATM    2  C   UNL     1     -42.861  57.566 -56.334  1.00  0.00     0.323 C 
HETATM    3  N   UNL     1     -42.816  56.344 -55.671  1.00  0.00    -0.328 N 
HETATM    4  C   UNL     1     -43.376  56.313 -54.312  1.00  0.00     0.185 C 
HETATM    5  C   UNL     1     -42.579  55.347 -53.504  1.00  0.00     0.035 A 
HETATM    6  C   UNL     1     -41.657  54.433 -53.974  1.00  0.00    -0.020 A 
HETATM    7  C   UNL     1     -41.347  54.331 -55.428  1.00  0.00     0.061 C 
HETATM    8  C   UNL     1     -42.461  55.024 -56.243  1.00  0.00     0.132 C 
HETATM    9  N   UNL     1     -42.639  55.231 -52.144  1.00  0.00    -0.357 N 
HETATM   10  H   UNL     1     -43.224  55.781 -51.530  1.00  0.00     0.166 HD
HETATM   11  C   UNL     1     -41.760  54.257 -51.720  1.00  0.00     0.043 A 
HETATM   12  C   UNL     1     -41.125  53.740 -52.854  1.00  0.00    -0.001 A 
HETATM   13  C   UNL     1     -41.474  53.807 -50.425  1.00  0.00     0.030 A 
HETATM   14  C   UNL     1     -40.511  52.803 -50.284  1.00  0.00     0.002 A 
HETATM   15  C   UNL     1     -39.862  52.272 -51.396  1.00  0.00     0.001 A 
HETATM   16  C   UNL     1     -40.158  52.731 -52.685  1.00  0.00     0.014 A 
HETATM   17  O   UNL     1     -43.442  58.528 -55.837  1.00  0.00    -0.247 OA
HETATM   18  H   UNL     1     -41.626  56.806 -57.756  1.00  0.00     0.170 HD
ENDROOT
BRANCH   1  19
HETATM   19  C   UNL     1     -42.048  58.703 -58.413  1.00  0.00     0.038 A 
HETATM   20  C   UNL     1     -41.576  59.960 -58.032  1.00  0.00     0.056 A 
HETATM   21  C   UNL     1     -41.430  60.980 -58.980  1.00  0.00     0.069 A 
HETATM   22  C   UNL     1     -41.750  60.756 -60.325  1.00  0.00     0.090 A 
HETATM   23 CL   UNL     1     -40.812  62.507 -58.453  1.00  0.00    -0.081 Cl
HETATM   24  C   UNL     1     -42.262  59.513 -60.701  1.00  0.00     0.041 A 
HETATM   25  C   UNL     1     -42.400  58.494 -59.753  1.00  0.00     0.032 A 
BRANCH  22  26
HETATM   26  O   UNL     1     -41.606  61.790 -61.212  1.00  0.00    -0.354 OA
HETATM   27  C   UNL     1     -42.825  62.446 -61.549  1.00  0.00     0.210 C 
ENDBRANCH  22  26
ENDBRANCH   1  19
TORSDOF 2
ENDMDL
MODEL 5
REMARK VINA RESULT:      -7.8      4.470      9.277
REMARK  2 active torsions:
REMARK  status: ('A' for Active; 'I' for Inactive)
REMARK    1  A    between atoms: O_2  and  C_3 
REMARK    2  A    between atoms: C_7  and  N_8 
REMARK       I    between atoms: N_8  and  C_9 
REMARK       I    between atoms: C_9  and  N_10 
ROOT
HETATM    1  N   UNL     1     -43.058  57.534 -52.257  1.00  0.00    -0.309 N 
HETATM    2  C   UNL     1     -42.454  56.897 -53.317  1.00  0.00     0.323 C 
HETATM    3  N   UNL     1     -41.456  55.992 -52.973  1.00  0.00    -0.328 N 
HETATM    4  C   UNL     1     -40.904  55.176 -54.065  1.00  0.00     0.185 C 
HETATM    5  C   UNL     1     -40.555  53.837 -53.511  1.00  0.00     0.035 A 
HETATM    6  C   UNL     1     -40.490  53.480 -52.179  1.00  0.00    -0.020 A 
HETATM    7  C   UNL     1     -40.795  54.464 -51.103  1.00  0.00     0.061 C 
HETATM    8  C   UNL     1     -40.738  55.894 -51.680  1.00  0.00     0.132 C 
HETATM    9  N   UNL     1     -40.250  52.737 -54.264  1.00  0.00    -0.357 N 
HETATM   10  H   UNL     1     -40.228  52.701 -55.274  1.00  0.00     0.166 HD
HETATM   11  C   UNL     1     -39.997  51.663 -53.437  1.00  0.00     0.043 A 
HETATM   12  C   UNL     1     -40.145  52.103 -52.118  1.00  0.00    -0.001 A 
HETATM   13  C   UNL     1     -39.660  50.343 -53.758  1.00  0.00     0.030 A 
HETATM   14  C   UNL     1     -39.473  49.445 -52.702  1.00  0.00     0.002 A 
HETATM   15  C   UNL     1     -39.616  49.855 -51.379  1.00  0.00     0.001 A 
HETATM   16  C   UNL     1     -39.951  51.180 -51.073  1.00  0.00     0.014 A 
HETATM   17  O   UNL     1     -42.766  57.071 -54.493  1.00  0.00    -0.247 OA
HETATM   18  H   UNL     1     -42.828  57.190 -51.342  1.00  0.00     0.170 HD
ENDROOT
BRANCH   1  19
HETATM   19  C   UNL     1     -44.108  58.478 -52.296  1.00  0.00     0.038 A 
HETATM   20  C   UNL     1     -44.364  59.331 -53.371  1.00  0.00     0.056 A 
HETATM   21  C   UNL     1     -45.453  60.211 -53.335  1.00  0.00     0.069 A 
HETATM   22  C   UNL     1     -46.305  60.246 -52.224  1.00  0.00     0.090 A 
HETATM   23 CL   UNL     1     -45.735  61.222 -54.709  1.00  0.00    -0.081 Cl
HETATM   24  C   UNL     1     -46.028  59.425 -51.131  1.00  0.00     0.041 A 
HETATM   25  C   UNL     1     -44.943  58.542 -51.173  1.00  0.00     0.032 A 
BRANCH  22  26
HETATM   26  O   UNL     1     -47.347  61.136 -52.230  1.00  0.00    -0.354 OA
HETATM   27  C   UNL     1     -47.076  62.359 -51.550  1.00  0.00     0.210 C 
ENDBRANCH  22  26
ENDBRANCH   1  19
TORSDOF 2
ENDMDL
MODEL 6
REMARK VINA RESULT:      -7.8      3.816      8.949
REMARK  2 active torsions:
REMARK  status: ('A' for Active; 'I' for Inactive)
REMARK    1  A    between atoms: O_2  and  C_3 
REMARK    2  A    between atoms: C_7  and  N_8 
REMARK       I    between atoms: N_8  and  C_9 
REMARK       I    between atoms: C_9  and  N_10 
ROOT
HETATM    1  N   UNL     1     -43.610  56.618 -56.558  1.00  0.00    -0.309 N 
HETATM    2  C   UNL     1     -43.871  57.098 -55.294  1.00  0.00     0.323 C 
HETATM    3  N   UNL     1     -43.783  56.157 -54.274  1.00  0.00    -0.328 N 
HETATM    4  C   UNL     1     -43.895  56.666 -52.899  1.00  0.00     0.185 C 
HETATM    5  C   UNL     1     -43.019  55.835 -52.025  1.00  0.00     0.035 A 
HETATM    6  C   UNL     1     -42.414  54.638 -52.352  1.00  0.00    -0.020 A 
HETATM    7  C   UNL     1     -42.585  54.034 -53.703  1.00  0.00     0.061 C 
HETATM    8  C   UNL     1     -43.795  54.681 -54.409  1.00  0.00     0.132 C 
HETATM    9  N   UNL     1     -42.671  56.153 -50.742  1.00  0.00    -0.357 N 
HETATM   10  H   UNL     1     -42.961  56.981 -50.239  1.00  0.00     0.166 HD
HETATM   11  C   UNL     1     -41.837  55.181 -50.231  1.00  0.00     0.043 A 
HETATM   12  C   UNL     1     -41.656  54.216 -51.227  1.00  0.00    -0.001 A 
HETATM   13  C   UNL     1     -41.227  55.091 -48.975  1.00  0.00     0.030 A 
HETATM   14  C   UNL     1     -40.406  53.986 -48.729  1.00  0.00     0.002 A 
HETATM   15  C   UNL     1     -40.206  53.011 -49.703  1.00  0.00     0.001 A 
HETATM   16  C   UNL     1     -40.824  53.113 -50.955  1.00  0.00     0.014 A 
HETATM   17  O   UNL     1     -44.141  58.270 -55.045  1.00  0.00    -0.247 OA
HETATM   18  H   UNL     1     -43.246  55.684 -56.612  1.00  0.00     0.170 HD
ENDROOT
BRANCH   1  19
HETATM   19  C   UNL     1     -43.601  57.337 -57.774  1.00  0.00     0.038 A 
HETATM   20  C   UNL     1     -44.743  57.664 -58.506  1.00  0.00     0.056 A 
HETATM   21  C   UNL     1     -44.640  58.414 -59.684  1.00  0.00     0.069 A 
HETATM   22  C   UNL     1     -43.392  58.850 -60.145  1.00  0.00     0.090 A 
HETATM   23 CL   UNL     1     -46.094  58.813 -60.532  1.00  0.00    -0.081 Cl
HETATM   24  C   UNL     1     -42.244  58.489 -59.438  1.00  0.00     0.041 A 
HETATM   25  C   UNL     1     -42.351  57.747 -58.257  1.00  0.00     0.032 A 
BRANCH  22  26
HETATM   26  O   UNL     1     -43.342  59.567 -61.312  1.00  0.00    -0.354 OA
HETATM   27  C   UNL     1     -42.162  60.352 -61.466  1.00  0.00     0.210 C 
ENDBRANCH  22  26
ENDBRANCH   1  19
TORSDOF 2
ENDMDL
MODEL 7
REMARK VINA RESULT:      -7.8      2.187      2.791
REMARK  2 active torsions:
REMARK  status: ('A' for Active; 'I' for Inactive)
REMARK    1  A    between atoms: O_2  and  C_3 
REMARK    2  A    between atoms: C_7  and  N_8 
REMARK       I    between atoms: N_8  and  C_9 
REMARK       I    between atoms: C_9  and  N_10 
ROOT
HETATM    1  N   UNL     1     -41.369  55.006 -54.047  1.00  0.00    -0.309 N 
HETATM    2  C   UNL     1     -42.144  55.071 -55.183  1.00  0.00     0.323 C 
HETATM    3  N   UNL     1     -42.526  56.352 -55.566  1.00  0.00    -0.328 N 
HETATM    4  C   UNL     1     -43.214  56.474 -56.860  1.00  0.00     0.185 C 
HETATM    5  C   UNL     1     -42.822  57.774 -57.473  1.00  0.00     0.035 A 
HETATM    6  C   UNL     1     -42.159  58.817 -56.857  1.00  0.00    -0.020 A 
HETATM    7  C   UNL     1     -41.738  58.725 -55.431  1.00  0.00     0.061 C 
HETATM    8  C   UNL     1     -42.508  57.581 -54.738  1.00  0.00     0.132 C 
HETATM    9  N   UNL     1     -43.059  58.127 -58.772  1.00  0.00    -0.357 N 
HETATM   10  H   UNL     1     -43.522  57.554 -59.464  1.00  0.00     0.166 HD
HETATM   11  C   UNL     1     -42.549  59.385 -59.013  1.00  0.00     0.043 A 
HETATM   12  C   UNL     1     -41.973  59.841 -57.822  1.00  0.00    -0.001 A 
HETATM   13  C   UNL     1     -42.547  60.143 -60.190  1.00  0.00     0.030 A 
HETATM   14  C   UNL     1     -41.937  61.401 -60.152  1.00  0.00     0.002 A 
HETATM   15  C   UNL     1     -41.353  61.879 -58.981  1.00  0.00     0.001 A 
HETATM   16  C   UNL     1     -41.364  61.111 -57.811  1.00  0.00     0.014 A 
HETATM   17  O   UNL     1     -42.472  54.093 -55.850  1.00  0.00    -0.247 OA
HETATM   18  H   UNL     1     -41.037  55.881 -53.685  1.00  0.00     0.170 HD
ENDROOT
BRANCH   1  19
HETATM   19  C   UNL     1     -40.819  53.857 -53.437  1.00  0.00     0.038 A 
HETATM   20  C   UNL     1     -40.478  52.687 -54.119  1.00  0.00     0.056 A 
HETATM   21  C   UNL     1     -39.902  51.610 -53.435  1.00  0.00     0.069 A 
HETATM   22  C   UNL     1     -39.655  51.688 -52.059  1.00  0.00     0.090 A 
HETATM   23 CL   UNL     1     -39.474  50.199 -54.340  1.00  0.00    -0.081 Cl
HETATM   24  C   UNL     1     -40.033  52.840 -51.367  1.00  0.00     0.041 A 
HETATM   25  C   UNL     1     -40.602  53.917 -52.055  1.00  0.00     0.032 A 
BRANCH  22  26
HETATM   26  O   UNL     1     -39.104  50.601 -51.432  1.00  0.00    -0.354 OA
HETATM   27  C   UNL     1     -40.010  49.890 -50.593  1.00  0.00     0.210 C 
ENDBRANCH  22  26
ENDBRANCH   1  19
TORSDOF 2
ENDMDL
MODEL 8
REMARK VINA RESULT:      -7.7      3.241      4.141
REMARK  2 active torsions:
REMARK  status: ('A' for Active; 'I' for Inactive)
REMARK    1  A    between atoms: O_2  and  C_3 
REMARK    2  A    between atoms: C_7  and  N_8 
REMARK       I    between atoms: N_8  and  C_9 
REMARK       I    between atoms: C_9  and  N_10 
ROOT
HETATM    1  N   UNL     1     -41.823  56.383 -55.416  1.00  0.00    -0.309 N 
HETATM    2  C   UNL     1     -42.552  56.377 -56.583  1.00  0.00     0.323 C 
HETATM    3  N   UNL     1     -42.793  57.630 -57.137  1.00  0.00    -0.328 N 
HETATM    4  C   UNL     1     -43.425  57.651 -58.465  1.00  0.00     0.185 C 
HETATM    5  C   UNL     1     -42.886  58.820 -59.216  1.00  0.00     0.035 A 
HETATM    6  C   UNL     1     -42.141  59.864 -58.705  1.00  0.00    -0.020 A 
HETATM    7  C   UNL     1     -41.775  59.914 -57.262  1.00  0.00     0.061 C 
HETATM    8  C   UNL     1     -42.677  58.946 -56.467  1.00  0.00     0.132 C 
HETATM    9  N   UNL     1     -43.047  59.026 -60.558  1.00  0.00    -0.357 N 
HETATM   10  H   UNL     1     -43.543  58.417 -61.193  1.00  0.00     0.166 HD
HETATM   11  C   UNL     1     -42.406  60.189 -60.930  1.00  0.00     0.043 A 
HETATM   12  C   UNL     1     -41.824  60.736 -59.781  1.00  0.00    -0.001 A 
HETATM   13  C   UNL     1     -42.292  60.788 -62.190  1.00  0.00     0.030 A 
HETATM   14  C   UNL     1     -41.560  61.976 -62.282  1.00  0.00     0.002 A 
HETATM   15  C   UNL     1     -40.968  62.541 -61.155  1.00  0.00     0.001 A 
HETATM   16  C   UNL     1     -41.092  61.932 -59.900  1.00  0.00     0.014 A 
HETATM   17  O   UNL     1     -42.956  55.358 -57.138  1.00  0.00    -0.247 OA
HETATM   18  H   UNL     1     -41.416  57.262 -55.151  1.00  0.00     0.170 HD
ENDROOT
BRANCH   1  19
HETATM   19  C   UNL     1     -41.410  55.273 -54.646  1.00  0.00     0.038 A 
HETATM   20  C   UNL     1     -41.800  55.038 -53.326  1.00  0.00     0.056 A 
HETATM   21  C   UNL     1     -41.368  53.889 -52.653  1.00  0.00     0.069 A 
HETATM   22  C   UNL     1     -40.542  52.956 -53.292  1.00  0.00     0.090 A 
HETATM   23 CL   UNL     1     -41.909  53.637 -51.030  1.00  0.00    -0.081 Cl
HETATM   24  C   UNL     1     -40.116  53.209 -54.597  1.00  0.00     0.041 A 
HETATM   25  C   UNL     1     -40.555  54.355 -55.269  1.00  0.00     0.032 A 
BRANCH  22  26
HETATM   26  O   UNL     1     -40.133  51.855 -52.586  1.00  0.00    -0.354 OA
HETATM   27  C   UNL     1     -39.584  50.815 -53.391  1.00  0.00     0.210 C 
ENDBRANCH  22  26
ENDBRANCH   1  19
TORSDOF 2
ENDMDL
MODEL 9
REMARK VINA RESULT:      -7.6      4.288      9.296
REMARK  2 active torsions:
REMARK  status: ('A' for Active; 'I' for Inactive)
REMARK    1  A    between atoms: O_2  and  C_3 
REMARK    2  A    between atoms: C_7  and  N_8 
REMARK       I    between atoms: N_8  and  C_9 
REMARK       I    between atoms: C_9  and  N_10 
ROOT
HETATM    1  N   UNL     1     -42.518  58.260 -55.996  1.00  0.00    -0.309 N 
HETATM    2  C   UNL     1     -42.237  57.953 -54.684  1.00  0.00     0.323 C 
HETATM    3  N   UNL     1     -42.396  56.615 -54.343  1.00  0.00    -0.328 N 
HETATM    4  C   UNL     1     -41.950  56.222 -52.998  1.00  0.00     0.185 C 
HETATM    5  C   UNL     1     -41.419  54.831 -53.073  1.00  0.00     0.035 A 
HETATM    6  C   UNL     1     -41.553  53.947 -54.125  1.00  0.00    -0.020 A 
HETATM    7  C   UNL     1     -42.280  54.333 -55.367  1.00  0.00     0.061 C 
HETATM    8  C   UNL     1     -43.148  55.580 -55.091  1.00  0.00     0.132 C 
HETATM    9  N   UNL     1     -40.694  54.219 -52.090  1.00  0.00    -0.357 N 
HETATM   10  H   UNL     1     -40.433  54.631 -51.205  1.00  0.00     0.166 HD
HETATM   11  C   UNL     1     -40.345  52.947 -52.493  1.00  0.00     0.043 A 
HETATM   12  C   UNL     1     -40.872  52.751 -53.773  1.00  0.00    -0.001 A 
HETATM   13  C   UNL     1     -39.600  51.966 -51.826  1.00  0.00     0.030 A 
HETATM   14  C   UNL     1     -39.383  50.754 -52.488  1.00  0.00     0.002 A 
HETATM   15  C   UNL     1     -39.894  50.533 -53.765  1.00  0.00     0.001 A 
HETATM   16  C   UNL     1     -40.639  51.521 -54.418  1.00  0.00     0.014 A 
HETATM   17  O   UNL     1     -41.846  58.771 -53.854  1.00  0.00    -0.247 OA
HETATM   18  H   UNL     1     -42.671  57.482 -56.612  1.00  0.00     0.170 HD
ENDROOT
BRANCH   1  19
HETATM   19  C   UNL     1     -42.425  59.519 -56.631  1.00  0.00     0.038 A 
HETATM   20  C   UNL     1     -43.015  60.690 -56.153  1.00  0.00     0.056 A 
HETATM   21  C   UNL     1     -42.837  61.902 -56.832  1.00  0.00     0.069 A 
HETATM   22  C   UNL     1     -42.064  61.960 -57.998  1.00  0.00     0.090 A 
HETATM   23 CL   UNL     1     -43.568  63.325 -56.174  1.00  0.00    -0.081 Cl
HETATM   24  C   UNL     1     -41.508  60.783 -58.502  1.00  0.00     0.041 A 
HETATM   25  C   UNL     1     -41.681  59.575 -57.817  1.00  0.00     0.032 A 
BRANCH  22  26
HETATM   26  O   UNL     1     -41.933  63.166 -58.635  1.00  0.00    -0.354 OA
HETATM   27  C   UNL     1     -41.635  63.063 -60.025  1.00  0.00     0.210 C 
ENDBRANCH  22  26
ENDBRANCH   1  19
TORSDOF 2
ENDMDL
MODEL 10
REMARK VINA RESULT:      -7.6      3.945      4.197
REMARK  2 active torsions:
REMARK  status: ('A' for Active; 'I' for Inactive)
REMARK    1  A    between atoms: O_2  and  C_3 
REMARK    2  A    between atoms: C_7  and  N_8 
REMARK       I    between atoms: N_8  and  C_9 
REMARK       I    between atoms: C_9  and  N_10 
ROOT
HETATM    1  N   UNL     1     -41.248  55.304 -51.973  1.00  0.00    -0.309 N 
HETATM    2  C   UNL     1     -42.552  55.668 -51.722  1.00  0.00     0.323 C 
HETATM    3  N   UNL     1     -42.749  57.019 -51.460  1.00  0.00    -0.328 N 
HETATM    4  C   UNL     1     -44.144  57.471 -51.350  1.00  0.00     0.185 C 
HETATM    5  C   UNL     1     -44.225  58.859 -51.886  1.00  0.00     0.035 A 
HETATM    6  C   UNL     1     -43.170  59.698 -52.185  1.00  0.00    -0.020 A 
HETATM    7  C   UNL     1     -41.760  59.256 -51.997  1.00  0.00     0.061 C 
HETATM    8  C   UNL     1     -41.725  58.019 -51.074  1.00  0.00     0.132 C 
HETATM    9  N   UNL     1     -45.388  59.516 -52.177  1.00  0.00    -0.357 N 
HETATM   10  H   UNL     1     -46.321  59.143 -52.066  1.00  0.00     0.166 HD
HETATM   11  C   UNL     1     -45.102  60.771 -52.672  1.00  0.00     0.043 A 
HETATM   12  C   UNL     1     -43.711  60.910 -52.691  1.00  0.00    -0.001 A 
HETATM   13  C   UNL     1     -45.966  61.782 -53.111  1.00  0.00     0.030 A 
HETATM   14  C   UNL     1     -45.394  62.966 -53.584  1.00  0.00     0.002 A 
HETATM   15  C   UNL     1     -44.011  63.131 -53.617  1.00  0.00     0.001 A 
HETATM   16  C   UNL     1     -43.159  62.112 -53.174  1.00  0.00     0.014 A 
HETATM   17  O   UNL     1     -43.502  54.889 -51.747  1.00  0.00    -0.247 OA
HETATM   18  H   UNL     1     -40.591  56.055 -52.082  1.00  0.00     0.170 HD
ENDROOT
BRANCH   1  19
HETATM   19  C   UNL     1     -40.752  54.020 -52.290  1.00  0.00     0.038 A 
HETATM   20  C   UNL     1     -40.506  53.015 -51.353  1.00  0.00     0.056 A 
HETATM   21  C   UNL     1     -40.048  51.758 -51.765  1.00  0.00     0.069 A 
HETATM   22  C   UNL     1     -39.833  51.487 -53.122  1.00  0.00     0.090 A 
HETATM   23 CL   UNL     1     -39.790  50.544 -50.561  1.00  0.00    -0.081 Cl
HETATM   24  C   UNL     1     -40.037  52.503 -54.057  1.00  0.00     0.041 A 
HETATM   25  C   UNL     1     -40.502  53.755 -53.642  1.00  0.00     0.032 A 
BRANCH  22  26
HETATM   26  O   UNL     1     -39.369  50.246 -53.474  1.00  0.00    -0.354 OA
HETATM   27  C   UNL     1     -39.848  49.778 -54.732  1.00  0.00     0.210 C 
ENDBRANCH  22  26
ENDBRANCH   1  19
TORSDOF 2
ENDMDL
