MODEL 1
REMARK VINA RESULT:      -7.7      0.000      0.000
REMARK  8 active torsions:
REMARK  status: ('A' for Active; 'I' for Inactive)
REMARK    1  A    between atoms: C_2  and  N_3 
REMARK    2  A    between atoms: C_2  and  C_23 
REMARK       I    between atoms: N_3  and  C_4 
REMARK    3  A    between atoms: N_3  and  C_16 
REMARK    4  A    between atoms: C_4  and  C_5 
REMARK    5  A    between atoms: C_5  and  N_6 
REMARK    6  A    between atoms: C_16  and  C_17 
REMARK       I    between atoms: C_23  and  N_24 
REMARK    7  A    between atoms: N_24  and  C_25 
REMARK    8  A    between atoms: C_28  and  O_29 
ROOT
HETATM    1  N   UNL     1     -43.246  57.316 -54.855  1.00  0.00    -0.333 N 
HETATM    2  C   UNL     1     -44.471  57.947 -54.636  1.00  0.00     0.240 C 
HETATM    3  O   UNL     1     -45.531  57.344 -54.830  1.00  0.00    -0.271 OA
ENDROOT
BRANCH   1   4
HETATM    4  C   UNL     1     -43.263  55.934 -55.403  1.00  0.00     0.176 C 
HETATM    5  C   UNL     1     -42.520  55.812 -56.736  1.00  0.00     0.042 C 
BRANCH   4   6
HETATM    6  C   UNL     1     -42.857  54.788 -54.428  1.00  0.00     0.244 C 
HETATM    7  N   UNL     1     -41.540  54.372 -54.544  1.00  0.00    -0.325 N 
HETATM    8  H   UNL     1     -41.021  54.718 -55.345  1.00  0.00     0.169 HD
HETATM    9  O   UNL     1     -43.636  54.436 -53.542  1.00  0.00    -0.271 OA
BRANCH   7  10
HETATM   10  C   UNL     1     -40.882  53.401 -53.754  1.00  0.00     0.035 A 
HETATM   11  C   UNL     1     -40.585  53.567 -52.399  1.00  0.00     0.032 A 
HETATM   12  C   UNL     1     -39.941  52.554 -51.680  1.00  0.00     0.039 A 
HETATM   13  C   UNL     1     -39.595  51.353 -52.295  1.00  0.00     0.068 A 
HETATM   14  C   UNL     1     -39.869  51.183 -53.651  1.00  0.00     0.039 A 
HETATM   15  C   UNL     1     -40.508  52.203 -54.374  1.00  0.00     0.032 A 
BRANCH  13  16
HETATM   16  O   UNL     1     -38.978  50.444 -51.481  1.00  0.00    -0.356 OA
HETATM   17  C   UNL     1     -39.825  49.717 -50.600  1.00  0.00     0.210 C 
ENDBRANCH  13  16
ENDBRANCH   7  10
ENDBRANCH   4   6
ENDBRANCH   1   4
BRANCH   1  18
HETATM   18  C   UNL     1     -41.927  57.900 -54.564  1.00  0.00     0.165 C 
BRANCH  18  19
HETATM   19  C   UNL     1     -41.590  58.064 -53.100  1.00  0.00    -0.040 A 
HETATM   20  C   UNL     1     -41.929  57.101 -52.139  1.00  0.00     0.009 A 
HETATM   21  C   UNL     1     -41.593  57.281 -50.795  1.00  0.00     0.001 A 
HETATM   22  C   UNL     1     -40.900  58.421 -50.394  1.00  0.00     0.000 A 
HETATM   23  C   UNL     1     -40.531  59.374 -51.339  1.00  0.00     0.001 A 
HETATM   24  C   UNL     1     -40.863  59.190 -52.682  1.00  0.00     0.009 A 
ENDBRANCH  18  19
ENDBRANCH   1  18
BRANCH   2  25
HETATM   25  C   UNL     1     -44.540  59.375 -54.129  1.00  0.00     0.250 C 
BRANCH  25  26
HETATM   26  N   UNL     1     -44.567  59.501 -52.689  1.00  0.00    -0.263 N 
HETATM   27  N   UNL     1     -45.134  58.551 -51.916  1.00  0.00     0.006 NA
HETATM   28  N   UNL     1     -45.109  58.988 -50.663  1.00  0.00    -0.158 NA
HETATM   29  C   UNL     1     -44.482  60.206 -50.648  1.00  0.00     0.102 A 
HETATM   30  C   UNL     1     -44.102  60.552 -51.940  1.00  0.00     0.079 A 
HETATM   31  C   UNL     1     -44.210  61.085 -49.590  1.00  0.00     0.035 A 
HETATM   32  C   UNL     1     -43.435  61.743 -52.245  1.00  0.00     0.033 A 
HETATM   33  C   UNL     1     -43.169  62.608 -51.178  1.00  0.00     0.002 A 
HETATM   34  C   UNL     1     -43.551  62.289 -49.873  1.00  0.00     0.002 A 
ENDBRANCH  25  26
ENDBRANCH   2  25
TORSDOF 8
ENDMDL
MODEL 2
REMARK VINA RESULT:      -7.6      3.940      8.391
REMARK  8 active torsions:
REMARK  status: ('A' for Active; 'I' for Inactive)
REMARK    1  A    between atoms: C_2  and  N_3 
REMARK    2  A    between atoms: C_2  and  C_23 
REMARK       I    between atoms: N_3  and  C_4 
REMARK    3  A    between atoms: N_3  and  C_16 
REMARK    4  A    between atoms: C_4  and  C_5 
REMARK    5  A    between atoms: C_5  and  N_6 
REMARK    6  A    between atoms: C_16  and  C_17 
REMARK       I    between atoms: C_23  and  N_24 
REMARK    7  A    between atoms: N_24  and  C_25 
REMARK    8  A    between atoms: C_28  and  O_29 
ROOT
HETATM    1  N   UNL     1     -43.441  58.991 -55.559  1.00  0.00    -0.333 N 
HETATM    2  C   UNL     1     -43.596  58.593 -54.230  1.00  0.00     0.240 C 
HETATM    3  O   UNL     1     -44.670  58.765 -53.645  1.00  0.00    -0.271 OA
ENDROOT
BRANCH   1   4
HETATM    4  C   UNL     1     -44.575  59.696 -56.212  1.00  0.00     0.176 C 
HETATM    5  C   UNL     1     -44.134  60.928 -57.006  1.00  0.00     0.042 C 
BRANCH   4   6
HETATM    6  C   UNL     1     -45.562  58.820 -57.039  1.00  0.00     0.244 C 
HETATM    7  N   UNL     1     -45.506  59.025 -58.409  1.00  0.00    -0.325 N 
HETATM    8  H   UNL     1     -44.968  59.824 -58.730  1.00  0.00     0.169 HD
HETATM    9  O   UNL     1     -46.198  57.924 -56.482  1.00  0.00    -0.271 OA
BRANCH   7  10
HETATM   10  C   UNL     1     -46.235  58.332 -59.403  1.00  0.00     0.035 A 
HETATM   11  C   UNL     1     -46.241  56.943 -59.543  1.00  0.00     0.032 A 
HETATM   12  C   UNL     1     -46.998  56.329 -60.546  1.00  0.00     0.039 A 
HETATM   13  C   UNL     1     -47.774  57.088 -61.419  1.00  0.00     0.068 A 
HETATM   14  C   UNL     1     -47.763  58.476 -61.301  1.00  0.00     0.039 A 
HETATM   15  C   UNL     1     -46.996  59.092 -60.300  1.00  0.00     0.032 A 
BRANCH  13  16
HETATM   16  O   UNL     1     -48.473  56.367 -62.347  1.00  0.00    -0.356 OA
HETATM   17  C   UNL     1     -48.505  56.905 -63.663  1.00  0.00     0.210 C 
ENDBRANCH  13  16
ENDBRANCH   7  10
ENDBRANCH   4   6
ENDBRANCH   1   4
BRANCH   1  18
HETATM   18  C   UNL     1     -42.245  58.749 -56.383  1.00  0.00     0.165 C 
BRANCH  18  19
HETATM   19  C   UNL     1     -42.411  57.743 -57.499  1.00  0.00    -0.040 A 
HETATM   20  C   UNL     1     -42.950  56.466 -57.286  1.00  0.00     0.009 A 
HETATM   21  C   UNL     1     -43.097  55.566 -58.344  1.00  0.00     0.001 A 
HETATM   22  C   UNL     1     -42.721  55.934 -59.633  1.00  0.00     0.000 A 
HETATM   23  C   UNL     1     -42.210  57.206 -59.867  1.00  0.00     0.001 A 
HETATM   24  C   UNL     1     -42.068  58.108 -58.811  1.00  0.00     0.009 A 
ENDBRANCH  18  19
ENDBRANCH   1  18
BRANCH   2  25
HETATM   25  C   UNL     1     -42.468  57.917 -53.476  1.00  0.00     0.250 C 
BRANCH  25  26
HETATM   26  N   UNL     1     -42.586  56.479 -53.382  1.00  0.00    -0.263 N 
HETATM   27  N   UNL     1     -43.571  55.905 -52.658  1.00  0.00     0.006 NA
HETATM   28  N   UNL     1     -43.360  54.594 -52.665  1.00  0.00    -0.158 NA
HETATM   29  C   UNL     1     -42.255  54.344 -53.435  1.00  0.00     0.102 A 
HETATM   30  C   UNL     1     -41.748  55.540 -53.929  1.00  0.00     0.079 A 
HETATM   31  C   UNL     1     -41.612  53.139 -53.752  1.00  0.00     0.035 A 
HETATM   32  C   UNL     1     -40.620  55.607 -54.754  1.00  0.00     0.033 A 
HETATM   33  C   UNL     1     -39.992  54.395 -55.063  1.00  0.00     0.002 A 
HETATM   34  C   UNL     1     -40.475  53.182 -54.570  1.00  0.00     0.002 A 
ENDBRANCH  25  26
ENDBRANCH   2  25
TORSDOF 8
ENDMDL
MODEL 3
REMARK VINA RESULT:      -7.6      2.537      7.959
REMARK  8 active torsions:
REMARK  status: ('A' for Active; 'I' for Inactive)
REMARK    1  A    between atoms: C_2  and  N_3 
REMARK    2  A    between atoms: C_2  and  C_23 
REMARK       I    between atoms: N_3  and  C_4 
REMARK    3  A    between atoms: N_3  and  C_16 
REMARK    4  A    between atoms: C_4  and  C_5 
REMARK    5  A    between atoms: C_5  and  N_6 
REMARK    6  A    between atoms: C_16  and  C_17 
REMARK       I    between atoms: C_23  and  N_24 
REMARK    7  A    between atoms: N_24  and  C_25 
REMARK    8  A    between atoms: C_28  and  O_29 
ROOT
HETATM    1  N   UNL     1     -42.450  55.031 -53.565  1.00  0.00    -0.333 N 
HETATM    2  C   UNL     1     -43.124  55.131 -54.783  1.00  0.00     0.240 C 
HETATM    3  O   UNL     1     -44.330  55.395 -54.813  1.00  0.00    -0.271 OA
ENDROOT
BRANCH   1   4
HETATM    4  C   UNL     1     -43.244  55.170 -52.316  1.00  0.00     0.176 C 
HETATM    5  C   UNL     1     -43.228  53.904 -51.455  1.00  0.00     0.042 C 
BRANCH   4   6
HETATM    6  C   UNL     1     -42.976  56.438 -51.453  1.00  0.00     0.244 C 
HETATM    7  N   UNL     1     -43.567  57.597 -51.933  1.00  0.00    -0.325 N 
HETATM    8  H   UNL     1     -43.964  57.554 -52.866  1.00  0.00     0.169 HD
HETATM    9  O   UNL     1     -42.416  56.328 -50.362  1.00  0.00    -0.271 OA
BRANCH   7  10
HETATM   10  C   UNL     1     -43.546  58.875 -51.328  1.00  0.00     0.035 A 
HETATM   11  C   UNL     1     -42.400  59.662 -51.202  1.00  0.00     0.032 A 
HETATM   12  C   UNL     1     -42.462  60.923 -50.599  1.00  0.00     0.039 A 
HETATM   13  C   UNL     1     -43.670  61.428 -50.125  1.00  0.00     0.068 A 
HETATM   14  C   UNL     1     -44.818  60.645 -50.228  1.00  0.00     0.039 A 
HETATM   15  C   UNL     1     -44.754  59.376 -50.824  1.00  0.00     0.032 A 
BRANCH  13  16
HETATM   16  O   UNL     1     -43.596  62.674 -49.566  1.00  0.00    -0.356 OA
HETATM   17  C   UNL     1     -44.788  63.161 -48.963  1.00  0.00     0.210 C 
ENDBRANCH  13  16
ENDBRANCH   7  10
ENDBRANCH   4   6
ENDBRANCH   1   4
BRANCH   1  18
HETATM   18  C   UNL     1     -41.001  54.819 -53.412  1.00  0.00     0.165 C 
BRANCH  18  19
HETATM   19  C   UNL     1     -40.556  53.378 -53.310  1.00  0.00    -0.040 A 
HETATM   20  C   UNL     1     -40.665  52.480 -54.382  1.00  0.00     0.009 A 
HETATM   21  C   UNL     1     -40.234  51.157 -54.253  1.00  0.00     0.001 A 
HETATM   22  C   UNL     1     -39.675  50.717 -53.056  1.00  0.00     0.000 A 
HETATM   23  C   UNL     1     -39.535  51.601 -51.992  1.00  0.00     0.001 A 
HETATM   24  C   UNL     1     -39.961  52.925 -52.122  1.00  0.00     0.009 A 
ENDBRANCH  18  19
ENDBRANCH   1  18
BRANCH   2  25
HETATM   25  C   UNL     1     -42.396  54.948 -56.101  1.00  0.00     0.250 C 
BRANCH  25  26
HETATM   26  N   UNL     1     -42.716  55.937 -57.106  1.00  0.00    -0.263 N 
HETATM   27  N   UNL     1     -42.411  57.240 -56.926  1.00  0.00     0.006 NA
HETATM   28  N   UNL     1     -42.919  57.914 -57.950  1.00  0.00    -0.158 NA
HETATM   29  C   UNL     1     -43.512  57.018 -58.799  1.00  0.00     0.102 A 
HETATM   30  C   UNL     1     -43.377  55.731 -58.291  1.00  0.00     0.079 A 
HETATM   31  C   UNL     1     -44.195  57.214 -60.009  1.00  0.00     0.035 A 
HETATM   32  C   UNL     1     -43.879  54.598 -58.940  1.00  0.00     0.033 A 
HETATM   33  C   UNL     1     -44.556  54.811 -60.146  1.00  0.00     0.002 A 
HETATM   34  C   UNL     1     -44.715  56.095 -60.672  1.00  0.00     0.002 A 
ENDBRANCH  25  26
ENDBRANCH   2  25
TORSDOF 8
ENDMDL
MODEL 4
REMARK VINA RESULT:      -7.6     16.716     20.363
REMARK  8 active torsions:
REMARK  status: ('A' for Active; 'I' for Inactive)
REMARK    1  A    between atoms: C_2  and  N_3 
REMARK    2  A    between atoms: C_2  and  C_23 
REMARK       I    between atoms: N_3  and  C_4 
REMARK    3  A    between atoms: N_3  and  C_16 
REMARK    4  A    between atoms: C_4  and  C_5 
REMARK    5  A    between atoms: C_5  and  N_6 
REMARK    6  A    between atoms: C_16  and  C_17 
REMARK       I    between atoms: C_23  and  N_24 
REMARK    7  A    between atoms: N_24  and  C_25 
REMARK    8  A    between atoms: C_28  and  O_29 
ROOT
HETATM    1  N   UNL     1     -33.556  40.086 -51.012  1.00  0.00    -0.333 N 
HETATM    2  C   UNL     1     -33.788  39.074 -50.079  1.00  0.00     0.240 C 
HETATM    3  O   UNL     1     -34.929  38.861 -49.656  1.00  0.00    -0.271 OA
ENDROOT
BRANCH   1   4
HETATM    4  C   UNL     1     -34.704  40.942 -51.412  1.00  0.00     0.176 C 
HETATM    5  C   UNL     1     -34.447  42.432 -51.176  1.00  0.00     0.042 C 
BRANCH   4   6
HETATM    6  C   UNL     1     -35.304  40.693 -52.828  1.00  0.00     0.244 C 
HETATM    7  N   UNL     1     -35.319  41.809 -53.651  1.00  0.00    -0.325 N 
HETATM    8  H   UNL     1     -35.106  42.700 -53.216  1.00  0.00     0.169 HD
HETATM    9  O   UNL     1     -35.574  39.546 -53.184  1.00  0.00    -0.271 OA
BRANCH   7  10
HETATM   10  C   UNL     1     -35.744  41.865 -54.999  1.00  0.00     0.035 A 
HETATM   11  C   UNL     1     -37.081  41.947 -55.394  1.00  0.00     0.032 A 
HETATM   12  C   UNL     1     -37.422  42.010 -56.749  1.00  0.00     0.039 A 
HETATM   13  C   UNL     1     -36.437  42.006 -57.733  1.00  0.00     0.068 A 
HETATM   14  C   UNL     1     -35.101  41.905 -57.353  1.00  0.00     0.039 A 
HETATM   15  C   UNL     1     -34.758  41.833 -55.993  1.00  0.00     0.032 A 
BRANCH  13  16
HETATM   16  O   UNL     1     -36.902  42.080 -59.017  1.00  0.00    -0.356 OA
HETATM   17  C   UNL     1     -37.209  40.842 -59.645  1.00  0.00     0.210 C 
ENDBRANCH  13  16
ENDBRANCH   7  10
ENDBRANCH   4   6
ENDBRANCH   1   4
BRANCH   1  18
HETATM   18  C   UNL     1     -32.262  40.364 -51.657  1.00  0.00     0.165 C 
BRANCH  18  19
HETATM   19  C   UNL     1     -32.003  39.628 -52.951  1.00  0.00    -0.040 A 
HETATM   20  C   UNL     1     -32.007  40.272 -54.196  1.00  0.00     0.009 A 
HETATM   21  C   UNL     1     -31.753  39.560 -55.371  1.00  0.00     0.001 A 
HETATM   22  C   UNL     1     -31.478  38.196 -55.317  1.00  0.00     0.000 A 
HETATM   23  C   UNL     1     -31.443  37.546 -54.087  1.00  0.00     0.001 A 
HETATM   24  C   UNL     1     -31.692  38.259 -52.913  1.00  0.00     0.009 A 
ENDBRANCH  18  19
ENDBRANCH   1  18
BRANCH   2  25
HETATM   25  C   UNL     1     -32.660  38.193 -49.579  1.00  0.00     0.250 C 
BRANCH  25  26
HETATM   26  N   UNL     1     -31.906  38.749 -48.478  1.00  0.00    -0.263 N 
HETATM   27  N   UNL     1     -30.813  39.512 -48.695  1.00  0.00     0.006 NA
HETATM   28  N   UNL     1     -30.273  39.782 -47.513  1.00  0.00    -0.158 NA
HETATM   29  C   UNL     1     -31.059  39.216 -46.545  1.00  0.00     0.102 A 
HETATM   30  C   UNL     1     -32.133  38.561 -47.138  1.00  0.00     0.079 A 
HETATM   31  C   UNL     1     -30.927  39.199 -45.149  1.00  0.00     0.035 A 
HETATM   32  C   UNL     1     -33.116  37.889 -46.404  1.00  0.00     0.033 A 
HETATM   33  C   UNL     1     -32.969  37.883 -45.012  1.00  0.00     0.002 A 
HETATM   34  C   UNL     1     -31.894  38.523 -44.393  1.00  0.00     0.002 A 
ENDBRANCH  25  26
ENDBRANCH   2  25
TORSDOF 8
ENDMDL
MODEL 5
REMARK VINA RESULT:      -7.5      2.295      5.190
REMARK  8 active torsions:
REMARK  status: ('A' for Active; 'I' for Inactive)
REMARK    1  A    between atoms: C_2  and  N_3 
REMARK    2  A    between atoms: C_2  and  C_23 
REMARK       I    between atoms: N_3  and  C_4 
REMARK    3  A    between atoms: N_3  and  C_16 
REMARK    4  A    between atoms: C_4  and  C_5 
REMARK    5  A    between atoms: C_5  and  N_6 
REMARK    6  A    between atoms: C_16  and  C_17 
REMARK       I    between atoms: C_23  and  N_24 
REMARK    7  A    between atoms: N_24  and  C_25 
REMARK    8  A    between atoms: C_28  and  O_29 
ROOT
HETATM    1  N   UNL     1     -42.600  57.748 -54.233  1.00  0.00    -0.333 N 
HETATM    2  C   UNL     1     -42.997  57.142 -55.426  1.00  0.00     0.240 C 
HETATM    3  O   UNL     1     -43.751  56.164 -55.411  1.00  0.00    -0.271 OA
ENDROOT
BRANCH   1   4
HETATM    4  C   UNL     1     -43.046  57.132 -52.955  1.00  0.00     0.176 C 
HETATM    5  C   UNL     1     -44.506  57.445 -52.620  1.00  0.00     0.042 C 
BRANCH   4   6
HETATM    6  C   UNL     1     -42.739  55.617 -52.763  1.00  0.00     0.244 C 
HETATM    7  N   UNL     1     -41.484  55.223 -53.202  1.00  0.00    -0.325 N 
HETATM    8  H   UNL     1     -40.960  55.897 -53.750  1.00  0.00     0.169 HD
HETATM    9  O   UNL     1     -43.519  54.913 -52.122  1.00  0.00    -0.271 OA
BRANCH   7  10
HETATM   10  C   UNL     1     -40.914  53.933 -53.099  1.00  0.00     0.035 A 
HETATM   11  C   UNL     1     -40.395  53.401 -51.917  1.00  0.00     0.032 A 
HETATM   12  C   UNL     1     -39.856  52.109 -51.892  1.00  0.00     0.039 A 
HETATM   13  C   UNL     1     -39.838  51.322 -53.041  1.00  0.00     0.068 A 
HETATM   14  C   UNL     1     -40.337  51.849 -54.230  1.00  0.00     0.039 A 
HETATM   15  C   UNL     1     -40.869  53.147 -54.258  1.00  0.00     0.032 A 
BRANCH  13  16
HETATM   16  O   UNL     1     -39.293  50.079 -52.880  1.00  0.00    -0.356 OA
HETATM   17  C   UNL     1     -39.551  49.437 -51.638  1.00  0.00     0.210 C 
ENDBRANCH  13  16
ENDBRANCH   7  10
ENDBRANCH   4   6
ENDBRANCH   1   4
BRANCH   1  18
HETATM   18  C   UNL     1     -41.787  58.972 -54.133  1.00  0.00     0.165 C 
BRANCH  18  19
HETATM   19  C   UNL     1     -41.265  59.301 -52.753  1.00  0.00    -0.040 A 
HETATM   20  C   UNL     1     -42.013  60.035 -51.822  1.00  0.00     0.009 A 
HETATM   21  C   UNL     1     -41.502  60.312 -50.552  1.00  0.00     0.001 A 
HETATM   22  C   UNL     1     -40.240  59.847 -50.189  1.00  0.00     0.000 A 
HETATM   23  C   UNL     1     -39.495  59.095 -51.091  1.00  0.00     0.001 A 
HETATM   24  C   UNL     1     -40.008  58.814 -52.359  1.00  0.00     0.009 A 
ENDBRANCH  18  19
ENDBRANCH   1  18
BRANCH   2  25
HETATM   25  C   UNL     1     -42.540  57.677 -56.769  1.00  0.00     0.250 C 
BRANCH  25  26
HETATM   26  N   UNL     1     -43.589  57.795 -57.757  1.00  0.00    -0.263 N 
HETATM   27  N   UNL     1     -44.334  58.917 -57.855  1.00  0.00     0.006 NA
HETATM   28  N   UNL     1     -45.277  58.693 -58.761  1.00  0.00    -0.158 NA
HETATM   29  C   UNL     1     -45.095  57.432 -59.264  1.00  0.00     0.102 A 
HETATM   30  C   UNL     1     -43.999  56.837 -58.649  1.00  0.00     0.079 A 
HETATM   31  C   UNL     1     -45.819  56.715 -60.228  1.00  0.00     0.035 A 
HETATM   32  C   UNL     1     -43.561  55.545 -58.958  1.00  0.00     0.033 A 
HETATM   33  C   UNL     1     -44.293  54.844 -59.923  1.00  0.00     0.002 A 
HETATM   34  C   UNL     1     -45.404  55.415 -60.546  1.00  0.00     0.002 A 
ENDBRANCH  25  26
ENDBRANCH   2  25
TORSDOF 8
ENDMDL
MODEL 6
REMARK VINA RESULT:      -7.5      2.875      4.070
REMARK  8 active torsions:
REMARK  status: ('A' for Active; 'I' for Inactive)
REMARK    1  A    between atoms: C_2  and  N_3 
REMARK    2  A    between atoms: C_2  and  C_23 
REMARK       I    between atoms: N_3  and  C_4 
REMARK    3  A    between atoms: N_3  and  C_16 
REMARK    4  A    between atoms: C_4  and  C_5 
REMARK    5  A    between atoms: C_5  and  N_6 
REMARK    6  A    between atoms: C_16  and  C_17 
REMARK       I    between atoms: C_23  and  N_24 
REMARK    7  A    between atoms: N_24  and  C_25 
REMARK    8  A    between atoms: C_28  and  O_29 
ROOT
HETATM    1  N   UNL     1     -44.504  59.685 -51.479  1.00  0.00    -0.333 N 
HETATM    2  C   UNL     1     -45.117  60.107 -50.298  1.00  0.00     0.240 C 
HETATM    3  O   UNL     1     -45.963  59.398 -49.743  1.00  0.00    -0.271 OA
ENDROOT
BRANCH   1   4
HETATM    4  C   UNL     1     -44.960  58.405 -52.083  1.00  0.00     0.176 C 
HETATM    5  C   UNL     1     -44.982  58.442 -53.613  1.00  0.00     0.042 C 
BRANCH   4   6
HETATM    6  C   UNL     1     -44.280  57.104 -51.563  1.00  0.00     0.244 C 
HETATM    7  N   UNL     1     -43.107  56.765 -52.218  1.00  0.00    -0.325 N 
HETATM    8  H   UNL     1     -42.892  57.280 -53.065  1.00  0.00     0.169 HD
HETATM    9  O   UNL     1     -44.709  56.555 -50.547  1.00  0.00    -0.271 OA
BRANCH   7  10
HETATM   10  C   UNL     1     -42.250  55.679 -51.921  1.00  0.00     0.035 A 
HETATM   11  C   UNL     1     -41.384  55.644 -50.827  1.00  0.00     0.032 A 
HETATM   12  C   UNL     1     -40.574  54.527 -50.592  1.00  0.00     0.039 A 
HETATM   13  C   UNL     1     -40.624  53.421 -51.437  1.00  0.00     0.068 A 
HETATM   14  C   UNL     1     -41.471  53.451 -52.543  1.00  0.00     0.039 A 
HETATM   15  C   UNL     1     -42.277  54.575 -52.782  1.00  0.00     0.032 A 
BRANCH  13  16
HETATM   16  O   UNL     1     -39.790  52.394 -51.094  1.00  0.00    -0.356 OA
HETATM   17  C   UNL     1     -39.429  51.502 -52.141  1.00  0.00     0.210 C 
ENDBRANCH  13  16
ENDBRANCH   7  10
ENDBRANCH   4   6
ENDBRANCH   1   4
BRANCH   1  18
HETATM   18  C   UNL     1     -43.416  60.397 -52.171  1.00  0.00     0.165 C 
BRANCH  18  19
HETATM   19  C   UNL     1     -42.016  59.937 -51.838  1.00  0.00    -0.040 A 
HETATM   20  C   UNL     1     -41.491  60.004 -50.539  1.00  0.00     0.009 A 
HETATM   21  C   UNL     1     -40.195  59.560 -50.267  1.00  0.00     0.001 A 
HETATM   22  C   UNL     1     -39.408  59.030 -51.287  1.00  0.00     0.000 A 
HETATM   23  C   UNL     1     -39.923  58.930 -52.576  1.00  0.00     0.001 A 
HETATM   24  C   UNL     1     -41.220  59.369 -52.847  1.00  0.00     0.009 A 
ENDBRANCH  18  19
ENDBRANCH   1  18
BRANCH   2  25
HETATM   25  C   UNL     1     -44.746  61.426 -49.649  1.00  0.00     0.250 C 
BRANCH  25  26
HETATM   26  N   UNL     1     -45.865  62.162 -49.103  1.00  0.00    -0.263 N 
HETATM   27  N   UNL     1     -46.871  62.591 -49.895  1.00  0.00     0.006 NA
HETATM   28  N   UNL     1     -47.685  63.323 -49.144  1.00  0.00    -0.158 NA
HETATM   29  C   UNL     1     -47.205  63.316 -47.862  1.00  0.00     0.102 A 
HETATM   30  C   UNL     1     -46.043  62.556 -47.801  1.00  0.00     0.079 A 
HETATM   31  C   UNL     1     -47.684  63.937 -46.699  1.00  0.00     0.035 A 
HETATM   32  C   UNL     1     -45.321  62.359 -46.619  1.00  0.00     0.033 A 
HETATM   33  C   UNL     1     -45.814  62.984 -45.468  1.00  0.00     0.002 A 
HETATM   34  C   UNL     1     -46.973  63.762 -45.505  1.00  0.00     0.002 A 
ENDBRANCH  25  26
ENDBRANCH   2  25
TORSDOF 8
ENDMDL
MODEL 7
REMARK VINA RESULT:      -7.4      2.873      8.296
REMARK  8 active torsions:
REMARK  status: ('A' for Active; 'I' for Inactive)
REMARK    1  A    between atoms: C_2  and  N_3 
REMARK    2  A    between atoms: C_2  and  C_23 
REMARK       I    between atoms: N_3  and  C_4 
REMARK    3  A    between atoms: N_3  and  C_16 
REMARK    4  A    between atoms: C_4  and  C_5 
REMARK    5  A    between atoms: C_5  and  N_6 
REMARK    6  A    between atoms: C_16  and  C_17 
REMARK       I    between atoms: C_23  and  N_24 
REMARK    7  A    between atoms: N_24  and  C_25 
REMARK    8  A    between atoms: C_28  and  O_29 
ROOT
HETATM    1  N   UNL     1     -42.681  56.552 -53.719  1.00  0.00    -0.333 N 
HETATM    2  C   UNL     1     -42.289  55.214 -53.675  1.00  0.00     0.240 C 
HETATM    3  O   UNL     1     -43.134  54.313 -53.660  1.00  0.00    -0.271 OA
ENDROOT
BRANCH   1   4
HETATM    4  C   UNL     1     -44.135  56.855 -53.664  1.00  0.00     0.176 C 
HETATM    5  C   UNL     1     -44.624  57.177 -52.250  1.00  0.00     0.042 C 
BRANCH   4   6
HETATM    6  C   UNL     1     -44.675  57.892 -54.694  1.00  0.00     0.244 C 
HETATM    7  N   UNL     1     -44.753  57.423 -55.996  1.00  0.00    -0.325 N 
HETATM    8  H   UNL     1     -44.305  56.534 -56.189  1.00  0.00     0.169 HD
HETATM    9  O   UNL     1     -45.130  58.966 -54.298  1.00  0.00    -0.271 OA
BRANCH   7  10
HETATM   10  C   UNL     1     -45.260  58.117 -57.120  1.00  0.00     0.035 A 
HETATM   11  C   UNL     1     -44.461  58.779 -58.054  1.00  0.00     0.032 A 
HETATM   12  C   UNL     1     -45.037  59.435 -59.148  1.00  0.00     0.039 A 
HETATM   13  C   UNL     1     -46.417  59.430 -59.337  1.00  0.00     0.068 A 
HETATM   14  C   UNL     1     -47.226  58.788 -58.401  1.00  0.00     0.039 A 
HETATM   15  C   UNL     1     -46.649  58.138 -57.299  1.00  0.00     0.032 A 
BRANCH  13  16
HETATM   16  O   UNL     1     -46.851  60.099 -60.447  1.00  0.00    -0.356 OA
HETATM   17  C   UNL     1     -48.258  60.130 -60.650  1.00  0.00     0.210 C 
ENDBRANCH  13  16
ENDBRANCH   7  10
ENDBRANCH   4   6
ENDBRANCH   1   4
BRANCH   1  18
HETATM   18  C   UNL     1     -41.767  57.701 -53.840  1.00  0.00     0.165 C 
BRANCH  18  19
HETATM   19  C   UNL     1     -41.567  58.514 -52.581  1.00  0.00    -0.040 A 
HETATM   20  C   UNL     1     -42.093  59.805 -52.429  1.00  0.00     0.009 A 
HETATM   21  C   UNL     1     -41.897  60.523 -51.247  1.00  0.00     0.001 A 
HETATM   22  C   UNL     1     -41.183  59.956 -50.195  1.00  0.00     0.000 A 
HETATM   23  C   UNL     1     -40.677  58.666 -50.318  1.00  0.00     0.001 A 
HETATM   24  C   UNL     1     -40.878  57.946 -51.497  1.00  0.00     0.009 A 
ENDBRANCH  18  19
ENDBRANCH   1  18
BRANCH   2  25
HETATM   25  C   UNL     1     -40.823  54.824 -53.673  1.00  0.00     0.250 C 
BRANCH  25  26
HETATM   26  N   UNL     1     -40.491  53.741 -52.774  1.00  0.00    -0.263 N 
HETATM   27  N   UNL     1     -40.317  53.959 -51.453  1.00  0.00     0.006 NA
HETATM   28  N   UNL     1     -39.915  52.817 -50.910  1.00  0.00    -0.158 NA
HETATM   29  C   UNL     1     -39.877  51.865 -51.895  1.00  0.00     0.102 A 
HETATM   30  C   UNL     1     -40.266  52.429 -53.105  1.00  0.00     0.079 A 
HETATM   31  C   UNL     1     -39.514  50.512 -51.849  1.00  0.00     0.035 A 
HETATM   32  C   UNL     1     -40.331  51.702 -54.298  1.00  0.00     0.033 A 
HETATM   33  C   UNL     1     -39.967  50.352 -54.235  1.00  0.00     0.002 A 
HETATM   34  C   UNL     1     -39.562  49.766 -53.034  1.00  0.00     0.002 A 
ENDBRANCH  25  26
ENDBRANCH   2  25
TORSDOF 8
ENDMDL
MODEL 8
REMARK VINA RESULT:      -7.3      3.225      6.275
REMARK  8 active torsions:
REMARK  status: ('A' for Active; 'I' for Inactive)
REMARK    1  A    between atoms: C_2  and  N_3 
REMARK    2  A    between atoms: C_2  and  C_23 
REMARK       I    between atoms: N_3  and  C_4 
REMARK    3  A    between atoms: N_3  and  C_16 
REMARK    4  A    between atoms: C_4  and  C_5 
REMARK    5  A    between atoms: C_5  and  N_6 
REMARK    6  A    between atoms: C_16  and  C_17 
REMARK       I    between atoms: C_23  and  N_24 
REMARK    7  A    between atoms: N_24  and  C_25 
REMARK    8  A    between atoms: C_28  and  O_29 
ROOT
HETATM    1  N   UNL     1     -42.549  57.897 -55.687  1.00  0.00    -0.333 N 
HETATM    2  C   UNL     1     -42.579  56.948 -56.709  1.00  0.00     0.240 C 
HETATM    3  O   UNL     1     -42.757  55.753 -56.451  1.00  0.00    -0.271 OA
ENDROOT
BRANCH   1   4
HETATM    4  C   UNL     1     -42.655  57.415 -54.284  1.00  0.00     0.176 C 
HETATM    5  C   UNL     1     -44.060  56.927 -53.925  1.00  0.00     0.042 C 
BRANCH   4   6
HETATM    6  C   UNL     1     -41.571  56.402 -53.808  1.00  0.00     0.244 C 
HETATM    7  N   UNL     1     -42.063  55.155 -53.456  1.00  0.00    -0.325 N 
HETATM    8  H   UNL     1     -43.071  55.068 -53.376  1.00  0.00     0.169 HD
HETATM    9  O   UNL     1     -40.378  56.690 -53.912  1.00  0.00    -0.271 OA
BRANCH   7  10
HETATM   10  C   UNL     1     -41.312  54.028 -53.049  1.00  0.00     0.035 A 
HETATM   11  C   UNL     1     -40.751  53.103 -53.932  1.00  0.00     0.032 A 
HETATM   12  C   UNL     1     -40.009  52.017 -53.453  1.00  0.00     0.039 A 
HETATM   13  C   UNL     1     -39.801  51.844 -52.087  1.00  0.00     0.068 A 
HETATM   14  C   UNL     1     -40.371  52.750 -51.195  1.00  0.00     0.039 A 
HETATM   15  C   UNL     1     -41.122  53.834 -51.675  1.00  0.00     0.032 A 
BRANCH  13  16
HETATM   16  O   UNL     1     -39.053  50.750 -51.751  1.00  0.00    -0.356 OA
HETATM   17  C   UNL     1     -39.627  49.868 -50.794  1.00  0.00     0.210 C 
ENDBRANCH  13  16
ENDBRANCH   7  10
ENDBRANCH   4   6
ENDBRANCH   1   4
BRANCH   1  18
HETATM   18  C   UNL     1     -42.443  59.352 -55.884  1.00  0.00     0.165 C 
BRANCH  18  19
HETATM   19  C   UNL     1     -43.682  60.033 -56.418  1.00  0.00    -0.040 A 
HETATM   20  C   UNL     1     -44.898  60.038 -55.719  1.00  0.00     0.009 A 
HETATM   21  C   UNL     1     -46.020  60.687 -56.240  1.00  0.00     0.001 A 
HETATM   22  C   UNL     1     -45.940  61.352 -57.461  1.00  0.00     0.000 A 
HETATM   23  C   UNL     1     -44.735  61.380 -58.155  1.00  0.00     0.001 A 
HETATM   24  C   UNL     1     -43.612  60.736 -57.632  1.00  0.00     0.009 A 
ENDBRANCH  18  19
ENDBRANCH   1  18
BRANCH   2  25
HETATM   25  C   UNL     1     -42.424  57.353 -58.162  1.00  0.00     0.250 C 
BRANCH  25  26
HETATM   26  N   UNL     1     -43.318  56.674 -59.074  1.00  0.00    -0.263 N 
HETATM   27  N   UNL     1     -42.856  55.763 -59.956  1.00  0.00     0.006 NA
HETATM   28  N   UNL     1     -43.875  55.398 -60.725  1.00  0.00    -0.158 NA
HETATM   29  C   UNL     1     -44.994  56.059 -60.291  1.00  0.00     0.102 A 
HETATM   30  C   UNL     1     -44.668  56.873 -59.212  1.00  0.00     0.079 A 
HETATM   31  C   UNL     1     -46.314  56.035 -60.763  1.00  0.00     0.035 A 
HETATM   32  C   UNL     1     -45.606  57.671 -58.549  1.00  0.00     0.033 A 
HETATM   33  C   UNL     1     -46.919  57.634 -59.031  1.00  0.00     0.002 A 
HETATM   34  C   UNL     1     -47.269  56.834 -60.121  1.00  0.00     0.002 A 
ENDBRANCH  25  26
ENDBRANCH   2  25
TORSDOF 8
ENDMDL
MODEL 9
REMARK VINA RESULT:      -7.2      2.869      5.025
REMARK  8 active torsions:
REMARK  status: ('A' for Active; 'I' for Inactive)
REMARK    1  A    between atoms: C_2  and  N_3 
REMARK    2  A    between atoms: C_2  and  C_23 
REMARK       I    between atoms: N_3  and  C_4 
REMARK    3  A    between atoms: N_3  and  C_16 
REMARK    4  A    between atoms: C_4  and  C_5 
REMARK    5  A    between atoms: C_5  and  N_6 
REMARK    6  A    between atoms: C_16  and  C_17 
REMARK       I    between atoms: C_23  and  N_24 
REMARK    7  A    between atoms: N_24  and  C_25 
REMARK    8  A    between atoms: C_28  and  O_29 
ROOT
HETATM    1  N   UNL     1     -43.668  58.623 -53.057  1.00  0.00    -0.333 N 
HETATM    2  C   UNL     1     -43.099  59.887 -53.219  1.00  0.00     0.240 C 
HETATM    3  O   UNL     1     -42.150  60.242 -52.513  1.00  0.00    -0.271 OA
ENDROOT
BRANCH   1   4
HETATM    4  C   UNL     1     -43.151  57.761 -51.962  1.00  0.00     0.176 C 
HETATM    5  C   UNL     1     -44.265  57.063 -51.176  1.00  0.00     0.042 C 
BRANCH   4   6
HETATM    6  C   UNL     1     -42.016  56.761 -52.333  1.00  0.00     0.244 C 
HETATM    7  N   UNL     1     -42.372  55.424 -52.243  1.00  0.00    -0.325 N 
HETATM    8  H   UNL     1     -43.258  55.217 -51.792  1.00  0.00     0.169 HD
HETATM    9  O   UNL     1     -40.964  57.183 -52.814  1.00  0.00    -0.271 OA
BRANCH   7  10
HETATM   10  C   UNL     1     -41.572  54.307 -52.576  1.00  0.00     0.035 A 
HETATM   11  C   UNL     1     -40.811  53.588 -51.652  1.00  0.00     0.032 A 
HETATM   12  C   UNL     1     -40.052  52.485 -52.057  1.00  0.00     0.039 A 
HETATM   13  C   UNL     1     -40.049  52.070 -53.386  1.00  0.00     0.068 A 
HETATM   14  C   UNL     1     -40.790  52.791 -54.321  1.00  0.00     0.039 A 
HETATM   15  C   UNL     1     -41.545  53.903 -53.916  1.00  0.00     0.032 A 
BRANCH  13  16
HETATM   16  O   UNL     1     -39.274  50.975 -53.649  1.00  0.00    -0.356 OA
HETATM   17  C   UNL     1     -39.890  49.937 -54.401  1.00  0.00     0.210 C 
ENDBRANCH  13  16
ENDBRANCH   7  10
ENDBRANCH   4   6
ENDBRANCH   1   4
BRANCH   1  18
HETATM   18  C   UNL     1     -44.732  58.057 -53.904  1.00  0.00     0.165 C 
BRANCH  18  19
HETATM   19  C   UNL     1     -44.329  57.709 -55.318  1.00  0.00    -0.040 A 
HETATM   20  C   UNL     1     -43.173  56.971 -55.611  1.00  0.00     0.009 A 
HETATM   21  C   UNL     1     -42.838  56.660 -56.931  1.00  0.00     0.001 A 
HETATM   22  C   UNL     1     -43.661  57.071 -57.977  1.00  0.00     0.000 A 
HETATM   23  C   UNL     1     -44.825  57.780 -57.703  1.00  0.00     0.001 A 
HETATM   24  C   UNL     1     -45.163  58.087 -56.383  1.00  0.00     0.009 A 
ENDBRANCH  18  19
ENDBRANCH   1  18
BRANCH   2  25
HETATM   25  C   UNL     1     -43.605  60.846 -54.278  1.00  0.00     0.250 C 
BRANCH  25  26
HETATM   26  N   UNL     1     -42.979  60.697 -55.573  1.00  0.00    -0.263 N 
HETATM   27  N   UNL     1     -41.742  60.170 -55.694  1.00  0.00     0.006 NA
HETATM   28  N   UNL     1     -41.391  60.263 -56.970  1.00  0.00    -0.158 NA
HETATM   29  C   UNL     1     -42.437  60.817 -57.661  1.00  0.00     0.102 A 
HETATM   30  C   UNL     1     -43.484  61.087 -56.788  1.00  0.00     0.079 A 
HETATM   31  C   UNL     1     -42.572  61.135 -59.020  1.00  0.00     0.035 A 
HETATM   32  C   UNL     1     -44.694  61.654 -57.201  1.00  0.00     0.033 A 
HETATM   33  C   UNL     1     -44.814  61.963 -58.560  1.00  0.00     0.002 A 
HETATM   34  C   UNL     1     -43.772  61.712 -59.456  1.00  0.00     0.002 A 
ENDBRANCH  25  26
ENDBRANCH   2  25
TORSDOF 8
ENDMDL
MODEL 10
REMARK VINA RESULT:      -7.2      2.700      3.880
REMARK  8 active torsions:
REMARK  status: ('A' for Active; 'I' for Inactive)
REMARK    1  A    between atoms: C_2  and  N_3 
REMARK    2  A    between atoms: C_2  and  C_23 
REMARK       I    between atoms: N_3  and  C_4 
REMARK    3  A    between atoms: N_3  and  C_16 
REMARK    4  A    between atoms: C_4  and  C_5 
REMARK    5  A    between atoms: C_5  and  N_6 
REMARK    6  A    between atoms: C_16  and  C_17 
REMARK       I    between atoms: C_23  and  N_24 
REMARK    7  A    between atoms: N_24  and  C_25 
REMARK    8  A    between atoms: C_28  and  O_29 
ROOT
HETATM    1  N   UNL     1     -44.559  59.593 -51.456  1.00  0.00    -0.333 N 
HETATM    2  C   UNL     1     -45.241  59.739 -50.248  1.00  0.00     0.240 C 
HETATM    3  O   UNL     1     -46.084  58.906 -49.899  1.00  0.00    -0.271 OA
ENDROOT
BRANCH   1   4
HETATM    4  C   UNL     1     -44.937  58.456 -52.338  1.00  0.00     0.176 C 
HETATM    5  C   UNL     1     -44.987  58.841 -53.818  1.00  0.00     0.042 C 
BRANCH   4   6
HETATM    6  C   UNL     1     -44.162  57.121 -52.131  1.00  0.00     0.244 C 
HETATM    7  N   UNL     1     -43.408  56.717 -53.222  1.00  0.00    -0.325 N 
HETATM    8  H   UNL     1     -43.559  57.219 -54.092  1.00  0.00     0.169 HD
HETATM    9  O   UNL     1     -44.131  56.599 -51.016  1.00  0.00    -0.271 OA
BRANCH   7  10
HETATM   10  C   UNL     1     -42.560  55.588 -53.299  1.00  0.00     0.035 A 
HETATM   11  C   UNL     1     -42.708  54.562 -54.234  1.00  0.00     0.032 A 
HETATM   12  C   UNL     1     -41.821  53.481 -54.254  1.00  0.00     0.039 A 
HETATM   13  C   UNL     1     -40.763  53.410 -53.351  1.00  0.00     0.068 A 
HETATM   14  C   UNL     1     -40.616  54.418 -52.400  1.00  0.00     0.039 A 
HETATM   15  C   UNL     1     -41.511  55.499 -52.375  1.00  0.00     0.032 A 
BRANCH  13  16
HETATM   16  O   UNL     1     -39.965  52.307 -53.481  1.00  0.00    -0.356 OA
HETATM   17  C   UNL     1     -40.495  51.238 -54.253  1.00  0.00     0.210 C 
ENDBRANCH  13  16
ENDBRANCH   7  10
ENDBRANCH   4   6
ENDBRANCH   1   4
BRANCH   1  18
HETATM   18  C   UNL     1     -43.469  60.465 -51.926  1.00  0.00     0.165 C 
BRANCH  18  19
HETATM   19  C   UNL     1     -42.069  59.947 -51.693  1.00  0.00    -0.040 A 
HETATM   20  C   UNL     1     -41.293  59.388 -52.719  1.00  0.00     0.009 A 
HETATM   21  C   UNL     1     -39.998  58.929 -52.468  1.00  0.00     0.001 A 
HETATM   22  C   UNL     1     -39.454  59.033 -51.190  1.00  0.00     0.000 A 
HETATM   23  C   UNL     1     -40.199  59.609 -50.166  1.00  0.00     0.001 A 
HETATM   24  C   UNL     1     -41.492  60.073 -50.419  1.00  0.00     0.009 A 
ENDBRANCH  18  19
ENDBRANCH   1  18
BRANCH   2  25
HETATM   25  C   UNL     1     -44.953  60.901 -49.318  1.00  0.00     0.250 C 
BRANCH  25  26
HETATM   26  N   UNL     1     -46.040  61.844 -49.179  1.00  0.00    -0.263 N 
HETATM   27  N   UNL     1     -46.774  61.902 -48.047  1.00  0.00     0.006 NA
HETATM   28  N   UNL     1     -47.757  62.770 -48.251  1.00  0.00    -0.158 NA
HETATM   29  C   UNL     1     -47.612  63.290 -49.510  1.00  0.00     0.102 A 
HETATM   30  C   UNL     1     -46.499  62.727 -50.124  1.00  0.00     0.079 A 
HETATM   31  C   UNL     1     -48.384  64.229 -50.209  1.00  0.00     0.035 A 
HETATM   32  C   UNL     1     -46.090  63.064 -51.419  1.00  0.00     0.033 A 
HETATM   33  C   UNL     1     -46.870  64.003 -52.102  1.00  0.00     0.002 A 
HETATM   34  C   UNL     1     -47.999  64.575 -51.512  1.00  0.00     0.002 A 
ENDBRANCH  25  26
ENDBRANCH   2  25
TORSDOF 8
ENDMDL
