MODEL 1
REMARK VINA RESULT:      -9.1      0.000      0.000
REMARK  8 active torsions:
REMARK  status: ('A' for Active; 'I' for Inactive)
REMARK       I    between atoms: C_2  and  N_3 
REMARK    1  A    between atoms: N_6  and  C_7 
REMARK    2  A    between atoms: C_8  and  N_9 
REMARK    3  A    between atoms: N_9  and  C_10 
REMARK    4  A    between atoms: C_10  and  N_11 
REMARK       I    between atoms: N_11  and  C_12 
REMARK    5  A    between atoms: C_12  and  C_13 
REMARK    6  A    between atoms: C_15  and  O_16 
REMARK    7  A    between atoms: O_16  and  C_17 
REMARK    8  A    between atoms: C_17  and  C_18 
ROOT
HETATM    1  C   UNL     1     -42.483  60.185 -55.893  1.00  0.00     0.179 C 
HETATM    2  S   UNL     1     -43.844  61.126 -55.648  1.00  0.00    -0.040 SA
ENDROOT
BRANCH   1   3
HETATM    3  N   UNL     1     -41.488  60.639 -56.681  1.00  0.00    -0.331 N 
HETATM    4  H   UNL     1     -40.605  60.845 -56.220  1.00  0.00     0.168 HD
BRANCH   3   5
HETATM    5  C   UNL     1     -41.519  61.158 -57.998  1.00  0.00     0.061 A 
HETATM    6  C   UNL     1     -42.036  60.293 -59.004  1.00  0.00     0.057 A 
HETATM    7  C   UNL     1     -41.872  60.683 -60.340  1.00  0.00     0.031 A 
HETATM    8  C   UNL     1     -41.276  61.905 -60.671  1.00  0.00     0.002 A 
HETATM    9  C   UNL     1     -40.825  62.759 -59.671  1.00  0.00     0.002 A 
HETATM   10  C   UNL     1     -40.937  62.385 -58.334  1.00  0.00     0.032 A 
BRANCH   6  11
HETATM   11  N   UNL     1     -42.687  59.100 -58.623  1.00  0.00    -0.376 N 
HETATM   12  C   UNL     1     -44.134  59.071 -59.005  1.00  0.00     0.143 C 
HETATM   13  C   UNL     1     -44.341  58.424 -60.388  1.00  0.00     0.145 C 
HETATM   14  N   UNL     1     -43.736  57.086 -60.411  1.00  0.00    -0.349 N 
HETATM   15  C   UNL     1     -44.436  55.917 -60.164  1.00  0.00     0.215 C 
HETATM   16  C   UNL     1     -42.297  57.112 -60.137  1.00  0.00     0.145 C 
HETATM   17  C   UNL     1     -45.933  55.963 -60.331  1.00  0.00     0.117 C 
HETATM   18  O   UNL     1     -43.882  54.869 -59.832  1.00  0.00    -0.274 OA
HETATM   19  C   UNL     1     -42.003  57.791 -58.781  1.00  0.00     0.143 C 
ENDBRANCH   6  11
ENDBRANCH   3   5
ENDBRANCH   1   3
BRANCH   1  20
HETATM   20  N   UNL     1     -42.398  58.999 -55.230  1.00  0.00    -0.299 N 
HETATM   21  C   UNL     1     -41.604  58.756 -54.112  1.00  0.00     0.257 C 
HETATM   22  O   UNL     1     -40.640  59.406 -53.731  1.00  0.00    -0.267 OA
HETATM   23  H   UNL     1     -43.298  58.538 -55.207  1.00  0.00     0.171 HD
BRANCH  21  24
HETATM   24  C   UNL     1     -42.071  57.615 -53.281  1.00  0.00     0.035 A 
HETATM   25  C   UNL     1     -41.813  56.293 -53.654  1.00  0.00     0.053 A 
HETATM   26  C   UNL     1     -42.355  55.256 -52.899  1.00  0.00     0.070 A 
HETATM   27  C   UNL     1     -43.106  55.516 -51.754  1.00  0.00     0.037 A 
HETATM   28  C   UNL     1     -43.337  56.836 -51.366  1.00  0.00     0.004 A 
HETATM   29  C   UNL     1     -42.820  57.887 -52.128  1.00  0.00     0.017 A 
BRANCH  26  30
HETATM   30  O   UNL     1     -42.072  53.975 -53.280  1.00  0.00    -0.347 OA
BRANCH  30  31
HETATM   31  C   UNL     1     -40.676  53.821 -53.564  1.00  0.00     0.214 C 
BRANCH  31  32
HETATM   32  C   UNL     1     -40.321  52.377 -53.314  1.00  0.00    -0.034 A 
HETATM   33  C   UNL     1     -39.876  51.964 -52.051  1.00  0.00     0.009 A 
HETATM   34  C   UNL     1     -39.510  50.635 -51.831  1.00  0.00     0.001 A 
HETATM   35  C   UNL     1     -39.576  49.710 -52.872  1.00  0.00     0.000 A 
HETATM   36  C   UNL     1     -40.007  50.113 -54.134  1.00  0.00     0.001 A 
HETATM   37  C   UNL     1     -40.375  51.440 -54.357  1.00  0.00     0.009 A 
ENDBRANCH  31  32
ENDBRANCH  30  31
ENDBRANCH  26  30
ENDBRANCH  21  24
ENDBRANCH   1  20
TORSDOF 8
ENDMDL
MODEL 2
REMARK VINA RESULT:      -9.0      1.149      1.299
REMARK  8 active torsions:
REMARK  status: ('A' for Active; 'I' for Inactive)
REMARK       I    between atoms: C_2  and  N_3 
REMARK    1  A    between atoms: N_6  and  C_7 
REMARK    2  A    between atoms: C_8  and  N_9 
REMARK    3  A    between atoms: N_9  and  C_10 
REMARK    4  A    between atoms: C_10  and  N_11 
REMARK       I    between atoms: N_11  and  C_12 
REMARK    5  A    between atoms: C_12  and  C_13 
REMARK    6  A    between atoms: C_15  and  O_16 
REMARK    7  A    between atoms: O_16  and  C_17 
REMARK    8  A    between atoms: C_17  and  C_18 
ROOT
HETATM    1  C   UNL     1     -43.762  60.155 -54.583  1.00  0.00     0.179 C 
HETATM    2  S   UNL     1     -44.060  61.308 -53.408  1.00  0.00    -0.040 SA
ENDROOT
BRANCH   1   3
HETATM    3  N   UNL     1     -44.062  60.420 -55.871  1.00  0.00    -0.331 N 
HETATM    4  H   UNL     1     -44.970  60.099 -56.198  1.00  0.00     0.168 HD
BRANCH   3   5
HETATM    5  C   UNL     1     -43.233  60.817 -56.947  1.00  0.00     0.061 A 
HETATM    6  C   UNL     1     -42.939  59.817 -57.918  1.00  0.00     0.057 A 
HETATM    7  C   UNL     1     -41.948  60.105 -58.865  1.00  0.00     0.031 A 
HETATM    8  C   UNL     1     -41.311  61.351 -58.892  1.00  0.00     0.002 A 
HETATM    9  C   UNL     1     -41.649  62.332 -57.967  1.00  0.00     0.002 A 
HETATM   10  C   UNL     1     -42.604  62.065 -56.988  1.00  0.00     0.032 A 
BRANCH   6  11
HETATM   11  N   UNL     1     -43.651  58.598 -57.894  1.00  0.00    -0.376 N 
HETATM   12  C   UNL     1     -44.845  58.595 -58.794  1.00  0.00     0.143 C 
HETATM   13  C   UNL     1     -44.498  58.051 -60.194  1.00  0.00     0.145 C 
HETATM   14  N   UNL     1     -43.889  56.721 -60.078  1.00  0.00    -0.349 N 
HETATM   15  C   UNL     1     -44.596  55.535 -60.193  1.00  0.00     0.215 C 
HETATM   16  C   UNL     1     -42.661  56.728 -59.279  1.00  0.00     0.145 C 
HETATM   17  C   UNL     1     -45.921  55.591 -60.909  1.00  0.00     0.117 C 
HETATM   18  O   UNL     1     -44.178  54.466 -59.748  1.00  0.00    -0.274 OA
HETATM   19  C   UNL     1     -42.919  57.306 -57.869  1.00  0.00     0.143 C 
ENDBRANCH   6  11
ENDBRANCH   3   5
ENDBRANCH   1   3
BRANCH   1  20
HETATM   20  N   UNL     1     -43.163  58.994 -54.202  1.00  0.00    -0.299 N 
HETATM   21  C   UNL     1     -41.839  58.866 -53.791  1.00  0.00     0.257 C 
HETATM   22  O   UNL     1     -40.921  59.649 -53.994  1.00  0.00    -0.267 OA
HETATM   23  H   UNL     1     -43.812  58.406 -53.696  1.00  0.00     0.171 HD
BRANCH  21  24
HETATM   24  C   UNL     1     -41.585  57.669 -52.947  1.00  0.00     0.035 A 
HETATM   25  C   UNL     1     -41.709  56.377 -53.465  1.00  0.00     0.053 A 
HETATM   26  C   UNL     1     -41.559  55.286 -52.613  1.00  0.00     0.070 A 
HETATM   27  C   UNL     1     -41.239  55.462 -51.268  1.00  0.00     0.037 A 
HETATM   28  C   UNL     1     -41.086  56.752 -50.759  1.00  0.00     0.004 A 
HETATM   29  C   UNL     1     -41.257  57.857 -51.597  1.00  0.00     0.017 A 
BRANCH  26  30
HETATM   30  O   UNL     1     -41.671  54.036 -53.154  1.00  0.00    -0.347 OA
BRANCH  30  31
HETATM   31  C   UNL     1     -40.449  53.640 -53.787  1.00  0.00     0.214 C 
BRANCH  31  32
HETATM   32  C   UNL     1     -40.173  52.213 -53.385  1.00  0.00    -0.034 A 
HETATM   33  C   UNL     1     -39.804  51.906 -52.068  1.00  0.00     0.009 A 
HETATM   34  C   UNL     1     -39.510  50.591 -51.705  1.00  0.00     0.001 A 
HETATM   35  C   UNL     1     -39.574  49.573 -52.654  1.00  0.00     0.000 A 
HETATM   36  C   UNL     1     -39.929  49.869 -53.969  1.00  0.00     0.001 A 
HETATM   37  C   UNL     1     -40.224  51.183 -54.335  1.00  0.00     0.009 A 
ENDBRANCH  31  32
ENDBRANCH  30  31
ENDBRANCH  26  30
ENDBRANCH  21  24
ENDBRANCH   1  20
TORSDOF 8
ENDMDL
MODEL 3
REMARK VINA RESULT:      -8.8      3.251      5.352
REMARK  8 active torsions:
REMARK  status: ('A' for Active; 'I' for Inactive)
REMARK       I    between atoms: C_2  and  N_3 
REMARK    1  A    between atoms: N_6  and  C_7 
REMARK    2  A    between atoms: C_8  and  N_9 
REMARK    3  A    between atoms: N_9  and  C_10 
REMARK    4  A    between atoms: C_10  and  N_11 
REMARK       I    between atoms: N_11  and  C_12 
REMARK    5  A    between atoms: C_12  and  C_13 
REMARK    6  A    between atoms: C_15  and  O_16 
REMARK    7  A    between atoms: O_16  and  C_17 
REMARK    8  A    between atoms: C_17  and  C_18 
ROOT
HETATM    1  C   UNL     1     -42.333  59.176 -55.708  1.00  0.00     0.179 C 
HETATM    2  S   UNL     1     -43.267  58.589 -56.965  1.00  0.00    -0.040 SA
ENDROOT
BRANCH   1   3
HETATM    3  N   UNL     1     -42.162  60.507 -55.567  1.00  0.00    -0.331 N 
HETATM    4  H   UNL     1     -41.306  60.806 -55.106  1.00  0.00     0.168 HD
BRANCH   3   5
HETATM    5  C   UNL     1     -43.087  61.572 -55.686  1.00  0.00     0.061 A 
HETATM    6  C   UNL     1     -44.084  61.659 -54.673  1.00  0.00     0.057 A 
HETATM    7  C   UNL     1     -45.142  62.553 -54.881  1.00  0.00     0.031 A 
HETATM    8  C   UNL     1     -45.187  63.374 -56.013  1.00  0.00     0.002 A 
HETATM    9  C   UNL     1     -44.175  63.311 -56.966  1.00  0.00     0.002 A 
HETATM   10  C   UNL     1     -43.128  62.405 -56.810  1.00  0.00     0.032 A 
BRANCH   6  11
HETATM   11  N   UNL     1     -43.966  60.858 -53.517  1.00  0.00    -0.376 N 
HETATM   12  C   UNL     1     -43.470  61.614 -52.325  1.00  0.00     0.143 C 
HETATM   13  C   UNL     1     -44.634  62.178 -51.487  1.00  0.00     0.145 C 
HETATM   14  N   UNL     1     -45.552  61.096 -51.112  1.00  0.00    -0.349 N 
HETATM   15  C   UNL     1     -45.495  60.417 -49.906  1.00  0.00     0.215 C 
HETATM   16  C   UNL     1     -46.123  60.411 -52.275  1.00  0.00     0.145 C 
HETATM   17  C   UNL     1     -44.783  61.099 -48.766  1.00  0.00     0.117 C 
HETATM   18  O   UNL     1     -46.004  59.308 -49.744  1.00  0.00    -0.274 OA
HETATM   19  C   UNL     1     -45.013  59.854 -53.193  1.00  0.00     0.143 C 
ENDBRANCH   6  11
ENDBRANCH   3   5
ENDBRANCH   1   3
BRANCH   1  20
HETATM   20  N   UNL     1     -41.818  58.282 -54.820  1.00  0.00    -0.299 N 
HETATM   21  C   UNL     1     -41.102  58.607 -53.672  1.00  0.00     0.257 C 
HETATM   22  O   UNL     1     -40.540  59.665 -53.423  1.00  0.00    -0.267 OA
HETATM   23  H   UNL     1     -42.438  57.490 -54.711  1.00  0.00     0.171 HD
BRANCH  21  24
HETATM   24  C   UNL     1     -41.119  57.544 -52.632  1.00  0.00     0.035 A 
HETATM   25  C   UNL     1     -41.267  56.198 -52.974  1.00  0.00     0.053 A 
HETATM   26  C   UNL     1     -41.379  55.248 -51.962  1.00  0.00     0.070 A 
HETATM   27  C   UNL     1     -41.296  55.614 -50.619  1.00  0.00     0.037 A 
HETATM   28  C   UNL     1     -41.118  56.955 -50.281  1.00  0.00     0.004 A 
HETATM   29  C   UNL     1     -41.029  57.922 -51.285  1.00  0.00     0.017 A 
BRANCH  26  30
HETATM   30  O   UNL     1     -41.507  53.938 -52.329  1.00  0.00    -0.347 OA
BRANCH  30  31
HETATM   31  C   UNL     1     -40.597  53.610 -53.385  1.00  0.00     0.214 C 
BRANCH  31  32
HETATM   32  C   UNL     1     -40.241  52.152 -53.238  1.00  0.00    -0.034 A 
HETATM   33  C   UNL     1     -39.828  51.643 -51.999  1.00  0.00     0.009 A 
HETATM   34  C   UNL     1     -39.461  50.303 -51.872  1.00  0.00     0.001 A 
HETATM   35  C   UNL     1     -39.495  49.461 -52.982  1.00  0.00     0.000 A 
HETATM   36  C   UNL     1     -39.893  49.959 -54.221  1.00  0.00     0.001 A 
HETATM   37  C   UNL     1     -40.262  51.298 -54.351  1.00  0.00     0.009 A 
ENDBRANCH  31  32
ENDBRANCH  30  31
ENDBRANCH  26  30
ENDBRANCH  21  24
ENDBRANCH   1  20
TORSDOF 8
ENDMDL
MODEL 4
REMARK VINA RESULT:      -8.7      4.892      7.680
REMARK  8 active torsions:
REMARK  status: ('A' for Active; 'I' for Inactive)
REMARK       I    between atoms: C_2  and  N_3 
REMARK    1  A    between atoms: N_6  and  C_7 
REMARK    2  A    between atoms: C_8  and  N_9 
REMARK    3  A    between atoms: N_9  and  C_10 
REMARK    4  A    between atoms: C_10  and  N_11 
REMARK       I    between atoms: N_11  and  C_12 
REMARK    5  A    between atoms: C_12  and  C_13 
REMARK    6  A    between atoms: C_15  and  O_16 
REMARK    7  A    between atoms: O_16  and  C_17 
REMARK    8  A    between atoms: C_17  and  C_18 
ROOT
HETATM    1  C   UNL     1     -42.389  56.263 -50.841  1.00  0.00     0.179 C 
HETATM    2  S   UNL     1     -44.005  55.869 -50.669  1.00  0.00    -0.040 SA
ENDROOT
BRANCH   1   3
HETATM    3  N   UNL     1     -42.012  57.558 -50.833  1.00  0.00    -0.331 N 
HETATM    4  H   UNL     1     -41.971  58.011 -49.923  1.00  0.00     0.168 HD
BRANCH   3   5
HETATM    5  C   UNL     1     -41.931  58.501 -51.886  1.00  0.00     0.061 A 
HETATM    6  C   UNL     1     -42.822  59.609 -51.809  1.00  0.00     0.057 A 
HETATM    7  C   UNL     1     -42.929  60.433 -52.937  1.00  0.00     0.031 A 
HETATM    8  C   UNL     1     -42.144  60.211 -54.075  1.00  0.00     0.002 A 
HETATM    9  C   UNL     1     -41.242  59.154 -54.109  1.00  0.00     0.002 A 
HETATM   10  C   UNL     1     -41.138  58.292 -53.020  1.00  0.00     0.032 A 
BRANCH   6  11
HETATM   11  N   UNL     1     -43.547  59.833 -50.619  1.00  0.00    -0.376 N 
HETATM   12  C   UNL     1     -43.001  60.960 -49.800  1.00  0.00     0.143 C 
HETATM   13  C   UNL     1     -43.685  62.297 -50.149  1.00  0.00     0.145 C 
HETATM   14  N   UNL     1     -45.140  62.166 -50.009  1.00  0.00    -0.349 N 
HETATM   15  C   UNL     1     -45.843  62.524 -48.870  1.00  0.00     0.215 C 
HETATM   16  C   UNL     1     -45.701  61.131 -50.881  1.00  0.00     0.145 C 
HETATM   17  C   UNL     1     -45.176  63.493 -47.927  1.00  0.00     0.117 C 
HETATM   18  O   UNL     1     -46.968  62.090 -48.620  1.00  0.00    -0.274 OA
HETATM   19  C   UNL     1     -45.031  59.763 -50.623  1.00  0.00     0.143 C 
ENDBRANCH   6  11
ENDBRANCH   3   5
ENDBRANCH   1   3
BRANCH   1  20
HETATM   20  N   UNL     1     -41.488  55.247 -50.925  1.00  0.00    -0.299 N 
HETATM   21  C   UNL     1     -41.185  54.351 -49.903  1.00  0.00     0.257 C 
HETATM   22  O   UNL     1     -41.400  54.492 -48.707  1.00  0.00    -0.267 OA
HETATM   23  H   UNL     1     -41.502  54.832 -51.848  1.00  0.00     0.171 HD
BRANCH  21  24
HETATM   24  C   UNL     1     -40.611  53.066 -50.381  1.00  0.00     0.035 A 
HETATM   25  C   UNL     1     -40.066  52.947 -51.662  1.00  0.00     0.053 A 
HETATM   26  C   UNL     1     -39.632  51.700 -52.103  1.00  0.00     0.070 A 
HETATM   27  C   UNL     1     -39.687  50.583 -51.270  1.00  0.00     0.037 A 
HETATM   28  C   UNL     1     -40.204  50.710 -49.981  1.00  0.00     0.004 A 
HETATM   29  C   UNL     1     -40.666  51.950 -49.534  1.00  0.00     0.017 A 
BRANCH  26  30
HETATM   30  O   UNL     1     -39.089  51.620 -53.354  1.00  0.00    -0.347 OA
BRANCH  30  31
HETATM   31  C   UNL     1     -40.108  51.443 -54.346  1.00  0.00     0.214 C 
BRANCH  31  32
HETATM   32  C   UNL     1     -40.747  52.788 -54.582  1.00  0.00    -0.034 A 
HETATM   33  C   UNL     1     -39.965  53.891 -54.949  1.00  0.00     0.009 A 
HETATM   34  C   UNL     1     -40.551  55.145 -55.130  1.00  0.00     0.001 A 
HETATM   35  C   UNL     1     -41.922  55.308 -54.938  1.00  0.00     0.000 A 
HETATM   36  C   UNL     1     -42.707  54.221 -54.564  1.00  0.00     0.001 A 
HETATM   37  C   UNL     1     -42.124  52.966 -54.383  1.00  0.00     0.009 A 
ENDBRANCH  31  32
ENDBRANCH  30  31
ENDBRANCH  26  30
ENDBRANCH  21  24
ENDBRANCH   1  20
TORSDOF 8
ENDMDL
MODEL 5
REMARK VINA RESULT:      -8.6      2.323      4.008
REMARK  8 active torsions:
REMARK  status: ('A' for Active; 'I' for Inactive)
REMARK       I    between atoms: C_2  and  N_3 
REMARK    1  A    between atoms: N_6  and  C_7 
REMARK    2  A    between atoms: C_8  and  N_9 
REMARK    3  A    between atoms: N_9  and  C_10 
REMARK    4  A    between atoms: C_10  and  N_11 
REMARK       I    between atoms: N_11  and  C_12 
REMARK    5  A    between atoms: C_12  and  C_13 
REMARK    6  A    between atoms: C_15  and  O_16 
REMARK    7  A    between atoms: O_16  and  C_17 
REMARK    8  A    between atoms: C_17  and  C_18 
ROOT
HETATM    1  C   UNL     1     -44.497  59.152 -54.181  1.00  0.00     0.179 C 
HETATM    2  S   UNL     1     -45.172  60.682 -54.169  1.00  0.00    -0.040 SA
ENDROOT
BRANCH   1   3
HETATM    3  N   UNL     1     -44.740  58.323 -55.217  1.00  0.00    -0.331 N 
HETATM    4  H   UNL     1     -45.690  58.319 -55.580  1.00  0.00     0.168 HD
BRANCH   3   5
HETATM    5  C   UNL     1     -43.988  57.236 -55.723  1.00  0.00     0.061 A 
HETATM    6  C   UNL     1     -43.628  57.305 -57.099  1.00  0.00     0.057 A 
HETATM    7  C   UNL     1     -43.087  56.153 -57.685  1.00  0.00     0.031 A 
HETATM    8  C   UNL     1     -42.853  54.997 -56.932  1.00  0.00     0.002 A 
HETATM    9  C   UNL     1     -43.163  54.968 -55.577  1.00  0.00     0.002 A 
HETATM   10  C   UNL     1     -43.738  56.082 -54.971  1.00  0.00     0.032 A 
BRANCH   6  11
HETATM   11  N   UNL     1     -43.822  58.511 -57.806  1.00  0.00    -0.376 N 
HETATM   12  C   UNL     1     -42.541  59.188 -58.179  1.00  0.00     0.143 C 
HETATM   13  C   UNL     1     -42.062  58.760 -59.580  1.00  0.00     0.145 C 
HETATM   14  N   UNL     1     -43.122  58.999 -60.567  1.00  0.00    -0.349 N 
HETATM   15  C   UNL     1     -43.209  60.142 -61.346  1.00  0.00     0.215 C 
HETATM   16  C   UNL     1     -44.352  58.262 -60.265  1.00  0.00     0.145 C 
HETATM   17  C   UNL     1     -41.949  60.949 -61.525  1.00  0.00     0.117 C 
HETATM   18  O   UNL     1     -44.256  60.499 -61.886  1.00  0.00    -0.274 OA
HETATM   19  C   UNL     1     -44.873  58.604 -58.852  1.00  0.00     0.143 C 
ENDBRANCH   6  11
ENDBRANCH   3   5
ENDBRANCH   1   3
BRANCH   1  20
HETATM   20  N   UNL     1     -43.665  58.811 -53.159  1.00  0.00    -0.299 N 
HETATM   21  C   UNL     1     -43.998  57.983 -52.091  1.00  0.00     0.257 C 
HETATM   22  O   UNL     1     -45.120  57.687 -51.703  1.00  0.00    -0.267 OA
HETATM   23  H   UNL     1     -42.718  58.695 -53.495  1.00  0.00     0.171 HD
BRANCH  21  24
HETATM   24  C   UNL     1     -42.823  57.349 -51.434  1.00  0.00     0.035 A 
HETATM   25  C   UNL     1     -42.725  55.961 -51.307  1.00  0.00     0.053 A 
HETATM   26  C   UNL     1     -41.658  55.418 -50.597  1.00  0.00     0.070 A 
HETATM   27  C   UNL     1     -40.664  56.232 -50.056  1.00  0.00     0.037 A 
HETATM   28  C   UNL     1     -40.748  57.616 -50.210  1.00  0.00     0.004 A 
HETATM   29  C   UNL     1     -41.826  58.177 -50.899  1.00  0.00     0.017 A 
BRANCH  26  30
HETATM   30  O   UNL     1     -41.582  54.057 -50.504  1.00  0.00    -0.347 OA
BRANCH  30  31
HETATM   31  C   UNL     1     -40.234  53.605 -50.679  1.00  0.00     0.214 C 
BRANCH  31  32
HETATM   32  C   UNL     1     -40.194  52.777 -51.938  1.00  0.00    -0.034 A 
HETATM   33  C   UNL     1     -40.828  53.227 -53.104  1.00  0.00     0.009 A 
HETATM   34  C   UNL     1     -40.824  52.442 -54.258  1.00  0.00     0.001 A 
HETATM   35  C   UNL     1     -40.196  51.198 -54.255  1.00  0.00     0.000 A 
HETATM   36  C   UNL     1     -39.573  50.736 -53.098  1.00  0.00     0.001 A 
HETATM   37  C   UNL     1     -39.573  51.519 -51.943  1.00  0.00     0.009 A 
ENDBRANCH  31  32
ENDBRANCH  30  31
ENDBRANCH  26  30
ENDBRANCH  21  24
ENDBRANCH   1  20
TORSDOF 8
ENDMDL
MODEL 6
REMARK VINA RESULT:      -8.3      4.300      8.949
REMARK  8 active torsions:
REMARK  status: ('A' for Active; 'I' for Inactive)
REMARK       I    between atoms: C_2  and  N_3 
REMARK    1  A    between atoms: N_6  and  C_7 
REMARK    2  A    between atoms: C_8  and  N_9 
REMARK    3  A    between atoms: N_9  and  C_10 
REMARK    4  A    between atoms: C_10  and  N_11 
REMARK       I    between atoms: N_11  and  C_12 
REMARK    5  A    between atoms: C_12  and  C_13 
REMARK    6  A    between atoms: C_15  and  O_16 
REMARK    7  A    between atoms: O_16  and  C_17 
REMARK    8  A    between atoms: C_17  and  C_18 
ROOT
HETATM    1  C   UNL     1     -40.925  54.517 -50.087  1.00  0.00     0.179 C 
HETATM    2  S   UNL     1     -40.322  54.216 -48.556  1.00  0.00    -0.040 SA
ENDROOT
BRANCH   1   3
HETATM    3  N   UNL     1     -41.340  53.490 -50.856  1.00  0.00    -0.331 N 
HETATM    4  H   UNL     1     -42.165  52.988 -50.532  1.00  0.00     0.168 HD
BRANCH   3   5
HETATM    5  C   UNL     1     -40.680  52.788 -51.892  1.00  0.00     0.061 A 
HETATM    6  C   UNL     1     -41.014  53.168 -53.223  1.00  0.00     0.057 A 
HETATM    7  C   UNL     1     -40.557  52.349 -54.264  1.00  0.00     0.031 A 
HETATM    8  C   UNL     1     -39.752  51.233 -54.010  1.00  0.00     0.002 A 
HETATM    9  C   UNL     1     -39.394  50.909 -52.705  1.00  0.00     0.002 A 
HETATM   10  C   UNL     1     -39.863  51.679 -51.644  1.00  0.00     0.032 A 
BRANCH   6  11
HETATM   11  N   UNL     1     -41.774  54.337 -53.439  1.00  0.00    -0.376 N 
HETATM   12  C   UNL     1     -40.967  55.474 -53.980  1.00  0.00     0.143 C 
HETATM   13  C   UNL     1     -40.988  55.501 -55.521  1.00  0.00     0.145 C 
HETATM   14  N   UNL     1     -42.375  55.530 -56.002  1.00  0.00    -0.349 N 
HETATM   15  C   UNL     1     -43.053  56.691 -56.336  1.00  0.00     0.215 C 
HETATM   16  C   UNL     1     -43.151  54.368 -55.560  1.00  0.00     0.145 C 
HETATM   17  C   UNL     1     -42.220  57.905 -56.658  1.00  0.00     0.117 C 
HETATM   18  O   UNL     1     -44.282  56.752 -56.384  1.00  0.00    -0.274 OA
HETATM   19  C   UNL     1     -43.138  54.245 -54.020  1.00  0.00     0.143 C 
ENDBRANCH   6  11
ENDBRANCH   3   5
ENDBRANCH   1   3
BRANCH   1  20
HETATM   20  N   UNL     1     -41.033  55.813 -50.489  1.00  0.00    -0.299 N 
HETATM   21  C   UNL     1     -42.227  56.477 -50.755  1.00  0.00     0.257 C 
HETATM   22  O   UNL     1     -43.318  55.976 -50.992  1.00  0.00    -0.267 OA
HETATM   23  H   UNL     1     -40.332  56.386 -50.038  1.00  0.00     0.171 HD
BRANCH  21  24
HETATM   24  C   UNL     1     -42.127  57.957 -50.649  1.00  0.00     0.035 A 
HETATM   25  C   UNL     1     -43.220  58.779 -50.935  1.00  0.00     0.053 A 
HETATM   26  C   UNL     1     -43.053  60.162 -50.920  1.00  0.00     0.070 A 
HETATM   27  C   UNL     1     -41.830  60.735 -50.575  1.00  0.00     0.037 A 
HETATM   28  C   UNL     1     -40.748  59.912 -50.260  1.00  0.00     0.004 A 
HETATM   29  C   UNL     1     -40.894  58.523 -50.296  1.00  0.00     0.017 A 
BRANCH  26  30
HETATM   30  O   UNL     1     -44.144  60.938 -51.189  1.00  0.00    -0.347 OA
BRANCH  30  31
HETATM   31  C   UNL     1     -45.248  60.581 -50.349  1.00  0.00     0.214 C 
BRANCH  31  32
HETATM   32  C   UNL     1     -45.208  61.483 -49.141  1.00  0.00    -0.034 A 
HETATM   33  C   UNL     1     -45.058  62.868 -49.294  1.00  0.00     0.009 A 
HETATM   34  C   UNL     1     -44.982  63.699 -48.175  1.00  0.00     0.001 A 
HETATM   35  C   UNL     1     -45.045  63.153 -46.894  1.00  0.00     0.000 A 
HETATM   36  C   UNL     1     -45.182  61.776 -46.731  1.00  0.00     0.001 A 
HETATM   37  C   UNL     1     -45.260  60.943 -47.848  1.00  0.00     0.009 A 
ENDBRANCH  31  32
ENDBRANCH  30  31
ENDBRANCH  26  30
ENDBRANCH  21  24
ENDBRANCH   1  20
TORSDOF 8
ENDMDL
MODEL 7
REMARK VINA RESULT:      -8.3      2.442      3.161
REMARK  8 active torsions:
REMARK  status: ('A' for Active; 'I' for Inactive)
REMARK       I    between atoms: C_2  and  N_3 
REMARK    1  A    between atoms: N_6  and  C_7 
REMARK    2  A    between atoms: C_8  and  N_9 
REMARK    3  A    between atoms: N_9  and  C_10 
REMARK    4  A    between atoms: C_10  and  N_11 
REMARK       I    between atoms: N_11  and  C_12 
REMARK    5  A    between atoms: C_12  and  C_13 
REMARK    6  A    between atoms: C_15  and  O_16 
REMARK    7  A    between atoms: O_16  and  C_17 
REMARK    8  A    between atoms: C_17  and  C_18 
ROOT
HETATM    1  C   UNL     1     -45.313  59.863 -53.272  1.00  0.00     0.179 C 
HETATM    2  S   UNL     1     -46.121  60.427 -51.920  1.00  0.00    -0.040 SA
ENDROOT
BRANCH   1   3
HETATM    3  N   UNL     1     -45.047  60.705 -54.291  1.00  0.00    -0.331 N 
HETATM    4  H   UNL     1     -44.213  61.280 -54.197  1.00  0.00     0.168 HD
BRANCH   3   5
HETATM    5  C   UNL     1     -45.867  61.152 -55.355  1.00  0.00     0.061 A 
HETATM    6  C   UNL     1     -45.574  60.619 -56.643  1.00  0.00     0.057 A 
HETATM    7  C   UNL     1     -46.209  61.206 -57.746  1.00  0.00     0.031 A 
HETATM    8  C   UNL     1     -47.142  62.235 -57.583  1.00  0.00     0.002 A 
HETATM    9  C   UNL     1     -47.453  62.705 -56.311  1.00  0.00     0.002 A 
HETATM   10  C   UNL     1     -46.811  62.171 -55.196  1.00  0.00     0.032 A 
BRANCH   6  11
HETATM   11  N   UNL     1     -44.675  59.537 -56.757  1.00  0.00    -0.376 N 
HETATM   12  C   UNL     1     -45.356  58.226 -56.987  1.00  0.00     0.143 C 
HETATM   13  C   UNL     1     -45.495  57.916 -58.490  1.00  0.00     0.145 C 
HETATM   14  N   UNL     1     -44.180  57.976 -59.138  1.00  0.00    -0.349 N 
HETATM   15  C   UNL     1     -43.375  56.870 -59.357  1.00  0.00     0.215 C 
HETATM   16  C   UNL     1     -43.543  59.289 -59.004  1.00  0.00     0.145 C 
HETATM   17  C   UNL     1     -44.046  55.521 -59.357  1.00  0.00     0.117 C 
HETATM   18  O   UNL     1     -42.163  56.959 -59.556  1.00  0.00    -0.274 OA
HETATM   19  C   UNL     1     -43.409  59.694 -57.519  1.00  0.00     0.143 C 
ENDBRANCH   6  11
ENDBRANCH   3   5
ENDBRANCH   1   3
BRANCH   1  20
HETATM   20  N   UNL     1     -44.890  58.570 -53.271  1.00  0.00    -0.299 N 
HETATM   21  C   UNL     1     -43.573  58.151 -53.437  1.00  0.00     0.257 C 
HETATM   22  O   UNL     1     -42.647  58.791 -53.917  1.00  0.00    -0.267 OA
HETATM   23  H   UNL     1     -45.418  58.022 -52.604  1.00  0.00     0.171 HD
BRANCH  21  24
HETATM   24  C   UNL     1     -43.297  56.801 -52.879  1.00  0.00     0.035 A 
HETATM   25  C   UNL     1     -42.726  55.796 -53.664  1.00  0.00     0.053 A 
HETATM   26  C   UNL     1     -42.578  54.518 -53.130  1.00  0.00     0.070 A 
HETATM   27  C   UNL     1     -42.943  54.242 -51.813  1.00  0.00     0.037 A 
HETATM   28  C   UNL     1     -43.485  55.255 -51.022  1.00  0.00     0.004 A 
HETATM   29  C   UNL     1     -43.662  56.535 -51.552  1.00  0.00     0.017 A 
BRANCH  26  30
HETATM   30  O   UNL     1     -42.002  53.562 -53.917  1.00  0.00    -0.347 OA
BRANCH  30  31
HETATM   31  C   UNL     1     -40.584  53.521 -53.721  1.00  0.00     0.214 C 
BRANCH  31  32
HETATM   32  C   UNL     1     -40.221  52.111 -53.330  1.00  0.00    -0.034 A 
HETATM   33  C   UNL     1     -39.858  51.811 -52.010  1.00  0.00     0.009 A 
HETATM   34  C   UNL     1     -39.486  50.514 -51.656  1.00  0.00     0.001 A 
HETATM   35  C   UNL     1     -39.463  49.507 -52.619  1.00  0.00     0.000 A 
HETATM   36  C   UNL     1     -39.812  49.795 -53.936  1.00  0.00     0.001 A 
HETATM   37  C   UNL     1     -40.187  51.091 -54.293  1.00  0.00     0.009 A 
ENDBRANCH  31  32
ENDBRANCH  30  31
ENDBRANCH  26  30
ENDBRANCH  21  24
ENDBRANCH   1  20
TORSDOF 8
ENDMDL
MODEL 8
REMARK VINA RESULT:      -8.2      3.257      9.316
REMARK  8 active torsions:
REMARK  status: ('A' for Active; 'I' for Inactive)
REMARK       I    between atoms: C_2  and  N_3 
REMARK    1  A    between atoms: N_6  and  C_7 
REMARK    2  A    between atoms: C_8  and  N_9 
REMARK    3  A    between atoms: N_9  and  C_10 
REMARK    4  A    between atoms: C_10  and  N_11 
REMARK       I    between atoms: N_11  and  C_12 
REMARK    5  A    between atoms: C_12  and  C_13 
REMARK    6  A    between atoms: C_15  and  O_16 
REMARK    7  A    between atoms: O_16  and  C_17 
REMARK    8  A    between atoms: C_17  and  C_18 
ROOT
HETATM    1  C   UNL     1     -42.994  54.562 -54.474  1.00  0.00     0.179 C 
HETATM    2  S   UNL     1     -41.757  53.440 -54.572  1.00  0.00    -0.040 SA
ENDROOT
BRANCH   1   3
HETATM    3  N   UNL     1     -43.549  54.843 -53.278  1.00  0.00    -0.331 N 
HETATM    4  H   UNL     1     -44.514  55.164 -53.292  1.00  0.00     0.168 HD
BRANCH   3   5
HETATM    5  C   UNL     1     -42.953  55.047 -52.010  1.00  0.00     0.061 A 
HETATM    6  C   UNL     1     -42.716  56.401 -51.637  1.00  0.00     0.057 A 
HETATM    7  C   UNL     1     -41.927  56.630 -50.502  1.00  0.00     0.031 A 
HETATM    8  C   UNL     1     -41.440  55.570 -49.730  1.00  0.00     0.002 A 
HETATM    9  C   UNL     1     -41.727  54.255 -50.083  1.00  0.00     0.002 A 
HETATM   10  C   UNL     1     -42.476  53.991 -51.227  1.00  0.00     0.032 A 
BRANCH   6  11
HETATM   11  N   UNL     1     -43.279  57.441 -52.407  1.00  0.00    -0.376 N 
HETATM   12  C   UNL     1     -44.751  57.602 -52.192  1.00  0.00     0.143 C 
HETATM   13  C   UNL     1     -45.052  58.628 -51.082  1.00  0.00     0.145 C 
HETATM   14  N   UNL     1     -44.394  59.904 -51.387  1.00  0.00    -0.349 N 
HETATM   15  C   UNL     1     -45.019  60.962 -52.028  1.00  0.00     0.215 C 
HETATM   16  C   UNL     1     -42.939  59.777 -51.502  1.00  0.00     0.145 C 
HETATM   17  C   UNL     1     -46.526  60.988 -52.001  1.00  0.00     0.117 C 
HETATM   18  O   UNL     1     -44.394  61.858 -52.594  1.00  0.00    -0.274 OA
HETATM   19  C   UNL     1     -42.555  58.728 -52.569  1.00  0.00     0.143 C 
ENDBRANCH   6  11
ENDBRANCH   3   5
ENDBRANCH   1   3
BRANCH   1  20
HETATM   20  N   UNL     1     -43.364  55.208 -55.614  1.00  0.00    -0.299 N 
HETATM   21  C   UNL     1     -42.719  56.315 -56.159  1.00  0.00     0.257 C 
HETATM   22  O   UNL     1     -41.953  57.081 -55.590  1.00  0.00    -0.267 OA
HETATM   23  H   UNL     1     -43.710  54.550 -56.301  1.00  0.00     0.171 HD
BRANCH  21  24
HETATM   24  C   UNL     1     -42.960  56.493 -57.615  1.00  0.00     0.035 A 
HETATM   25  C   UNL     1     -42.721  57.718 -58.245  1.00  0.00     0.053 A 
HETATM   26  C   UNL     1     -43.055  57.868 -59.588  1.00  0.00     0.070 A 
HETATM   27  C   UNL     1     -43.576  56.804 -60.323  1.00  0.00     0.037 A 
HETATM   28  C   UNL     1     -43.786  55.574 -59.701  1.00  0.00     0.004 A 
HETATM   29  C   UNL     1     -43.479  55.416 -58.347  1.00  0.00     0.017 A 
BRANCH  26  30
HETATM   30  O   UNL     1     -42.794  59.072 -60.178  1.00  0.00    -0.347 OA
BRANCH  30  31
HETATM   31  C   UNL     1     -42.831  60.134 -59.218  1.00  0.00     0.214 C 
BRANCH  31  32
HETATM   32  C   UNL     1     -41.740  61.110 -59.580  1.00  0.00    -0.034 A 
HETATM   33  C   UNL     1     -40.926  61.667 -58.585  1.00  0.00     0.009 A 
HETATM   34  C   UNL     1     -39.942  62.600 -58.917  1.00  0.00     0.001 A 
HETATM   35  C   UNL     1     -39.769  62.990 -60.243  1.00  0.00     0.000 A 
HETATM   36  C   UNL     1     -40.580  62.451 -61.239  1.00  0.00     0.001 A 
HETATM   37  C   UNL     1     -41.563  61.517 -60.911  1.00  0.00     0.009 A 
ENDBRANCH  31  32
ENDBRANCH  30  31
ENDBRANCH  26  30
ENDBRANCH  21  24
ENDBRANCH   1  20
TORSDOF 8
ENDMDL
MODEL 9
REMARK VINA RESULT:      -8.1      2.514      3.814
REMARK  8 active torsions:
REMARK  status: ('A' for Active; 'I' for Inactive)
REMARK       I    between atoms: C_2  and  N_3 
REMARK    1  A    between atoms: N_6  and  C_7 
REMARK    2  A    between atoms: C_8  and  N_9 
REMARK    3  A    between atoms: N_9  and  C_10 
REMARK    4  A    between atoms: C_10  and  N_11 
REMARK       I    between atoms: N_11  and  C_12 
REMARK    5  A    between atoms: C_12  and  C_13 
REMARK    6  A    between atoms: C_15  and  O_16 
REMARK    7  A    between atoms: O_16  and  C_17 
REMARK    8  A    between atoms: C_17  and  C_18 
ROOT
HETATM    1  C   UNL     1     -44.333  60.093 -51.683  1.00  0.00     0.179 C 
HETATM    2  S   UNL     1     -45.678  60.531 -50.791  1.00  0.00    -0.040 SA
ENDROOT
BRANCH   1   3
HETATM    3  N   UNL     1     -43.421  61.028 -52.020  1.00  0.00    -0.331 N 
HETATM    4  H   UNL     1     -42.555  61.028 -51.485  1.00  0.00     0.168 HD
BRANCH   3   5
HETATM    5  C   UNL     1     -43.550  62.203 -52.797  1.00  0.00     0.061 A 
HETATM    6  C   UNL     1     -43.409  62.045 -54.206  1.00  0.00     0.057 A 
HETATM    7  C   UNL     1     -43.304  63.209 -54.980  1.00  0.00     0.031 A 
HETATM    8  C   UNL     1     -43.394  64.478 -54.398  1.00  0.00     0.002 A 
HETATM    9  C   UNL     1     -43.583  64.610 -53.027  1.00  0.00     0.002 A 
HETATM   10  C   UNL     1     -43.653  63.474 -52.222  1.00  0.00     0.032 A 
BRANCH   6  11
HETATM   11  N   UNL     1     -43.388  60.747 -54.758  1.00  0.00    -0.376 N 
HETATM   12  C   UNL     1     -44.671  60.371 -55.430  1.00  0.00     0.143 C 
HETATM   13  C   UNL     1     -44.646  60.718 -56.932  1.00  0.00     0.145 C 
HETATM   14  N   UNL     1     -43.483  60.091 -57.571  1.00  0.00    -0.349 N 
HETATM   15  C   UNL     1     -43.525  58.871 -58.227  1.00  0.00     0.215 C 
HETATM   16  C   UNL     1     -42.213  60.528 -56.986  1.00  0.00     0.145 C 
HETATM   17  C   UNL     1     -44.873  58.391 -58.700  1.00  0.00     0.117 C 
HETATM   18  O   UNL     1     -42.518  58.194 -58.435  1.00  0.00    -0.274 OA
HETATM   19  C   UNL     1     -42.178  60.256 -55.466  1.00  0.00     0.143 C 
ENDBRANCH   6  11
ENDBRANCH   3   5
ENDBRANCH   1   3
BRANCH   1  20
HETATM   20  N   UNL     1     -44.170  58.778 -51.991  1.00  0.00    -0.299 N 
HETATM   21  C   UNL     1     -42.949  58.145 -52.207  1.00  0.00     0.257 C 
HETATM   22  O   UNL     1     -41.878  58.672 -52.475  1.00  0.00    -0.267 OA
HETATM   23  H   UNL     1     -44.851  58.210 -51.504  1.00  0.00     0.171 HD
BRANCH  21  24
HETATM   24  C   UNL     1     -42.990  56.673 -51.996  1.00  0.00     0.035 A 
HETATM   25  C   UNL     1     -42.423  55.793 -52.921  1.00  0.00     0.053 A 
HETATM   26  C   UNL     1     -42.573  54.421 -52.734  1.00  0.00     0.070 A 
HETATM   27  C   UNL     1     -43.234  53.916 -51.615  1.00  0.00     0.037 A 
HETATM   28  C   UNL     1     -43.773  54.796 -50.677  1.00  0.00     0.004 A 
HETATM   29  C   UNL     1     -43.652  56.175 -50.865  1.00  0.00     0.017 A 
BRANCH  26  30
HETATM   30  O   UNL     1     -41.993  53.587 -53.647  1.00  0.00    -0.347 OA
BRANCH  30  31
HETATM   31  C   UNL     1     -40.574  53.528 -53.461  1.00  0.00     0.214 C 
BRANCH  31  32
HETATM   32  C   UNL     1     -40.212  52.088 -53.196  1.00  0.00    -0.034 A 
HETATM   33  C   UNL     1     -39.820  51.679 -51.914  1.00  0.00     0.009 A 
HETATM   34  C   UNL     1     -39.448  50.355 -51.678  1.00  0.00     0.001 A 
HETATM   35  C   UNL     1     -39.455  49.431 -52.721  1.00  0.00     0.000 A 
HETATM   36  C   UNL     1     -39.832  49.829 -54.002  1.00  0.00     0.001 A 
HETATM   37  C   UNL     1     -40.206  51.152 -54.240  1.00  0.00     0.009 A 
ENDBRANCH  31  32
ENDBRANCH  30  31
ENDBRANCH  26  30
ENDBRANCH  21  24
ENDBRANCH   1  20
TORSDOF 8
ENDMDL
MODEL 10
REMARK VINA RESULT:      -8.0      3.600      8.360
REMARK  8 active torsions:
REMARK  status: ('A' for Active; 'I' for Inactive)
REMARK       I    between atoms: C_2  and  N_3 
REMARK    1  A    between atoms: N_6  and  C_7 
REMARK    2  A    between atoms: C_8  and  N_9 
REMARK    3  A    between atoms: N_9  and  C_10 
REMARK    4  A    between atoms: C_10  and  N_11 
REMARK       I    between atoms: N_11  and  C_12 
REMARK    5  A    between atoms: C_12  and  C_13 
REMARK    6  A    between atoms: C_15  and  O_16 
REMARK    7  A    between atoms: O_16  and  C_17 
REMARK    8  A    between atoms: C_17  and  C_18 
ROOT
HETATM    1  C   UNL     1     -40.885  54.431 -50.076  1.00  0.00     0.179 C 
HETATM    2  S   UNL     1     -40.289  54.190 -48.532  1.00  0.00    -0.040 SA
ENDROOT
BRANCH   1   3
HETATM    3  N   UNL     1     -41.293  53.374 -50.807  1.00  0.00    -0.331 N 
HETATM    4  H   UNL     1     -42.097  52.861 -50.451  1.00  0.00     0.168 HD
BRANCH   3   5
HETATM    5  C   UNL     1     -40.640  52.661 -51.841  1.00  0.00     0.061 A 
HETATM    6  C   UNL     1     -40.950  53.058 -53.173  1.00  0.00     0.057 A 
HETATM    7  C   UNL     1     -40.503  52.233 -54.214  1.00  0.00     0.031 A 
HETATM    8  C   UNL     1     -39.730  51.095 -53.959  1.00  0.00     0.002 A 
HETATM    9  C   UNL     1     -39.395  50.754 -52.652  1.00  0.00     0.002 A 
HETATM   10  C   UNL     1     -39.855  51.530 -51.591  1.00  0.00     0.032 A 
BRANCH   6  11
HETATM   11  N   UNL     1     -41.677  54.248 -53.390  1.00  0.00    -0.376 N 
HETATM   12  C   UNL     1     -40.854  55.338 -54.001  1.00  0.00     0.143 C 
HETATM   13  C   UNL     1     -40.946  55.322 -55.539  1.00  0.00     0.145 C 
HETATM   14  N   UNL     1     -42.351  55.388 -55.958  1.00  0.00    -0.349 N 
HETATM   15  C   UNL     1     -43.002  56.564 -56.296  1.00  0.00     0.215 C 
HETATM   16  C   UNL     1     -43.147  54.270 -55.446  1.00  0.00     0.145 C 
HETATM   17  C   UNL     1     -42.142  57.736 -56.692  1.00  0.00     0.117 C 
HETATM   18  O   UNL     1     -44.229  56.669 -56.291  1.00  0.00    -0.274 OA
HETATM   19  C   UNL     1     -43.069  54.190 -53.906  1.00  0.00     0.143 C 
ENDBRANCH   6  11
ENDBRANCH   3   5
ENDBRANCH   1   3
BRANCH   1  20
HETATM   20  N   UNL     1     -40.997  55.710 -50.526  1.00  0.00    -0.299 N 
HETATM   21  C   UNL     1     -42.193  56.389 -50.737  1.00  0.00     0.257 C 
HETATM   22  O   UNL     1     -43.308  55.903 -50.873  1.00  0.00    -0.267 OA
HETATM   23  H   UNL     1     -40.254  56.286 -50.152  1.00  0.00     0.171 HD
BRANCH  21  24
HETATM   24  C   UNL     1     -42.058  57.870 -50.704  1.00  0.00     0.035 A 
HETATM   25  C   UNL     1     -43.067  58.701 -51.196  1.00  0.00     0.053 A 
HETATM   26  C   UNL     1     -42.855  60.077 -51.237  1.00  0.00     0.070 A 
HETATM   27  C   UNL     1     -41.676  60.637 -50.750  1.00  0.00     0.037 A 
HETATM   28  C   UNL     1     -40.681  59.808 -50.231  1.00  0.00     0.004 A 
HETATM   29  C   UNL     1     -40.870  58.424 -50.206  1.00  0.00     0.017 A 
BRANCH  26  30
HETATM   30  O   UNL     1     -43.867  60.863 -51.709  1.00  0.00    -0.347 OA
BRANCH  30  31
HETATM   31  C   UNL     1     -43.390  61.769 -52.710  1.00  0.00     0.214 C 
BRANCH  31  32
HETATM   32  C   UNL     1     -43.836  61.240 -54.049  1.00  0.00    -0.034 A 
HETATM   33  C   UNL     1     -43.184  61.640 -55.224  1.00  0.00     0.009 A 
HETATM   34  C   UNL     1     -43.622  61.180 -56.467  1.00  0.00     0.001 A 
HETATM   35  C   UNL     1     -44.720  60.325 -56.548  1.00  0.00     0.000 A 
HETATM   36  C   UNL     1     -45.382  59.931 -55.388  1.00  0.00     0.001 A 
HETATM   37  C   UNL     1     -44.946  60.387 -54.143  1.00  0.00     0.009 A 
ENDBRANCH  31  32
ENDBRANCH  30  31
ENDBRANCH  26  30
ENDBRANCH  21  24
ENDBRANCH   1  20
TORSDOF 8
ENDMDL
