MODEL 1
REMARK VINA RESULT:      -7.8      0.000      0.000
REMARK  6 active torsions:
REMARK  status: ('A' for Active; 'I' for Inactive)
REMARK    1  A    between atoms: C_2  and  C_3 
REMARK       I    between atoms: C_3  and  N_4 
REMARK    2  A    between atoms: N_4  and  C_5 
REMARK    3  A    between atoms: C_7  and  N_8 
REMARK       I    between atoms: N_8  and  C_9 
REMARK    4  A    between atoms: C_9  and  C_10 
REMARK    5  A    between atoms: C_13  and  C_14 
REMARK    6  A    between atoms: C_14  and  C_15 
ROOT
HETATM    1  N   UNL     1     -42.645  55.862 -52.631  1.00  0.00    -0.322 N 
HETATM    2  C   UNL     1     -42.192  56.853 -51.777  1.00  0.00     0.256 C 
HETATM    3  O   UNL     1     -41.055  56.973 -51.337  1.00  0.00    -0.267 OA
HETATM    4  H   UNL     1     -43.630  55.853 -52.838  1.00  0.00     0.169 HD
ENDROOT
BRANCH   1   5
HETATM    5  C   UNL     1     -41.866  54.910 -53.341  1.00  0.00     0.043 A 
HETATM    6  C   UNL     1     -41.407  53.721 -52.749  1.00  0.00     0.059 A 
HETATM    7  C   UNL     1     -40.534  52.862 -53.426  1.00  0.00     0.036 A 
HETATM    8  C   UNL     1     -40.144  53.186 -54.729  1.00  0.00     0.030 A 
HETATM    9  C   UNL     1     -40.617  54.344 -55.344  1.00  0.00     0.011 A 
HETATM   10  C   UNL     1     -41.476  55.218 -54.662  1.00  0.00    -0.035 A 
HETATM   11  C   UNL     1     -41.939  56.459 -55.376  1.00  0.00     0.050 C 
BRANCH   7  12
HETATM   12  N   UNL     1     -39.955  51.704 -52.861  1.00  0.00    -0.327 N 
HETATM   13  C   UNL     1     -40.013  50.409 -53.339  1.00  0.00     0.221 C 
HETATM   14  O   UNL     1     -40.503  50.053 -54.406  1.00  0.00    -0.273 OA
HETATM   15  H   UNL     1     -39.418  51.858 -52.020  1.00  0.00     0.169 HD
BRANCH  13  16
HETATM   16  C   UNL     1     -39.480  49.357 -52.375  1.00  0.00     0.098 C 
HETATM   17  C   UNL     1     -39.498  49.736 -50.905  1.00  0.00     0.014 C 
ENDBRANCH  13  16
ENDBRANCH   7  12
ENDBRANCH   1   5
BRANCH   2  18
HETATM   18  C   UNL     1     -43.200  57.887 -51.394  1.00  0.00     0.032 A 
HETATM   19  C   UNL     1     -44.568  57.617 -51.272  1.00  0.00     0.017 A 
HETATM   20  C   UNL     1     -45.462  58.648 -50.967  1.00  0.00     0.008 A 
HETATM   21  C   UNL     1     -45.004  59.961 -50.771  1.00  0.00    -0.051 A 
HETATM   22  C   UNL     1     -43.628  60.217 -50.853  1.00  0.00     0.008 A 
HETATM   23  C   UNL     1     -42.735  59.189 -51.161  1.00  0.00     0.017 A 
BRANCH  21  24
HETATM   24  C   UNL     1     -45.973  61.080 -50.462  1.00  0.00     0.120 C 
BRANCH  24  25
HETATM   25  C   UNL     1     -45.736  61.465 -49.047  1.00  0.00     0.151 A 
HETATM   26  N   UNL     1     -45.242  62.659 -48.683  1.00  0.00    -0.158 NA
HETATM   27  N   UNL     1     -45.198  62.535 -47.346  1.00  0.00    -0.270 N 
HETATM   28  H   UNL     1     -44.875  63.313 -46.784  1.00  0.00     0.190 HD
HETATM   29  C   UNL     1     -45.614  61.304 -46.952  1.00  0.00     0.227 A 
HETATM   30  N   UNL     1     -45.946  60.595 -48.002  1.00  0.00    -0.225 NA
ENDBRANCH  24  25
ENDBRANCH  21  24
ENDBRANCH   2  18
TORSDOF 6
ENDMDL
MODEL 2
REMARK VINA RESULT:      -7.7      2.174      9.651
REMARK  6 active torsions:
REMARK  status: ('A' for Active; 'I' for Inactive)
REMARK    1  A    between atoms: C_2  and  C_3 
REMARK       I    between atoms: C_3  and  N_4 
REMARK    2  A    between atoms: N_4  and  C_5 
REMARK    3  A    between atoms: C_7  and  N_8 
REMARK       I    between atoms: N_8  and  C_9 
REMARK    4  A    between atoms: C_9  and  C_10 
REMARK    5  A    between atoms: C_13  and  C_14 
REMARK    6  A    between atoms: C_14  and  C_15 
ROOT
HETATM    1  N   UNL     1     -41.707  57.664 -52.365  1.00  0.00    -0.322 N 
HETATM    2  C   UNL     1     -42.470  56.529 -52.579  1.00  0.00     0.256 C 
HETATM    3  O   UNL     1     -43.678  56.420 -52.411  1.00  0.00    -0.267 OA
HETATM    4  H   UNL     1     -40.711  57.571 -52.470  1.00  0.00     0.169 HD
ENDROOT
BRANCH   1   5
HETATM    5  C   UNL     1     -42.172  58.983 -52.116  1.00  0.00     0.043 A 
HETATM    6  C   UNL     1     -42.608  59.400 -50.846  1.00  0.00     0.059 A 
HETATM    7  C   UNL     1     -43.182  60.662 -50.654  1.00  0.00     0.036 A 
HETATM    8  C   UNL     1     -43.288  61.529 -51.745  1.00  0.00     0.030 A 
HETATM    9  C   UNL     1     -42.828  61.145 -53.004  1.00  0.00     0.011 A 
HETATM   10  C   UNL     1     -42.271  59.874 -53.206  1.00  0.00    -0.035 A 
HETATM   11  C   UNL     1     -41.807  59.514 -54.592  1.00  0.00     0.050 C 
BRANCH   7  12
HETATM   12  N   UNL     1     -43.732  61.111 -49.433  1.00  0.00    -0.327 N 
HETATM   13  C   UNL     1     -45.037  60.990 -48.997  1.00  0.00     0.221 C 
HETATM   14  O   UNL     1     -45.935  60.374 -49.561  1.00  0.00    -0.273 OA
HETATM   15  H   UNL     1     -43.077  61.551 -48.803  1.00  0.00     0.169 HD
BRANCH  13  16
HETATM   16  C   UNL     1     -45.356  61.783 -47.735  1.00  0.00     0.098 C 
HETATM   17  C   UNL     1     -44.891  61.164 -46.430  1.00  0.00     0.014 C 
ENDBRANCH  13  16
ENDBRANCH   7  12
ENDBRANCH   1   5
BRANCH   2  18
HETATM   18  C   UNL     1     -41.728  55.340 -53.097  1.00  0.00     0.032 A 
HETATM   19  C   UNL     1     -40.783  55.414 -54.128  1.00  0.00     0.017 A 
HETATM   20  C   UNL     1     -40.170  54.250 -54.603  1.00  0.00     0.008 A 
HETATM   21  C   UNL     1     -40.484  52.997 -54.051  1.00  0.00    -0.051 A 
HETATM   22  C   UNL     1     -41.399  52.935 -52.990  1.00  0.00     0.008 A 
HETATM   23  C   UNL     1     -42.014  54.095 -52.518  1.00  0.00     0.017 A 
BRANCH  21  24
HETATM   24  C   UNL     1     -39.837  51.736 -54.578  1.00  0.00     0.120 C 
BRANCH  24  25
HETATM   25  C   UNL     1     -39.653  50.836 -53.410  1.00  0.00     0.151 A 
HETATM   26  N   UNL     1     -39.822  49.506 -53.474  1.00  0.00    -0.158 NA
HETATM   27  N   UNL     1     -39.564  49.142 -52.207  1.00  0.00    -0.270 N 
HETATM   28  H   UNL     1     -39.597  48.163 -51.953  1.00  0.00     0.190 HD
HETATM   29  C   UNL     1     -39.293  50.222 -51.429  1.00  0.00     0.227 A 
HETATM   30  N   UNL     1     -39.356  51.312 -52.154  1.00  0.00    -0.225 NA
ENDBRANCH  24  25
ENDBRANCH  21  24
ENDBRANCH   2  18
TORSDOF 6
ENDMDL
MODEL 3
REMARK VINA RESULT:      -7.6      2.445      9.804
REMARK  6 active torsions:
REMARK  status: ('A' for Active; 'I' for Inactive)
REMARK    1  A    between atoms: C_2  and  C_3 
REMARK       I    between atoms: C_3  and  N_4 
REMARK    2  A    between atoms: N_4  and  C_5 
REMARK    3  A    between atoms: C_7  and  N_8 
REMARK       I    between atoms: N_8  and  C_9 
REMARK    4  A    between atoms: C_9  and  C_10 
REMARK    5  A    between atoms: C_13  and  C_14 
REMARK    6  A    between atoms: C_14  and  C_15 
ROOT
HETATM    1  N   UNL     1     -42.152  57.126 -52.201  1.00  0.00    -0.322 N 
HETATM    2  C   UNL     1     -41.775  56.864 -53.506  1.00  0.00     0.256 C 
HETATM    3  O   UNL     1     -41.758  57.662 -54.434  1.00  0.00    -0.267 OA
HETATM    4  H   UNL     1     -42.190  56.342 -51.570  1.00  0.00     0.169 HD
ENDROOT
BRANCH   1   5
HETATM    5  C   UNL     1     -42.394  58.394 -51.609  1.00  0.00     0.043 A 
HETATM    6  C   UNL     1     -43.589  59.104 -51.812  1.00  0.00     0.059 A 
HETATM    7  C   UNL     1     -43.752  60.407 -51.326  1.00  0.00     0.036 A 
HETATM    8  C   UNL     1     -42.713  60.990 -50.596  1.00  0.00     0.030 A 
HETATM    9  C   UNL     1     -41.533  60.287 -50.356  1.00  0.00     0.011 A 
HETATM   10  C   UNL     1     -41.357  58.990 -50.858  1.00  0.00    -0.035 A 
HETATM   11  C   UNL     1     -40.054  58.290 -50.577  1.00  0.00     0.050 C 
BRANCH   7  12
HETATM   12  N   UNL     1     -44.883  61.216 -51.574  1.00  0.00    -0.327 N 
HETATM   13  C   UNL     1     -45.991  61.392 -50.769  1.00  0.00     0.221 C 
HETATM   14  O   UNL     1     -46.142  60.946 -49.636  1.00  0.00    -0.273 OA
HETATM   15  H   UNL     1     -44.855  61.741 -52.436  1.00  0.00     0.169 HD
BRANCH  13  16
HETATM   16  C   UNL     1     -47.137  62.149 -51.429  1.00  0.00     0.098 C 
HETATM   17  C   UNL     1     -47.383  61.832 -52.893  1.00  0.00     0.014 C 
ENDBRANCH  13  16
ENDBRANCH   7  12
ENDBRANCH   1   5
BRANCH   2  18
HETATM   18  C   UNL     1     -41.314  55.469 -53.778  1.00  0.00     0.032 A 
HETATM   19  C   UNL     1     -40.309  55.159 -54.702  1.00  0.00     0.017 A 
HETATM   20  C   UNL     1     -39.970  53.825 -54.949  1.00  0.00     0.008 A 
HETATM   21  C   UNL     1     -40.622  52.781 -54.271  1.00  0.00    -0.051 A 
HETATM   22  C   UNL     1     -41.597  53.100 -53.316  1.00  0.00     0.008 A 
HETATM   23  C   UNL     1     -41.939  54.431 -53.072  1.00  0.00     0.017 A 
BRANCH  21  24
HETATM   24  C   UNL     1     -40.270  51.338 -54.552  1.00  0.00     0.120 C 
BRANCH  24  25
HETATM   25  C   UNL     1     -39.871  50.740 -53.252  1.00  0.00     0.151 A 
HETATM   26  N   UNL     1     -39.847  49.416 -53.029  1.00  0.00    -0.158 NA
HETATM   27  N   UNL     1     -39.446  49.368 -51.748  1.00  0.00    -0.270 N 
HETATM   28  H   UNL     1     -39.316  48.469 -51.301  1.00  0.00     0.190 HD
HETATM   29  C   UNL     1     -39.280  50.614 -51.236  1.00  0.00     0.227 A 
HETATM   30  N   UNL     1     -39.556  51.507 -52.155  1.00  0.00    -0.225 NA
ENDBRANCH  24  25
ENDBRANCH  21  24
ENDBRANCH   2  18
TORSDOF 6
ENDMDL
MODEL 4
REMARK VINA RESULT:      -7.6      2.847      4.408
REMARK  6 active torsions:
REMARK  status: ('A' for Active; 'I' for Inactive)
REMARK    1  A    between atoms: C_2  and  C_3 
REMARK       I    between atoms: C_3  and  N_4 
REMARK    2  A    between atoms: N_4  and  C_5 
REMARK    3  A    between atoms: C_7  and  N_8 
REMARK       I    between atoms: N_8  and  C_9 
REMARK    4  A    between atoms: C_9  and  C_10 
REMARK    5  A    between atoms: C_13  and  C_14 
REMARK    6  A    between atoms: C_14  and  C_15 
ROOT
HETATM    1  N   UNL     1     -43.262  56.881 -52.404  1.00  0.00    -0.322 N 
HETATM    2  C   UNL     1     -42.647  58.104 -52.197  1.00  0.00     0.256 C 
HETATM    3  O   UNL     1     -41.579  58.472 -52.671  1.00  0.00    -0.267 OA
HETATM    4  H   UNL     1     -44.099  56.697 -51.878  1.00  0.00     0.169 HD
ENDROOT
BRANCH   1   5
HETATM    5  C   UNL     1     -42.911  55.887 -53.356  1.00  0.00     0.043 A 
HETATM    6  C   UNL     1     -43.190  56.025 -54.726  1.00  0.00     0.059 A 
HETATM    7  C   UNL     1     -42.953  54.979 -55.625  1.00  0.00     0.036 A 
HETATM    8  C   UNL     1     -42.396  53.790 -55.145  1.00  0.00     0.030 A 
HETATM    9  C   UNL     1     -42.081  53.648 -53.795  1.00  0.00     0.011 A 
HETATM   10  C   UNL     1     -42.335  54.686 -52.887  1.00  0.00    -0.035 A 
HETATM   11  C   UNL     1     -41.986  54.466 -51.439  1.00  0.00     0.050 C 
BRANCH   7  12
HETATM   12  N   UNL     1     -43.298  55.008 -56.994  1.00  0.00    -0.327 N 
HETATM   13  C   UNL     1     -43.089  56.032 -57.898  1.00  0.00     0.221 C 
HETATM   14  O   UNL     1     -42.469  57.069 -57.687  1.00  0.00    -0.273 OA
HETATM   15  H   UNL     1     -43.729  54.167 -57.348  1.00  0.00     0.169 HD
BRANCH  13  16
HETATM   16  C   UNL     1     -43.785  55.841 -59.240  1.00  0.00     0.098 C 
HETATM   17  C   UNL     1     -44.399  54.473 -59.478  1.00  0.00     0.014 C 
ENDBRANCH  13  16
ENDBRANCH   7  12
ENDBRANCH   1   5
BRANCH   2  18
HETATM   18  C   UNL     1     -43.395  59.066 -51.333  1.00  0.00     0.032 A 
HETATM   19  C   UNL     1     -42.802  60.188 -50.742  1.00  0.00     0.017 A 
HETATM   20  C   UNL     1     -43.551  61.013 -49.896  1.00  0.00     0.008 A 
HETATM   21  C   UNL     1     -44.903  60.736 -49.635  1.00  0.00    -0.051 A 
HETATM   22  C   UNL     1     -45.501  59.635 -50.264  1.00  0.00     0.008 A 
HETATM   23  C   UNL     1     -44.755  58.809 -51.105  1.00  0.00     0.017 A 
BRANCH  21  24
HETATM   24  C   UNL     1     -45.706  61.616 -48.704  1.00  0.00     0.120 C 
BRANCH  24  25
HETATM   25  C   UNL     1     -45.676  60.959 -47.372  1.00  0.00     0.151 A 
HETATM   26  N   UNL     1     -44.685  61.142 -46.485  1.00  0.00    -0.158 NA
HETATM   27  N   UNL     1     -45.084  60.357 -45.471  1.00  0.00    -0.270 N 
HETATM   28  H   UNL     1     -44.525  60.309 -44.629  1.00  0.00     0.190 HD
HETATM   29  C   UNL     1     -46.241  59.714 -45.772  1.00  0.00     0.227 A 
HETATM   30  N   UNL     1     -46.636  60.058 -46.973  1.00  0.00    -0.225 NA
ENDBRANCH  24  25
ENDBRANCH  21  24
ENDBRANCH   2  18
TORSDOF 6
ENDMDL
MODEL 5
REMARK VINA RESULT:      -7.5      5.495      8.130
REMARK  6 active torsions:
REMARK  status: ('A' for Active; 'I' for Inactive)
REMARK    1  A    between atoms: C_2  and  C_3 
REMARK       I    between atoms: C_3  and  N_4 
REMARK    2  A    between atoms: N_4  and  C_5 
REMARK    3  A    between atoms: C_7  and  N_8 
REMARK       I    between atoms: N_8  and  C_9 
REMARK    4  A    between atoms: C_9  and  C_10 
REMARK    5  A    between atoms: C_13  and  C_14 
REMARK    6  A    between atoms: C_14  and  C_15 
ROOT
HETATM    1  N   UNL     1     -42.228  56.583 -56.816  1.00  0.00    -0.322 N 
HETATM    2  C   UNL     1     -42.853  56.406 -58.038  1.00  0.00     0.256 C 
HETATM    3  O   UNL     1     -43.476  55.416 -58.402  1.00  0.00    -0.267 OA
HETATM    4  H   UNL     1     -41.686  57.423 -56.698  1.00  0.00     0.169 HD
ENDROOT
BRANCH   1   5
HETATM    5  C   UNL     1     -42.345  55.768 -55.659  1.00  0.00     0.043 A 
HETATM    6  C   UNL     1     -41.561  54.617 -55.467  1.00  0.00     0.059 A 
HETATM    7  C   UNL     1     -41.784  53.759 -54.385  1.00  0.00     0.036 A 
HETATM    8  C   UNL     1     -42.784  54.079 -53.463  1.00  0.00     0.030 A 
HETATM    9  C   UNL     1     -43.548  55.236 -53.619  1.00  0.00     0.011 A 
HETATM   10  C   UNL     1     -43.343  56.088 -54.713  1.00  0.00    -0.035 A 
HETATM   11  C   UNL     1     -44.210  57.312 -54.833  1.00  0.00     0.050 C 
BRANCH   7  12
HETATM   12  N   UNL     1     -41.105  52.537 -54.182  1.00  0.00    -0.327 N 
HETATM   13  C   UNL     1     -40.209  52.222 -53.178  1.00  0.00     0.221 C 
HETATM   14  O   UNL     1     -39.920  52.929 -52.218  1.00  0.00    -0.273 OA
HETATM   15  H   UNL     1     -41.326  51.807 -54.843  1.00  0.00     0.169 HD
BRANCH  13  16
HETATM   16  C   UNL     1     -39.480  50.899 -53.375  1.00  0.00     0.098 C 
HETATM   17  C   UNL     1     -39.933  50.064 -54.559  1.00  0.00     0.014 C 
ENDBRANCH  13  16
ENDBRANCH   7  12
ENDBRANCH   1   5
BRANCH   2  18
HETATM   18  C   UNL     1     -42.776  57.565 -58.978  1.00  0.00     0.032 A 
HETATM   19  C   UNL     1     -41.854  57.640 -60.029  1.00  0.00     0.017 A 
HETATM   20  C   UNL     1     -41.800  58.783 -60.834  1.00  0.00     0.008 A 
HETATM   21  C   UNL     1     -42.669  59.862 -60.608  1.00  0.00    -0.051 A 
HETATM   22  C   UNL     1     -43.618  59.763 -59.581  1.00  0.00     0.008 A 
HETATM   23  C   UNL     1     -43.671  58.625 -58.775  1.00  0.00     0.017 A 
BRANCH  21  24
HETATM   24  C   UNL     1     -42.596  61.106 -61.464  1.00  0.00     0.120 C 
BRANCH  24  25
HETATM   25  C   UNL     1     -41.373  61.837 -61.044  1.00  0.00     0.151 A 
HETATM   26  N   UNL     1     -41.031  62.020 -59.759  1.00  0.00    -0.158 NA
HETATM   27  N   UNL     1     -39.893  62.722 -59.881  1.00  0.00    -0.270 N 
HETATM   28  H   UNL     1     -39.384  62.995 -59.050  1.00  0.00     0.190 HD
HETATM   29  C   UNL     1     -39.605  62.970 -61.185  1.00  0.00     0.227 A 
HETATM   30  N   UNL     1     -40.528  62.439 -61.948  1.00  0.00    -0.225 NA
ENDBRANCH  24  25
ENDBRANCH  21  24
ENDBRANCH   2  18
TORSDOF 6
ENDMDL
MODEL 6
REMARK VINA RESULT:      -7.4      1.561      2.282
REMARK  6 active torsions:
REMARK  status: ('A' for Active; 'I' for Inactive)
REMARK    1  A    between atoms: C_2  and  C_3 
REMARK       I    between atoms: C_3  and  N_4 
REMARK    2  A    between atoms: N_4  and  C_5 
REMARK    3  A    between atoms: C_7  and  N_8 
REMARK       I    between atoms: N_8  and  C_9 
REMARK    4  A    between atoms: C_9  and  C_10 
REMARK    5  A    between atoms: C_13  and  C_14 
REMARK    6  A    between atoms: C_14  and  C_15 
ROOT
HETATM    1  N   UNL     1     -43.446  56.878 -52.696  1.00  0.00    -0.322 N 
HETATM    2  C   UNL     1     -42.707  57.945 -52.216  1.00  0.00     0.256 C 
HETATM    3  O   UNL     1     -41.520  58.163 -52.426  1.00  0.00    -0.267 OA
HETATM    4  H   UNL     1     -44.394  56.794 -52.366  1.00  0.00     0.169 HD
ENDROOT
BRANCH   1   5
HETATM    5  C   UNL     1     -43.063  55.938 -53.689  1.00  0.00     0.043 A 
HETATM    6  C   UNL     1     -42.427  54.725 -53.372  1.00  0.00     0.059 A 
HETATM    7  C   UNL     1     -41.942  53.876 -54.373  1.00  0.00     0.036 A 
HETATM    8  C   UNL     1     -42.129  54.233 -55.711  1.00  0.00     0.030 A 
HETATM    9  C   UNL     1     -42.788  55.416 -56.044  1.00  0.00     0.011 A 
HETATM   10  C   UNL     1     -43.258  56.280 -55.045  1.00  0.00    -0.035 A 
HETATM   11  C   UNL     1     -43.947  57.549 -55.470  1.00  0.00     0.050 C 
BRANCH   7  12
HETATM   12  N   UNL     1     -41.208  52.694 -54.130  1.00  0.00    -0.327 N 
HETATM   13  C   UNL     1     -40.255  52.474 -53.155  1.00  0.00     0.221 C 
HETATM   14  O   UNL     1     -39.948  53.249 -52.255  1.00  0.00    -0.273 OA
HETATM   15  H   UNL     1     -41.433  51.917 -54.734  1.00  0.00     0.169 HD
BRANCH  13  16
HETATM   16  C   UNL     1     -39.486  51.167 -53.307  1.00  0.00     0.098 C 
HETATM   17  C   UNL     1     -40.022  50.202 -54.349  1.00  0.00     0.014 C 
ENDBRANCH  13  16
ENDBRANCH   7  12
ENDBRANCH   1   5
BRANCH   2  18
HETATM   18  C   UNL     1     -43.461  58.933 -51.387  1.00  0.00     0.032 A 
HETATM   19  C   UNL     1     -42.848  59.998 -50.716  1.00  0.00     0.017 A 
HETATM   20  C   UNL     1     -43.610  60.850 -49.910  1.00  0.00     0.008 A 
HETATM   21  C   UNL     1     -44.994  60.658 -49.768  1.00  0.00    -0.051 A 
HETATM   22  C   UNL     1     -45.608  59.615 -50.476  1.00  0.00     0.008 A 
HETATM   23  C   UNL     1     -44.849  58.762 -51.278  1.00  0.00     0.017 A 
BRANCH  21  24
HETATM   24  C   UNL     1     -45.814  61.566 -48.880  1.00  0.00     0.120 C 
BRANCH  24  25
HETATM   25  C   UNL     1     -45.648  61.061 -47.492  1.00  0.00     0.151 A 
HETATM   26  N   UNL     1     -46.236  59.941 -47.043  1.00  0.00    -0.158 NA
HETATM   27  N   UNL     1     -45.810  59.907 -45.769  1.00  0.00    -0.270 N 
HETATM   28  H   UNL     1     -46.087  59.139 -45.172  1.00  0.00     0.190 HD
HETATM   29  C   UNL     1     -45.037  60.985 -45.480  1.00  0.00     0.227 A 
HETATM   30  N   UNL     1     -44.926  61.745 -46.542  1.00  0.00    -0.225 NA
ENDBRANCH  24  25
ENDBRANCH  21  24
ENDBRANCH   2  18
TORSDOF 6
ENDMDL
MODEL 7
REMARK VINA RESULT:      -7.4      6.086      9.898
REMARK  6 active torsions:
REMARK  status: ('A' for Active; 'I' for Inactive)
REMARK    1  A    between atoms: C_2  and  C_3 
REMARK       I    between atoms: C_3  and  N_4 
REMARK    2  A    between atoms: N_4  and  C_5 
REMARK    3  A    between atoms: C_7  and  N_8 
REMARK       I    between atoms: N_8  and  C_9 
REMARK    4  A    between atoms: C_9  and  C_10 
REMARK    5  A    between atoms: C_13  and  C_14 
REMARK    6  A    between atoms: C_14  and  C_15 
ROOT
HETATM    1  N   UNL     1     -42.602  55.403 -57.465  1.00  0.00    -0.322 N 
HETATM    2  C   UNL     1     -42.941  55.690 -56.154  1.00  0.00     0.256 C 
HETATM    3  O   UNL     1     -43.774  56.506 -55.779  1.00  0.00    -0.267 OA
HETATM    4  H   UNL     1     -41.837  54.764 -57.609  1.00  0.00     0.169 HD
ENDROOT
BRANCH   1   5
HETATM    5  C   UNL     1     -43.274  55.822 -58.644  1.00  0.00     0.043 A 
HETATM    6  C   UNL     1     -43.172  57.131 -59.143  1.00  0.00     0.059 A 
HETATM    7  C   UNL     1     -43.945  57.557 -60.230  1.00  0.00     0.036 A 
HETATM    8  C   UNL     1     -44.807  56.643 -60.845  1.00  0.00     0.030 A 
HETATM    9  C   UNL     1     -44.894  55.331 -60.384  1.00  0.00     0.011 A 
HETATM   10  C   UNL     1     -44.138  54.905 -59.283  1.00  0.00    -0.035 A 
HETATM   11  C   UNL     1     -44.289  53.480 -58.824  1.00  0.00     0.050 C 
BRANCH   7  12
HETATM   12  N   UNL     1     -43.969  58.880 -60.724  1.00  0.00    -0.327 N 
HETATM   13  C   UNL     1     -42.895  59.664 -61.098  1.00  0.00     0.221 C 
HETATM   14  O   UNL     1     -41.724  59.304 -61.161  1.00  0.00    -0.273 OA
HETATM   15  H   UNL     1     -44.889  59.282 -60.832  1.00  0.00     0.169 HD
BRANCH  13  16
HETATM   16  C   UNL     1     -43.242  61.122 -61.368  1.00  0.00     0.098 C 
HETATM   17  C   UNL     1     -44.278  61.738 -60.445  1.00  0.00     0.014 C 
ENDBRANCH  13  16
ENDBRANCH   7  12
ENDBRANCH   1   5
BRANCH   2  18
HETATM   18  C   UNL     1     -42.231  54.889 -55.112  1.00  0.00     0.032 A 
HETATM   19  C   UNL     1     -42.847  54.439 -53.938  1.00  0.00     0.017 A 
HETATM   20  C   UNL     1     -42.104  53.743 -52.979  1.00  0.00     0.008 A 
HETATM   21  C   UNL     1     -40.740  53.478 -53.180  1.00  0.00    -0.051 A 
HETATM   22  C   UNL     1     -40.140  53.894 -54.377  1.00  0.00     0.008 A 
HETATM   23  C   UNL     1     -40.879  54.591 -55.334  1.00  0.00     0.017 A 
BRANCH  21  24
HETATM   24  C   UNL     1     -39.932  52.745 -52.134  1.00  0.00     0.120 C 
BRANCH  24  25
HETATM   25  C   UNL     1     -39.794  51.345 -52.612  1.00  0.00     0.151 A 
HETATM   26  N   UNL     1     -39.511  50.316 -51.798  1.00  0.00    -0.158 NA
HETATM   27  N   UNL     1     -39.478  49.290 -52.665  1.00  0.00    -0.270 N 
HETATM   28  H   UNL     1     -39.300  48.354 -52.323  1.00  0.00     0.190 HD
HETATM   29  C   UNL     1     -39.696  49.713 -53.937  1.00  0.00     0.227 A 
HETATM   30  N   UNL     1     -39.884  51.009 -53.943  1.00  0.00    -0.225 NA
ENDBRANCH  24  25
ENDBRANCH  21  24
ENDBRANCH   2  18
TORSDOF 6
ENDMDL
MODEL 8
REMARK VINA RESULT:      -7.3      5.768      9.357
REMARK  6 active torsions:
REMARK  status: ('A' for Active; 'I' for Inactive)
REMARK    1  A    between atoms: C_2  and  C_3 
REMARK       I    between atoms: C_3  and  N_4 
REMARK    2  A    between atoms: N_4  and  C_5 
REMARK    3  A    between atoms: C_7  and  N_8 
REMARK       I    between atoms: N_8  and  C_9 
REMARK    4  A    between atoms: C_9  and  C_10 
REMARK    5  A    between atoms: C_13  and  C_14 
REMARK    6  A    between atoms: C_14  and  C_15 
ROOT
HETATM    1  N   UNL     1     -42.200  56.315 -57.290  1.00  0.00    -0.322 N 
HETATM    2  C   UNL     1     -42.766  56.122 -56.043  1.00  0.00     0.256 C 
HETATM    3  O   UNL     1     -43.736  56.712 -55.583  1.00  0.00    -0.267 OA
HETATM    4  H   UNL     1     -41.353  55.809 -57.490  1.00  0.00     0.169 HD
ENDROOT
BRANCH   1   5
HETATM    5  C   UNL     1     -42.730  57.066 -58.373  1.00  0.00     0.043 A 
HETATM    6  C   UNL     1     -42.456  58.433 -58.546  1.00  0.00     0.059 A 
HETATM    7  C   UNL     1     -43.092  59.181 -59.543  1.00  0.00     0.036 A 
HETATM    8  C   UNL     1     -43.989  58.538 -60.401  1.00  0.00     0.030 A 
HETATM    9  C   UNL     1     -44.246  57.175 -60.266  1.00  0.00     0.011 A 
HETATM   10  C   UNL     1     -43.627  56.425 -59.256  1.00  0.00    -0.035 A 
HETATM   11  C   UNL     1     -43.958  54.961 -59.153  1.00  0.00     0.050 C 
BRANCH   7  12
HETATM   12  N   UNL     1     -42.943  60.576 -59.714  1.00  0.00    -0.327 N 
HETATM   13  C   UNL     1     -42.157  61.236 -60.638  1.00  0.00     0.221 C 
HETATM   14  O   UNL     1     -41.521  60.718 -61.550  1.00  0.00    -0.273 OA
HETATM   15  H   UNL     1     -43.498  61.146 -59.094  1.00  0.00     0.169 HD
BRANCH  13  16
HETATM   16  C   UNL     1     -42.040  62.738 -60.409  1.00  0.00     0.098 C 
HETATM   17  C   UNL     1     -40.628  63.286 -60.325  1.00  0.00     0.014 C 
ENDBRANCH  13  16
ENDBRANCH   7  12
ENDBRANCH   1   5
BRANCH   2  18
HETATM   18  C   UNL     1     -42.134  55.060 -55.203  1.00  0.00     0.032 A 
HETATM   19  C   UNL     1     -42.771  54.470 -54.104  1.00  0.00     0.017 A 
HETATM   20  C   UNL     1     -42.095  53.523 -53.327  1.00  0.00     0.008 A 
HETATM   21  C   UNL     1     -40.780  53.144 -53.641  1.00  0.00    -0.051 A 
HETATM   22  C   UNL     1     -40.164  53.707 -54.767  1.00  0.00     0.008 A 
HETATM   23  C   UNL     1     -40.835  54.654 -55.541  1.00  0.00     0.017 A 
BRANCH  21  24
HETATM   24  C   UNL     1     -40.042  52.136 -52.789  1.00  0.00     0.120 C 
BRANCH  24  25
HETATM   25  C   UNL     1     -40.090  52.646 -51.394  1.00  0.00     0.151 A 
HETATM   26  N   UNL     1     -40.492  51.900 -50.353  1.00  0.00    -0.158 NA
HETATM   27  N   UNL     1     -40.377  52.773 -49.338  1.00  0.00    -0.270 N 
HETATM   28  H   UNL     1     -40.600  52.474 -48.397  1.00  0.00     0.190 HD
HETATM   29  C   UNL     1     -39.963  53.988 -49.778  1.00  0.00     0.227 A 
HETATM   30  N   UNL     1     -39.787  53.949 -51.076  1.00  0.00    -0.225 NA
ENDBRANCH  24  25
ENDBRANCH  21  24
ENDBRANCH   2  18
TORSDOF 6
ENDMDL
MODEL 9
REMARK VINA RESULT:      -7.3      2.133      9.821
REMARK  6 active torsions:
REMARK  status: ('A' for Active; 'I' for Inactive)
REMARK    1  A    between atoms: C_2  and  C_3 
REMARK       I    between atoms: C_3  and  N_4 
REMARK    2  A    between atoms: N_4  and  C_5 
REMARK    3  A    between atoms: C_7  and  N_8 
REMARK       I    between atoms: N_8  and  C_9 
REMARK    4  A    between atoms: C_9  and  C_10 
REMARK    5  A    between atoms: C_13  and  C_14 
REMARK    6  A    between atoms: C_14  and  C_15 
ROOT
HETATM    1  N   UNL     1     -43.143  58.179 -52.114  1.00  0.00    -0.322 N 
HETATM    2  C   UNL     1     -43.313  56.850 -51.768  1.00  0.00     0.256 C 
HETATM    3  O   UNL     1     -44.113  56.405 -50.954  1.00  0.00    -0.267 OA
HETATM    4  H   UNL     1     -42.385  58.395 -52.740  1.00  0.00     0.169 HD
ENDROOT
BRANCH   1   5
HETATM    5  C   UNL     1     -43.980  59.275 -51.773  1.00  0.00     0.043 A 
HETATM    6  C   UNL     1     -43.884  59.941 -50.539  1.00  0.00     0.059 A 
HETATM    7  C   UNL     1     -44.803  60.931 -50.174  1.00  0.00     0.036 A 
HETATM    8  C   UNL     1     -45.812  61.281 -51.076  1.00  0.00     0.030 A 
HETATM    9  C   UNL     1     -45.900  60.656 -52.319  1.00  0.00     0.011 A 
HETATM   10  C   UNL     1     -44.994  59.649 -52.681  1.00  0.00    -0.035 A 
HETATM   11  C   UNL     1     -45.153  59.002 -54.031  1.00  0.00     0.050 C 
BRANCH   7  12
HETATM   12  N   UNL     1     -44.830  61.571 -48.916  1.00  0.00    -0.327 N 
HETATM   13  C   UNL     1     -45.490  61.164 -47.772  1.00  0.00     0.221 C 
HETATM   14  O   UNL     1     -46.097  60.108 -47.624  1.00  0.00    -0.273 OA
HETATM   15  H   UNL     1     -44.278  62.413 -48.850  1.00  0.00     0.169 HD
BRANCH  13  16
HETATM   16  C   UNL     1     -45.505  62.196 -46.652  1.00  0.00     0.098 C 
HETATM   17  C   UNL     1     -45.154  63.617 -47.055  1.00  0.00     0.014 C 
ENDBRANCH  13  16
ENDBRANCH   7  12
ENDBRANCH   1   5
BRANCH   2  18
HETATM   18  C   UNL     1     -42.445  55.876 -52.496  1.00  0.00     0.032 A 
HETATM   19  C   UNL     1     -41.313  56.255 -53.228  1.00  0.00     0.017 A 
HETATM   20  C   UNL     1     -40.581  55.294 -53.933  1.00  0.00     0.008 A 
HETATM   21  C   UNL     1     -40.961  53.943 -53.912  1.00  0.00    -0.051 A 
HETATM   22  C   UNL     1     -42.071  53.564 -53.144  1.00  0.00     0.008 A 
HETATM   23  C   UNL     1     -42.804  54.522 -52.442  1.00  0.00     0.017 A 
BRANCH  21  24
HETATM   24  C   UNL     1     -40.183  52.908 -54.692  1.00  0.00     0.120 C 
BRANCH  24  25
HETATM   25  C   UNL     1     -39.952  51.768 -53.767  1.00  0.00     0.151 A 
HETATM   26  N   UNL     1     -39.498  51.921 -52.513  1.00  0.00    -0.158 NA
HETATM   27  N   UNL     1     -39.442  50.646 -52.091  1.00  0.00    -0.270 N 
HETATM   28  H   UNL     1     -39.144  50.448 -51.145  1.00  0.00     0.190 HD
HETATM   29  C   UNL     1     -39.813  49.786 -53.074  1.00  0.00     0.227 A 
HETATM   30  N   UNL     1     -40.126  50.460 -54.153  1.00  0.00    -0.225 NA
ENDBRANCH  24  25
ENDBRANCH  21  24
ENDBRANCH   2  18
TORSDOF 6
ENDMDL
MODEL 10
REMARK VINA RESULT:      -7.2      1.832      2.392
REMARK  6 active torsions:
REMARK  status: ('A' for Active; 'I' for Inactive)
REMARK    1  A    between atoms: C_2  and  C_3 
REMARK       I    between atoms: C_3  and  N_4 
REMARK    2  A    between atoms: N_4  and  C_5 
REMARK    3  A    between atoms: C_7  and  N_8 
REMARK       I    between atoms: N_8  and  C_9 
REMARK    4  A    between atoms: C_9  and  C_10 
REMARK    5  A    between atoms: C_13  and  C_14 
REMARK    6  A    between atoms: C_14  and  C_15 
ROOT
HETATM    1  N   UNL     1     -42.656  55.895 -52.699  1.00  0.00    -0.322 N 
HETATM    2  C   UNL     1     -42.244  56.806 -51.742  1.00  0.00     0.256 C 
HETATM    3  O   UNL     1     -41.163  56.820 -51.167  1.00  0.00    -0.267 OA
HETATM    4  H   UNL     1     -43.608  55.969 -53.019  1.00  0.00     0.169 HD
ENDROOT
BRANCH   1   5
HETATM    5  C   UNL     1     -41.863  54.926 -53.369  1.00  0.00     0.043 A 
HETATM    6  C   UNL     1     -41.448  53.735 -52.749  1.00  0.00     0.059 A 
HETATM    7  C   UNL     1     -40.560  52.858 -53.383  1.00  0.00     0.036 A 
HETATM    8  C   UNL     1     -40.111  53.165 -54.670  1.00  0.00     0.030 A 
HETATM    9  C   UNL     1     -40.540  54.325 -55.313  1.00  0.00     0.011 A 
HETATM   10  C   UNL     1     -41.413  55.217 -54.675  1.00  0.00    -0.035 A 
HETATM   11  C   UNL     1     -41.827  56.460 -55.417  1.00  0.00     0.050 C 
BRANCH   7  12
HETATM   12  N   UNL     1     -40.023  51.696 -52.786  1.00  0.00    -0.327 N 
HETATM   13  C   UNL     1     -40.010  50.411 -53.294  1.00  0.00     0.221 C 
HETATM   14  O   UNL     1     -40.380  50.072 -54.414  1.00  0.00    -0.273 OA
HETATM   15  H   UNL     1     -39.579  51.838 -51.890  1.00  0.00     0.169 HD
BRANCH  13  16
HETATM   16  C   UNL     1     -39.562  49.345 -52.303  1.00  0.00     0.098 C 
HETATM   17  C   UNL     1     -39.400  49.804 -50.865  1.00  0.00     0.014 C 
ENDBRANCH  13  16
ENDBRANCH   7  12
ENDBRANCH   1   5
BRANCH   2  18
HETATM   18  C   UNL     1     -43.220  57.891 -51.419  1.00  0.00     0.032 A 
HETATM   19  C   UNL     1     -44.601  57.680 -51.332  1.00  0.00     0.017 A 
HETATM   20  C   UNL     1     -45.460  58.755 -51.083  1.00  0.00     0.008 A 
HETATM   21  C   UNL     1     -44.954  60.053 -50.907  1.00  0.00    -0.051 A 
HETATM   22  C   UNL     1     -43.567  60.250 -50.953  1.00  0.00     0.008 A 
HETATM   23  C   UNL     1     -42.708  59.179 -51.205  1.00  0.00     0.017 A 
BRANCH  21  24
HETATM   24  C   UNL     1     -45.884  61.219 -50.659  1.00  0.00     0.120 C 
BRANCH  24  25
HETATM   25  C   UNL     1     -46.456  61.591 -51.979  1.00  0.00     0.151 A 
HETATM   26  N   UNL     1     -47.744  61.397 -52.303  1.00  0.00    -0.158 NA
HETATM   27  N   UNL     1     -47.777  61.866 -53.561  1.00  0.00    -0.270 N 
HETATM   28  H   UNL     1     -48.652  61.865 -54.070  1.00  0.00     0.190 HD
HETATM   29  C   UNL     1     -46.549  62.281 -53.965  1.00  0.00     0.227 A 
HETATM   30  N   UNL     1     -45.685  62.107 -52.995  1.00  0.00    -0.225 NA
ENDBRANCH  24  25
ENDBRANCH  21  24
ENDBRANCH   2  18
TORSDOF 6
ENDMDL
