MODEL 1
REMARK VINA RESULT:      -8.4      0.000      0.000
REMARK  5 active torsions:
REMARK  status: ('A' for Active; 'I' for Inactive)
REMARK    1  A    between atoms: C_3  and  N_4 
REMARK    2  A    between atoms: N_5  and  C_6 
REMARK    3  A    between atoms: C_6  and  C_7 
REMARK    4  A    between atoms: C_7  and  C_8 
REMARK    5  A    between atoms: C_17  and  C_18 
ROOT
HETATM    1  C   UNL     1     -44.775  58.209 -54.597  1.00  0.00     0.175 C 
HETATM    2  N   UNL     1     -43.971  57.019 -54.354  1.00  0.00    -0.186 N 
HETATM    3  C   UNL     1     -43.877  56.415 -53.172  1.00  0.00     0.680 A 
HETATM    4  N   UNL     1     -43.254  55.253 -53.326  1.00  0.00    -0.184 N 
HETATM    5  C   UNL     1     -42.909  55.118 -54.658  1.00  0.00     0.140 A 
HETATM    6  C   UNL     1     -43.305  56.255 -55.334  1.00  0.00     0.077 A 
ENDROOT
BRANCH   4   7
HETATM    7  C   UNL     1     -42.880  54.290 -52.271  1.00  0.00     0.231 C 
BRANCH   7   8
HETATM    8  C   UNL     1     -41.372  54.117 -52.144  1.00  0.00     0.178 C 
HETATM    9  O   UNL     1     -40.669  54.995 -51.637  1.00  0.00    -0.290 OA
BRANCH   8  10
HETATM   10  C   UNL     1     -40.742  52.856 -52.618  1.00  0.00     0.012 A 
HETATM   11  C   UNL     1     -40.825  52.441 -53.953  1.00  0.00     0.018 A 
HETATM   12  C   UNL     1     -40.224  51.241 -54.342  1.00  0.00     0.043 A 
HETATM   13  C   UNL     1     -39.543  50.472 -53.404  1.00  0.00     0.116 A 
HETATM   14  F   UNL     1     -38.974  49.321 -53.785  1.00  0.00    -0.206 F 
HETATM   15  C   UNL     1     -39.440  50.883 -52.082  1.00  0.00     0.043 A 
HETATM   16  C   UNL     1     -40.035  52.082 -51.685  1.00  0.00     0.018 A 
ENDBRANCH   8  10
ENDBRANCH   7   8
ENDBRANCH   4   7
BRANCH   3  17
HETATM   17  N   UNL     1     -44.349  56.898 -52.028  1.00  0.00    -0.234 N 
HETATM   18  H   UNL     1     -44.207  57.851 -51.738  1.00  0.00     0.174 HD
HETATM   19  H   UNL     1     -45.042  56.355 -51.510  1.00  0.00     0.174 HD
ENDBRANCH   3  17
BRANCH   6  20
HETATM   20  C   UNL     1     -43.052  56.526 -56.795  1.00  0.00    -0.004 A 
HETATM   21  C   UNL     1     -42.602  57.796 -57.191  1.00  0.00     0.053 A 
HETATM   22  C   UNL     1     -42.380  58.018 -58.535  1.00  0.00     0.106 A 
HETATM   23  C   UNL     1     -42.591  57.045 -59.478  1.00  0.00     0.105 A 
HETATM   24  O   UNL     1     -41.938  59.182 -59.081  1.00  0.00    -0.323 OA
HETATM   25  O   UNL     1     -42.311  57.470 -60.736  1.00  0.00    -0.323 OA
HETATM   26  C   UNL     1     -43.047  55.794 -59.128  1.00  0.00     0.040 A 
HETATM   27  C   UNL     1     -41.897  58.830 -60.482  1.00  0.00     0.352 A 
HETATM   28  C   UNL     1     -43.285  55.536 -57.771  1.00  0.00     0.017 A 
ENDBRANCH   6  20
TORSDOF 5
ENDMDL
MODEL 2
REMARK VINA RESULT:      -8.3      1.763      2.552
REMARK  5 active torsions:
REMARK  status: ('A' for Active; 'I' for Inactive)
REMARK    1  A    between atoms: C_3  and  N_4 
REMARK    2  A    between atoms: N_5  and  C_6 
REMARK    3  A    between atoms: C_6  and  C_7 
REMARK    4  A    between atoms: C_7  and  C_8 
REMARK    5  A    between atoms: C_17  and  C_18 
ROOT
HETATM    1  C   UNL     1     -42.452  58.734 -51.761  1.00  0.00     0.175 C 
HETATM    2  N   UNL     1     -42.431  57.288 -51.935  1.00  0.00    -0.186 N 
HETATM    3  C   UNL     1     -41.986  56.435 -51.015  1.00  0.00     0.680 A 
HETATM    4  N   UNL     1     -42.296  55.197 -51.383  1.00  0.00    -0.184 N 
HETATM    5  C   UNL     1     -42.942  55.257 -52.604  1.00  0.00     0.140 A 
HETATM    6  C   UNL     1     -42.997  56.574 -53.012  1.00  0.00     0.077 A 
ENDROOT
BRANCH   4   7
HETATM    7  C   UNL     1     -41.941  53.942 -50.693  1.00  0.00     0.231 C 
BRANCH   7   8
HETATM    8  C   UNL     1     -40.508  53.505 -50.972  1.00  0.00     0.178 C 
HETATM    9  O   UNL     1     -39.564  53.961 -50.322  1.00  0.00    -0.290 OA
BRANCH   8  10
HETATM   10  C   UNL     1     -40.250  52.494 -52.031  1.00  0.00     0.012 A 
HETATM   11  C   UNL     1     -40.488  52.760 -53.386  1.00  0.00     0.018 A 
HETATM   12  C   UNL     1     -40.238  51.769 -54.339  1.00  0.00     0.043 A 
HETATM   13  C   UNL     1     -39.750  50.530 -53.937  1.00  0.00     0.116 A 
HETATM   14  F   UNL     1     -39.518  49.584 -54.856  1.00  0.00    -0.206 F 
HETATM   15  C   UNL     1     -39.494  50.262 -52.599  1.00  0.00     0.043 A 
HETATM   16  C   UNL     1     -39.739  51.247 -51.640  1.00  0.00     0.018 A 
ENDBRANCH   8  10
ENDBRANCH   7   8
ENDBRANCH   4   7
BRANCH   3  17
HETATM   17  N   UNL     1     -41.350  56.778 -49.901  1.00  0.00    -0.234 N 
HETATM   18  H   UNL     1     -40.381  57.050 -49.887  1.00  0.00     0.174 HD
HETATM   19  H   UNL     1     -41.894  56.963 -49.057  1.00  0.00     0.174 HD
ENDBRANCH   3  17
BRANCH   6  20
HETATM   20  C   UNL     1     -43.565  57.052 -54.323  1.00  0.00    -0.004 A 
HETATM   21  C   UNL     1     -42.790  56.943 -55.490  1.00  0.00     0.053 A 
HETATM   22  C   UNL     1     -43.333  57.389 -56.677  1.00  0.00     0.106 A 
HETATM   23  C   UNL     1     -44.590  57.935 -56.742  1.00  0.00     0.105 A 
HETATM   24  O   UNL     1     -42.722  57.348 -57.891  1.00  0.00    -0.323 OA
HETATM   25  O   UNL     1     -44.930  58.307 -58.002  1.00  0.00    -0.323 OA
HETATM   26  C   UNL     1     -45.371  58.073 -55.618  1.00  0.00     0.040 A 
HETATM   27  C   UNL     1     -43.742  57.934 -58.731  1.00  0.00     0.352 A 
HETATM   28  C   UNL     1     -44.848  57.631 -54.394  1.00  0.00     0.017 A 
ENDBRANCH   6  20
TORSDOF 5
ENDMDL
MODEL 3
REMARK VINA RESULT:      -8.2      3.771      6.105
REMARK  5 active torsions:
REMARK  status: ('A' for Active; 'I' for Inactive)
REMARK    1  A    between atoms: C_3  and  N_4 
REMARK    2  A    between atoms: N_5  and  C_6 
REMARK    3  A    between atoms: C_6  and  C_7 
REMARK    4  A    between atoms: C_7  and  C_8 
REMARK    5  A    between atoms: C_17  and  C_18 
ROOT
HETATM    1  C   UNL     1     -44.952  58.461 -54.202  1.00  0.00     0.175 C 
HETATM    2  N   UNL     1     -44.290  57.572 -53.257  1.00  0.00    -0.186 N 
HETATM    3  C   UNL     1     -43.985  56.303 -53.518  1.00  0.00     0.680 A 
HETATM    4  N   UNL     1     -43.205  55.835 -52.551  1.00  0.00    -0.184 N 
HETATM    5  C   UNL     1     -43.026  56.837 -51.615  1.00  0.00     0.140 A 
HETATM    6  C   UNL     1     -43.750  57.944 -52.008  1.00  0.00     0.077 A 
ENDROOT
BRANCH   4   7
HETATM    7  C   UNL     1     -42.686  54.461 -52.406  1.00  0.00     0.231 C 
BRANCH   7   8
HETATM    8  C   UNL     1     -41.326  54.276 -53.068  1.00  0.00     0.178 C 
HETATM    9  O   UNL     1     -40.701  55.238 -53.523  1.00  0.00    -0.290 OA
BRANCH   8  10
HETATM   10  C   UNL     1     -40.734  52.915 -53.145  1.00  0.00     0.012 A 
HETATM   11  C   UNL     1     -40.809  52.136 -54.307  1.00  0.00     0.018 A 
HETATM   12  C   UNL     1     -40.245  50.858 -54.320  1.00  0.00     0.043 A 
HETATM   13  C   UNL     1     -39.607  50.370 -53.184  1.00  0.00     0.116 A 
HETATM   14  F   UNL     1     -39.074  49.143 -53.205  1.00  0.00    -0.206 F 
HETATM   15  C   UNL     1     -39.512  51.140 -52.032  1.00  0.00     0.043 A 
HETATM   16  C   UNL     1     -40.071  52.419 -52.011  1.00  0.00     0.018 A 
ENDBRANCH   8  10
ENDBRANCH   7   8
ENDBRANCH   4   7
BRANCH   3  17
HETATM   17  N   UNL     1     -44.388  55.627 -54.589  1.00  0.00    -0.234 N 
HETATM   18  H   UNL     1     -44.182  55.920 -55.529  1.00  0.00     0.174 HD
HETATM   19  H   UNL     1     -44.750  54.680 -54.468  1.00  0.00     0.174 HD
ENDBRANCH   3  17
BRANCH   6  20
HETATM   20  C   UNL     1     -43.867  59.224 -51.223  1.00  0.00    -0.004 A 
HETATM   21  C   UNL     1     -45.087  59.540 -50.600  1.00  0.00     0.053 A 
HETATM   22  C   UNL     1     -45.168  60.720 -49.889  1.00  0.00     0.106 A 
HETATM   23  C   UNL     1     -44.105  61.581 -49.784  1.00  0.00     0.105 A 
HETATM   24  O   UNL     1     -46.266  61.168 -49.224  1.00  0.00    -0.323 OA
HETATM   25  O   UNL     1     -44.397  62.678 -49.041  1.00  0.00    -0.323 OA
HETATM   26  C   UNL     1     -42.901  61.312 -50.393  1.00  0.00     0.040 A 
HETATM   27  C   UNL     1     -45.771  62.414 -48.686  1.00  0.00     0.352 A 
HETATM   28  C   UNL     1     -42.786  60.123 -51.126  1.00  0.00     0.017 A 
ENDBRANCH   6  20
TORSDOF 5
ENDMDL
MODEL 4
REMARK VINA RESULT:      -8.2      1.635      1.989
REMARK  5 active torsions:
REMARK  status: ('A' for Active; 'I' for Inactive)
REMARK    1  A    between atoms: C_3  and  N_4 
REMARK    2  A    between atoms: N_5  and  C_6 
REMARK    3  A    between atoms: C_6  and  C_7 
REMARK    4  A    between atoms: C_7  and  C_8 
REMARK    5  A    between atoms: C_17  and  C_18 
ROOT
HETATM    1  C   UNL     1     -41.733  58.907 -53.937  1.00  0.00     0.175 C 
HETATM    2  N   UNL     1     -42.090  57.522 -53.665  1.00  0.00    -0.186 N 
HETATM    3  C   UNL     1     -41.806  56.890 -52.529  1.00  0.00     0.680 A 
HETATM    4  N   UNL     1     -42.446  55.727 -52.506  1.00  0.00    -0.184 N 
HETATM    5  C   UNL     1     -43.147  55.594 -53.690  1.00  0.00     0.140 A 
HETATM    6  C   UNL     1     -42.899  56.700 -54.478  1.00  0.00     0.077 A 
ENDROOT
BRANCH   4   7
HETATM    7  C   UNL     1     -42.367  54.682 -51.467  1.00  0.00     0.231 C 
BRANCH   7   8
HETATM    8  C   UNL     1     -40.956  54.132 -51.295  1.00  0.00     0.178 C 
HETATM    9  O   UNL     1     -40.190  54.595 -50.446  1.00  0.00    -0.290 OA
BRANCH   8  10
HETATM   10  C   UNL     1     -40.506  53.002 -52.150  1.00  0.00     0.012 A 
HETATM   11  C   UNL     1     -40.672  53.013 -53.541  1.00  0.00     0.018 A 
HETATM   12  C   UNL     1     -40.241  51.919 -54.297  1.00  0.00     0.043 A 
HETATM   13  C   UNL     1     -39.646  50.832 -53.664  1.00  0.00     0.116 A 
HETATM   14  F   UNL     1     -39.240  49.786 -54.395  1.00  0.00    -0.206 F 
HETATM   15  C   UNL     1     -39.461  50.819 -52.288  1.00  0.00     0.043 A 
HETATM   16  C   UNL     1     -39.887  51.909 -51.526  1.00  0.00     0.018 A 
ENDBRANCH   8  10
ENDBRANCH   7   8
ENDBRANCH   4   7
BRANCH   3  17
HETATM   17  N   UNL     1     -41.020  57.364 -51.569  1.00  0.00    -0.234 N 
HETATM   18  H   UNL     1     -40.180  56.898 -51.271  1.00  0.00     0.174 HD
HETATM   19  H   UNL     1     -41.154  58.325 -51.248  1.00  0.00     0.174 HD
ENDBRANCH   3  17
BRANCH   6  20
HETATM   20  C   UNL     1     -43.427  56.905 -55.874  1.00  0.00    -0.004 A 
HETATM   21  C   UNL     1     -42.868  56.173 -56.936  1.00  0.00     0.053 A 
HETATM   22  C   UNL     1     -43.368  56.381 -58.204  1.00  0.00     0.106 A 
HETATM   23  C   UNL     1     -44.379  57.276 -58.450  1.00  0.00     0.105 A 
HETATM   24  O   UNL     1     -42.947  55.752 -59.333  1.00  0.00    -0.323 OA
HETATM   25  O   UNL     1     -44.721  57.326 -59.763  1.00  0.00    -0.323 OA
HETATM   26  C   UNL     1     -44.939  58.022 -57.438  1.00  0.00     0.040 A 
HETATM   27  C   UNL     1     -43.810  56.356 -60.323  1.00  0.00     0.352 A 
HETATM   28  C   UNL     1     -44.451  57.836 -56.137  1.00  0.00     0.017 A 
ENDBRANCH   6  20
TORSDOF 5
ENDMDL
MODEL 5
REMARK VINA RESULT:      -8.1      1.274      2.120
REMARK  5 active torsions:
REMARK  status: ('A' for Active; 'I' for Inactive)
REMARK    1  A    between atoms: C_3  and  N_4 
REMARK    2  A    between atoms: N_5  and  C_6 
REMARK    3  A    between atoms: C_6  and  C_7 
REMARK    4  A    between atoms: C_7  and  C_8 
REMARK    5  A    between atoms: C_17  and  C_18 
ROOT
HETATM    1  C   UNL     1     -45.146  57.784 -54.501  1.00  0.00     0.175 C 
HETATM    2  N   UNL     1     -43.790  57.463 -54.078  1.00  0.00    -0.186 N 
HETATM    3  C   UNL     1     -43.492  56.861 -52.930  1.00  0.00     0.680 A 
HETATM    4  N   UNL     1     -42.209  56.519 -52.937  1.00  0.00    -0.184 N 
HETATM    5  C   UNL     1     -41.653  56.945 -54.130  1.00  0.00     0.140 A 
HETATM    6  C   UNL     1     -42.624  57.601 -54.860  1.00  0.00     0.077 A 
ENDROOT
BRANCH   4   7
HETATM    7  C   UNL     1     -41.443  55.888 -51.844  1.00  0.00     0.231 C 
BRANCH   7   8
HETATM    8  C   UNL     1     -41.837  54.434 -51.616  1.00  0.00     0.178 C 
HETATM    9  O   UNL     1     -42.803  54.138 -50.908  1.00  0.00    -0.290 OA
BRANCH   8  10
HETATM   10  C   UNL     1     -41.056  53.357 -52.279  1.00  0.00     0.012 A 
HETATM   11  C   UNL     1     -40.146  52.559 -51.574  1.00  0.00     0.018 A 
HETATM   12  C   UNL     1     -39.429  51.567 -52.249  1.00  0.00     0.043 A 
HETATM   13  C   UNL     1     -39.628  51.375 -53.612  1.00  0.00     0.116 A 
HETATM   14  F   UNL     1     -38.933  50.426 -54.252  1.00  0.00    -0.206 F 
HETATM   15  C   UNL     1     -40.541  52.149 -54.317  1.00  0.00     0.043 A 
HETATM   16  C   UNL     1     -41.263  53.140 -53.650  1.00  0.00     0.018 A 
ENDBRANCH   8  10
ENDBRANCH   7   8
ENDBRANCH   4   7
BRANCH   3  17
HETATM   17  N   UNL     1     -44.352  56.627 -51.945  1.00  0.00    -0.234 N 
HETATM   18  H   UNL     1     -45.186  56.077 -52.067  1.00  0.00     0.174 HD
HETATM   19  H   UNL     1     -44.077  56.842 -50.985  1.00  0.00     0.174 HD
ENDBRANCH   3  17
BRANCH   6  20
HETATM   20  C   UNL     1     -42.400  58.272 -56.191  1.00  0.00    -0.004 A 
HETATM   21  C   UNL     1     -42.420  57.498 -57.363  1.00  0.00     0.053 A 
HETATM   22  C   UNL     1     -42.211  58.136 -58.568  1.00  0.00     0.106 A 
HETATM   23  C   UNL     1     -41.981  59.486 -58.646  1.00  0.00     0.105 A 
HETATM   24  O   UNL     1     -42.207  57.538 -59.789  1.00  0.00    -0.323 OA
HETATM   25  O   UNL     1     -41.803  59.910 -59.923  1.00  0.00    -0.323 OA
HETATM   26  C   UNL     1     -41.939  60.273 -57.518  1.00  0.00     0.040 A 
HETATM   27  C   UNL     1     -41.946  58.670 -60.648  1.00  0.00     0.352 A 
HETATM   28  C   UNL     1     -42.144  59.655 -56.277  1.00  0.00     0.017 A 
ENDBRANCH   6  20
TORSDOF 5
ENDMDL
MODEL 6
REMARK VINA RESULT:      -8.1      3.700      7.283
REMARK  5 active torsions:
REMARK  status: ('A' for Active; 'I' for Inactive)
REMARK    1  A    between atoms: C_3  and  N_4 
REMARK    2  A    between atoms: N_5  and  C_6 
REMARK    3  A    between atoms: C_6  and  C_7 
REMARK    4  A    between atoms: C_7  and  C_8 
REMARK    5  A    between atoms: C_17  and  C_18 
ROOT
HETATM    1  C   UNL     1     -43.636  54.863 -51.144  1.00  0.00     0.175 C 
HETATM    2  N   UNL     1     -43.117  55.408 -52.391  1.00  0.00    -0.186 N 
HETATM    3  C   UNL     1     -43.551  56.537 -52.946  1.00  0.00     0.680 A 
HETATM    4  N   UNL     1     -42.741  56.870 -53.945  1.00  0.00    -0.184 N 
HETATM    5  C   UNL     1     -41.764  55.898 -54.053  1.00  0.00     0.140 A 
HETATM    6  C   UNL     1     -42.006  54.920 -53.110  1.00  0.00     0.077 A 
ENDROOT
BRANCH   4   7
HETATM    7  C   UNL     1     -42.883  58.011 -54.870  1.00  0.00     0.231 C 
BRANCH   7   8
HETATM    8  C   UNL     1     -41.914  59.144 -54.557  1.00  0.00     0.178 C 
HETATM    9  O   UNL     1     -41.561  59.942 -55.429  1.00  0.00    -0.290 OA
BRANCH   8  10
HETATM   10  C   UNL     1     -41.405  59.302 -53.169  1.00  0.00     0.012 A 
HETATM   11  C   UNL     1     -40.125  58.872 -52.794  1.00  0.00     0.018 A 
HETATM   12  C   UNL     1     -39.701  59.035 -51.472  1.00  0.00     0.043 A 
HETATM   13  C   UNL     1     -40.548  59.628 -50.542  1.00  0.00     0.116 A 
HETATM   14  F   UNL     1     -40.136  59.775 -49.276  1.00  0.00    -0.206 F 
HETATM   15  C   UNL     1     -41.812  60.073 -50.907  1.00  0.00     0.043 A 
HETATM   16  C   UNL     1     -42.243  59.916 -52.226  1.00  0.00     0.018 A 
ENDBRANCH   8  10
ENDBRANCH   7   8
ENDBRANCH   4   7
BRANCH   3  17
HETATM   17  N   UNL     1     -44.615  57.224 -52.546  1.00  0.00    -0.234 N 
HETATM   18  H   UNL     1     -44.562  57.969 -51.872  1.00  0.00     0.174 HD
HETATM   19  H   UNL     1     -45.487  57.136 -53.070  1.00  0.00     0.174 HD
ENDBRANCH   3  17
BRANCH   6  20
HETATM   20  C   UNL     1     -41.202  53.656 -52.948  1.00  0.00    -0.004 A 
HETATM   21  C   UNL     1     -41.166  52.723 -53.998  1.00  0.00     0.053 A 
HETATM   22  C   UNL     1     -40.424  51.574 -53.822  1.00  0.00     0.106 A 
HETATM   23  C   UNL     1     -39.737  51.321 -52.662  1.00  0.00     0.105 A 
HETATM   24  O   UNL     1     -40.279  50.579 -54.738  1.00  0.00    -0.323 OA
HETATM   25  O   UNL     1     -39.073  50.138 -52.698  1.00  0.00    -0.323 OA
HETATM   26  C   UNL     1     -39.762  52.204 -51.607  1.00  0.00     0.040 A 
HETATM   27  C   UNL     1     -39.419  49.667 -54.019  1.00  0.00     0.352 A 
HETATM   28  C   UNL     1     -40.509  53.381 -51.751  1.00  0.00     0.017 A 
ENDBRANCH   6  20
TORSDOF 5
ENDMDL
MODEL 7
REMARK VINA RESULT:      -8.0      3.182      5.583
REMARK  5 active torsions:
REMARK  status: ('A' for Active; 'I' for Inactive)
REMARK    1  A    between atoms: C_3  and  N_4 
REMARK    2  A    between atoms: N_5  and  C_6 
REMARK    3  A    between atoms: C_6  and  C_7 
REMARK    4  A    between atoms: C_7  and  C_8 
REMARK    5  A    between atoms: C_17  and  C_18 
ROOT
HETATM    1  C   UNL     1     -42.555  58.850 -55.325  1.00  0.00     0.175 C 
HETATM    2  N   UNL     1     -42.751  57.534 -54.734  1.00  0.00    -0.186 N 
HETATM    3  C   UNL     1     -42.395  56.394 -55.321  1.00  0.00     0.680 A 
HETATM    4  N   UNL     1     -42.505  55.401 -54.448  1.00  0.00    -0.184 N 
HETATM    5  C   UNL     1     -42.980  55.920 -53.257  1.00  0.00     0.140 A 
HETATM    6  C   UNL     1     -43.199  57.273 -53.422  1.00  0.00     0.077 A 
ENDROOT
BRANCH   4   7
HETATM    7  C   UNL     1     -42.274  53.963 -54.692  1.00  0.00     0.231 C 
BRANCH   7   8
HETATM    8  C   UNL     1     -40.801  53.584 -54.608  1.00  0.00     0.178 C 
HETATM    9  O   UNL     1     -39.963  54.113 -55.343  1.00  0.00    -0.290 OA
BRANCH   8  10
HETATM   10  C   UNL     1     -40.365  52.577 -53.606  1.00  0.00     0.012 A 
HETATM   11  C   UNL     1     -40.256  52.883 -52.243  1.00  0.00     0.018 A 
HETATM   12  C   UNL     1     -39.831  51.901 -51.345  1.00  0.00     0.043 A 
HETATM   13  C   UNL     1     -39.526  50.625 -51.809  1.00  0.00     0.116 A 
HETATM   14  F   UNL     1     -39.114  49.691 -50.942  1.00  0.00    -0.206 F 
HETATM   15  C   UNL     1     -39.647  50.305 -53.155  1.00  0.00     0.043 A 
HETATM   16  C   UNL     1     -40.074  51.281 -54.058  1.00  0.00     0.018 A 
ENDBRANCH   8  10
ENDBRANCH   7   8
ENDBRANCH   4   7
BRANCH   3  17
HETATM   17  N   UNL     1     -41.979  56.282 -56.578  1.00  0.00    -0.234 N 
HETATM   18  H   UNL     1     -41.016  56.123 -56.822  1.00  0.00     0.174 HD
HETATM   19  H   UNL     1     -42.670  56.157 -57.319  1.00  0.00     0.174 HD
ENDBRANCH   3  17
BRANCH   6  20
HETATM   20  C   UNL     1     -43.778  58.190 -52.375  1.00  0.00    -0.004 A 
HETATM   21  C   UNL     1     -43.000  59.253 -51.885  1.00  0.00     0.053 A 
HETATM   22  C   UNL     1     -43.553  60.076 -50.926  1.00  0.00     0.106 A 
HETATM   23  C   UNL     1     -44.822  59.879 -50.443  1.00  0.00     0.105 A 
HETATM   24  O   UNL     1     -42.941  61.148 -50.357  1.00  0.00    -0.323 OA
HETATM   25  O   UNL     1     -45.170  60.800 -49.508  1.00  0.00    -0.323 OA
HETATM   26  C   UNL     1     -45.606  58.840 -50.887  1.00  0.00     0.040 A 
HETATM   27  C   UNL     1     -43.973  61.606 -49.455  1.00  0.00     0.352 A 
HETATM   28  C   UNL     1     -45.073  57.983 -51.860  1.00  0.00     0.017 A 
ENDBRANCH   6  20
TORSDOF 5
ENDMDL
MODEL 8
REMARK VINA RESULT:      -7.9      4.540      8.117
REMARK  5 active torsions:
REMARK  status: ('A' for Active; 'I' for Inactive)
REMARK    1  A    between atoms: C_3  and  N_4 
REMARK    2  A    between atoms: N_5  and  C_6 
REMARK    3  A    between atoms: C_6  and  C_7 
REMARK    4  A    between atoms: C_7  and  C_8 
REMARK    5  A    between atoms: C_17  and  C_18 
ROOT
HETATM    1  C   UNL     1     -43.492  54.309 -51.607  1.00  0.00     0.175 C 
HETATM    2  N   UNL     1     -42.623  55.004 -52.547  1.00  0.00    -0.186 N 
HETATM    3  C   UNL     1     -42.756  56.287 -52.873  1.00  0.00     0.680 A 
HETATM    4  N   UNL     1     -41.695  56.670 -53.574  1.00  0.00    -0.184 N 
HETATM    5  C   UNL     1     -40.859  55.579 -53.727  1.00  0.00     0.140 A 
HETATM    6  C   UNL     1     -41.448  54.483 -53.129  1.00  0.00     0.077 A 
ENDROOT
BRANCH   4   7
HETATM    7  C   UNL     1     -41.457  57.990 -54.190  1.00  0.00     0.231 C 
BRANCH   7   8
HETATM    8  C   UNL     1     -40.818  58.981 -53.225  1.00  0.00     0.178 C 
HETATM    9  O   UNL     1     -39.592  59.055 -53.105  1.00  0.00    -0.290 OA
BRANCH   8  10
HETATM   10  C   UNL     1     -41.689  59.888 -52.433  1.00  0.00     0.012 A 
HETATM   11  C   UNL     1     -42.559  60.802 -53.042  1.00  0.00     0.018 A 
HETATM   12  C   UNL     1     -43.347  61.640 -52.249  1.00  0.00     0.043 A 
HETATM   13  C   UNL     1     -43.268  61.557 -50.863  1.00  0.00     0.116 A 
HETATM   14  F   UNL     1     -44.023  62.368 -50.111  1.00  0.00    -0.206 F 
HETATM   15  C   UNL     1     -42.421  60.644 -50.248  1.00  0.00     0.043 A 
HETATM   16  C   UNL     1     -41.632  59.801 -51.033  1.00  0.00     0.018 A 
ENDBRANCH   8  10
ENDBRANCH   7   8
ENDBRANCH   4   7
BRANCH   3  17
HETATM   17  N   UNL     1     -43.783  57.058 -52.533  1.00  0.00    -0.234 N 
HETATM   18  H   UNL     1     -43.805  58.048 -52.712  1.00  0.00     0.174 HD
HETATM   19  H   UNL     1     -44.662  56.619 -52.257  1.00  0.00     0.174 HD
ENDBRANCH   3  17
BRANCH   6  20
HETATM   20  C   UNL     1     -40.884  53.086 -53.134  1.00  0.00    -0.004 A 
HETATM   21  C   UNL     1     -40.448  52.515 -51.926  1.00  0.00     0.053 A 
HETATM   22  C   UNL     1     -39.933  51.236 -51.960  1.00  0.00     0.106 A 
HETATM   23  C   UNL     1     -39.833  50.522 -53.127  1.00  0.00     0.105 A 
HETATM   24  O   UNL     1     -39.478  50.539 -50.885  1.00  0.00    -0.323 OA
HETATM   25  O   UNL     1     -39.302  49.287 -52.937  1.00  0.00    -0.323 OA
HETATM   26  C   UNL     1     -40.235  51.054 -54.331  1.00  0.00     0.040 A 
HETATM   27  C   UNL     1     -39.076  49.300 -51.511  1.00  0.00     0.352 A 
HETATM   28  C   UNL     1     -40.760  52.354 -54.332  1.00  0.00     0.017 A 
ENDBRANCH   6  20
TORSDOF 5
ENDMDL
MODEL 9
REMARK VINA RESULT:      -7.9      2.869      7.175
REMARK  5 active torsions:
REMARK  status: ('A' for Active; 'I' for Inactive)
REMARK    1  A    between atoms: C_3  and  N_4 
REMARK    2  A    between atoms: N_5  and  C_6 
REMARK    3  A    between atoms: C_6  and  C_7 
REMARK    4  A    between atoms: C_7  and  C_8 
REMARK    5  A    between atoms: C_17  and  C_18 
ROOT
HETATM    1  C   UNL     1     -43.306  55.882 -51.070  1.00  0.00     0.175 C 
HETATM    2  N   UNL     1     -42.583  56.374 -52.235  1.00  0.00    -0.186 N 
HETATM    3  C   UNL     1     -42.774  57.575 -52.775  1.00  0.00     0.680 A 
HETATM    4  N   UNL     1     -41.825  57.804 -53.675  1.00  0.00    -0.184 N 
HETATM    5  C   UNL     1     -41.007  56.691 -53.734  1.00  0.00     0.140 A 
HETATM    6  C   UNL     1     -41.495  55.736 -52.865  1.00  0.00     0.077 A 
ENDROOT
BRANCH   4   7
HETATM    7  C   UNL     1     -41.690  58.980 -54.556  1.00  0.00     0.231 C 
BRANCH   7   8
HETATM    8  C   UNL     1     -42.804  59.068 -55.591  1.00  0.00     0.178 C 
HETATM    9  O   UNL     1     -43.762  59.830 -55.436  1.00  0.00    -0.290 OA
BRANCH   8  10
HETATM   10  C   UNL     1     -42.721  58.236 -56.821  1.00  0.00     0.012 A 
HETATM   11  C   UNL     1     -42.122  58.707 -57.996  1.00  0.00     0.018 A 
HETATM   12  C   UNL     1     -42.081  57.886 -59.127  1.00  0.00     0.043 A 
HETATM   13  C   UNL     1     -42.628  56.609 -59.076  1.00  0.00     0.116 A 
HETATM   14  F   UNL     1     -42.589  55.832 -60.165  1.00  0.00    -0.206 F 
HETATM   15  C   UNL     1     -43.209  56.126 -57.910  1.00  0.00     0.043 A 
HETATM   16  C   UNL     1     -43.252  56.938 -56.775  1.00  0.00     0.018 A 
ENDBRANCH   8  10
ENDBRANCH   7   8
ENDBRANCH   4   7
BRANCH   3  17
HETATM   17  N   UNL     1     -43.753  58.412 -52.448  1.00  0.00    -0.234 N 
HETATM   18  H   UNL     1     -44.221  58.383 -51.558  1.00  0.00     0.174 HD
HETATM   19  H   UNL     1     -43.914  59.237 -53.029  1.00  0.00     0.174 HD
ENDBRANCH   3  17
BRANCH   6  20
HETATM   20  C   UNL     1     -40.921  54.354 -52.686  1.00  0.00    -0.004 A 
HETATM   21  C   UNL     1     -40.915  53.465 -53.773  1.00  0.00     0.053 A 
HETATM   22  C   UNL     1     -40.385  52.205 -53.581  1.00  0.00     0.106 A 
HETATM   23  C   UNL     1     -39.878  51.806 -52.370  1.00  0.00     0.105 A 
HETATM   24  O   UNL     1     -40.296  51.233 -54.527  1.00  0.00    -0.323 OA
HETATM   25  O   UNL     1     -39.407  50.534 -52.398  1.00  0.00    -0.323 OA
HETATM   26  C   UNL     1     -39.882  52.644 -51.279  1.00  0.00     0.040 A 
HETATM   27  C   UNL     1     -39.674  50.170 -53.770  1.00  0.00     0.352 A 
HETATM   28  C   UNL     1     -40.416  53.931 -51.440  1.00  0.00     0.017 A 
ENDBRANCH   6  20
TORSDOF 5
ENDMDL
MODEL 10
REMARK VINA RESULT:      -7.9      1.818      2.400
REMARK  5 active torsions:
REMARK  status: ('A' for Active; 'I' for Inactive)
REMARK    1  A    between atoms: C_3  and  N_4 
REMARK    2  A    between atoms: N_5  and  C_6 
REMARK    3  A    between atoms: C_6  and  C_7 
REMARK    4  A    between atoms: C_7  and  C_8 
REMARK    5  A    between atoms: C_17  and  C_18 
ROOT
HETATM    1  C   UNL     1     -44.737  57.500 -54.418  1.00  0.00     0.175 C 
HETATM    2  N   UNL     1     -43.775  56.562 -54.979  1.00  0.00    -0.186 N 
HETATM    3  C   UNL     1     -43.510  55.367 -54.458  1.00  0.00     0.680 A 
HETATM    4  N   UNL     1     -42.761  54.676 -55.310  1.00  0.00    -0.184 N 
HETATM    5  C   UNL     1     -42.511  55.473 -56.412  1.00  0.00     0.140 A 
HETATM    6  C   UNL     1     -43.099  56.705 -56.209  1.00  0.00     0.077 A 
ENDROOT
BRANCH   4   7
HETATM    7  C   UNL     1     -42.186  53.332 -55.110  1.00  0.00     0.231 C 
BRANCH   7   8
HETATM    8  C   UNL     1     -40.750  53.378 -54.603  1.00  0.00     0.178 C 
HETATM    9  O   UNL     1     -39.943  54.201 -55.044  1.00  0.00    -0.290 OA
BRANCH   8  10
HETATM   10  C   UNL     1     -40.323  52.430 -53.541  1.00  0.00     0.012 A 
HETATM   11  C   UNL     1     -40.260  52.804 -52.192  1.00  0.00     0.018 A 
HETATM   12  C   UNL     1     -39.841  51.876 -51.236  1.00  0.00     0.043 A 
HETATM   13  C   UNL     1     -39.497  50.586 -51.627  1.00  0.00     0.116 A 
HETATM   14  F   UNL     1     -39.091  49.704 -50.705  1.00  0.00    -0.206 F 
HETATM   15  C   UNL     1     -39.572  50.199 -52.959  1.00  0.00     0.043 A 
HETATM   16  C   UNL     1     -39.992  51.120 -53.920  1.00  0.00     0.018 A 
ENDBRANCH   8  10
ENDBRANCH   7   8
ENDBRANCH   4   7
BRANCH   3  17
HETATM   17  N   UNL     1     -43.945  54.936 -53.279  1.00  0.00    -0.234 N 
HETATM   18  H   UNL     1     -44.894  55.057 -52.970  1.00  0.00     0.174 HD
HETATM   19  H   UNL     1     -43.363  54.291 -52.742  1.00  0.00     0.174 HD
ENDBRANCH   3  17
BRANCH   6  20
HETATM   20  C   UNL     1     -43.001  57.876 -57.152  1.00  0.00    -0.004 A 
HETATM   21  C   UNL     1     -42.006  58.846 -56.945  1.00  0.00     0.053 A 
HETATM   22  C   UNL     1     -41.939  59.909 -57.821  1.00  0.00     0.106 A 
HETATM   23  C   UNL     1     -42.814  60.043 -58.870  1.00  0.00     0.105 A 
HETATM   24  O   UNL     1     -41.035  60.923 -57.767  1.00  0.00    -0.323 OA
HETATM   25  O   UNL     1     -42.573  61.156 -59.608  1.00  0.00    -0.323 OA
HETATM   26  C   UNL     1     -43.811  59.122 -59.095  1.00  0.00     0.040 A 
HETATM   27  C   UNL     1     -41.442  61.715 -58.905  1.00  0.00     0.352 A 
HETATM   28  C   UNL     1     -43.908  58.031 -58.220  1.00  0.00     0.017 A 
ENDBRANCH   6  20
TORSDOF 5
ENDMDL
