MODEL 1
REMARK VINA RESULT:      -7.9      0.000      0.000
REMARK  7 active torsions:
REMARK  status: ('A' for Active; 'I' for Inactive)
REMARK    1  A    between atoms: C_2  and  C_3 
REMARK    2  A    between atoms: C_5  and  N_6 
REMARK       I    between atoms: N_6  and  C_7 
REMARK    3  A    between atoms: C_7  and  C_8 
REMARK    4  A    between atoms: C_8  and  S_9 
REMARK    5  A    between atoms: S_9  and  C_10 
REMARK    6  A    between atoms: C_12  and  C_13 
REMARK    7  A    between atoms: C_14  and  O_15 
ROOT
HETATM    1  C   UNL     1     -43.099  58.821 -53.005  1.00  0.00     0.185 A 
HETATM    2  N   UNL     1     -43.470  58.510 -54.220  1.00  0.00    -0.201 NA
HETATM    3  C   UNL     1     -42.345  58.816 -54.976  1.00  0.00     0.184 A 
HETATM    4  N   UNL     1     -41.306  59.263 -54.251  1.00  0.00    -0.152 NA
HETATM    5  N   UNL     1     -41.815  59.262 -53.006  1.00  0.00    -0.253 N 
HETATM    6  H   UNL     1     -41.252  59.577 -52.225  1.00  0.00     0.191 HD
ENDROOT
BRANCH   1   7
HETATM    7  S   UNL     1     -44.016  58.739 -51.555  1.00  0.00    -0.081 SA
BRANCH   7   8
HETATM    8  C   UNL     1     -44.006  56.949 -51.239  1.00  0.00     0.185 C 
BRANCH   8   9
HETATM    9  C   UNL     1     -42.704  56.308 -51.709  1.00  0.00     0.231 C 
HETATM   10  N   UNL     1     -42.880  55.444 -52.781  1.00  0.00    -0.327 N 
HETATM   11  H   UNL     1     -43.825  55.324 -53.130  1.00  0.00     0.169 HD
HETATM   12  O   UNL     1     -41.631  56.575 -51.172  1.00  0.00    -0.272 OA
BRANCH  10  13
HETATM   13  C   UNL     1     -41.902  54.660 -53.430  1.00  0.00     0.035 A 
HETATM   14  C   UNL     1     -41.388  53.465 -52.920  1.00  0.00     0.044 A 
HETATM   15  C   UNL     1     -40.422  52.743 -53.636  1.00  0.00     0.011 A 
HETATM   16  C   UNL     1     -39.972  53.225 -54.871  1.00  0.00     0.015 A 
HETATM   17  C   UNL     1     -40.478  54.414 -55.386  1.00  0.00     0.003 A 
HETATM   18  C   UNL     1     -41.438  55.127 -54.667  1.00  0.00     0.029 A 
BRANCH  15  19
HETATM   19  C   UNL     1     -39.851  51.460 -53.127  1.00  0.00     0.155 C 
HETATM   20  C   UNL     1     -39.785  50.269 -54.048  1.00  0.00     0.096 C 
HETATM   21  O   UNL     1     -39.444  51.389 -51.968  1.00  0.00    -0.293 OA
ENDBRANCH  15  19
ENDBRANCH  10  13
ENDBRANCH   8   9
ENDBRANCH   7   8
ENDBRANCH   1   7
BRANCH   3  22
HETATM   22  C   UNL     1     -42.342  58.664 -56.429  1.00  0.00     0.048 A 
HETATM   23  C   UNL     1     -41.886  59.694 -57.274  1.00  0.00     0.080 A 
HETATM   24  C   UNL     1     -41.862  59.536 -58.658  1.00  0.00     0.039 A 
HETATM   25  C   UNL     1     -42.304  58.343 -59.226  1.00  0.00     0.022 A 
HETATM   26  C   UNL     1     -42.768  57.318 -58.404  1.00  0.00     0.012 A 
HETATM   27 BR   UNL     1     -43.376  55.702 -59.176  1.00  0.00    -0.051 Br
HETATM   28  C   UNL     1     -42.788  57.470 -57.016  1.00  0.00     0.037 A 
BRANCH  23  29
HETATM   29  O   UNL     1     -41.445  60.904 -56.796  1.00  0.00    -0.360 OA
HETATM   30  H   UNL     1     -42.082  61.167 -56.099  1.00  0.00     0.217 HD
ENDBRANCH  23  29
ENDBRANCH   3  22
TORSDOF 7
ENDMDL
MODEL 2
REMARK VINA RESULT:      -7.7      1.861      2.195
REMARK  7 active torsions:
REMARK  status: ('A' for Active; 'I' for Inactive)
REMARK    1  A    between atoms: C_2  and  C_3 
REMARK    2  A    between atoms: C_5  and  N_6 
REMARK       I    between atoms: N_6  and  C_7 
REMARK    3  A    between atoms: C_7  and  C_8 
REMARK    4  A    between atoms: C_8  and  S_9 
REMARK    5  A    between atoms: S_9  and  C_10 
REMARK    6  A    between atoms: C_12  and  C_13 
REMARK    7  A    between atoms: C_14  and  O_15 
ROOT
HETATM    1  C   UNL     1     -43.647  57.710 -53.207  1.00  0.00     0.185 A 
HETATM    2  N   UNL     1     -43.892  57.011 -54.286  1.00  0.00    -0.201 NA
HETATM    3  C   UNL     1     -42.980  57.523 -55.201  1.00  0.00     0.184 A 
HETATM    4  N   UNL     1     -42.178  58.475 -54.695  1.00  0.00    -0.152 NA
HETATM    5  N   UNL     1     -42.628  58.577 -53.432  1.00  0.00    -0.253 N 
HETATM    6  H   UNL     1     -42.214  59.248 -52.796  1.00  0.00     0.191 HD
ENDROOT
BRANCH   1   7
HETATM    7  S   UNL     1     -44.441  57.636 -51.685  1.00  0.00    -0.081 SA
BRANCH   7   8
HETATM    8  C   UNL     1     -43.285  56.600 -50.741  1.00  0.00     0.185 C 
BRANCH   8   9
HETATM    9  C   UNL     1     -42.924  55.330 -51.504  1.00  0.00     0.231 C 
HETATM   10  N   UNL     1     -41.683  55.404 -52.122  1.00  0.00    -0.327 N 
HETATM   11  H   UNL     1     -41.160  56.266 -52.014  1.00  0.00     0.169 HD
HETATM   12  O   UNL     1     -43.679  54.362 -51.525  1.00  0.00    -0.272 OA
BRANCH  10  13
HETATM   13  C   UNL     1     -41.064  54.431 -52.936  1.00  0.00     0.035 A 
HETATM   14  C   UNL     1     -40.689  53.160 -52.493  1.00  0.00     0.044 A 
HETATM   15  C   UNL     1     -40.086  52.249 -53.373  1.00  0.00     0.011 A 
HETATM   16  C   UNL     1     -39.859  52.618 -54.704  1.00  0.00     0.015 A 
HETATM   17  C   UNL     1     -40.229  53.882 -55.153  1.00  0.00     0.003 A 
HETATM   18  C   UNL     1     -40.828  54.783 -54.272  1.00  0.00     0.029 A 
BRANCH  15  19
HETATM   19  C   UNL     1     -39.674  50.880 -52.940  1.00  0.00     0.155 C 
HETATM   20  C   UNL     1     -39.585  49.780 -53.966  1.00  0.00     0.096 C 
HETATM   21  O   UNL     1     -39.414  50.666 -51.756  1.00  0.00    -0.293 OA
ENDBRANCH  15  19
ENDBRANCH  10  13
ENDBRANCH   8   9
ENDBRANCH   7   8
ENDBRANCH   1   7
BRANCH   3  22
HETATM   22  C   UNL     1     -42.944  57.051 -56.582  1.00  0.00     0.048 A 
HETATM   23  C   UNL     1     -43.262  55.719 -56.912  1.00  0.00     0.080 A 
HETATM   24  C   UNL     1     -43.249  55.279 -58.234  1.00  0.00     0.039 A 
HETATM   25  C   UNL     1     -42.908  56.165 -59.255  1.00  0.00     0.022 A 
HETATM   26  C   UNL     1     -42.582  57.483 -58.943  1.00  0.00     0.012 A 
HETATM   27 BR   UNL     1     -42.111  58.682 -60.328  1.00  0.00    -0.051 Br
HETATM   28  C   UNL     1     -42.598  57.929 -57.620  1.00  0.00     0.037 A 
BRANCH  23  29
HETATM   29  O   UNL     1     -43.597  54.781 -55.966  1.00  0.00    -0.360 OA
HETATM   30  H   UNL     1     -43.290  55.143 -55.108  1.00  0.00     0.217 HD
ENDBRANCH  23  29
ENDBRANCH   3  22
TORSDOF 7
ENDMDL
MODEL 3
REMARK VINA RESULT:      -7.6      2.622      6.375
REMARK  7 active torsions:
REMARK  status: ('A' for Active; 'I' for Inactive)
REMARK    1  A    between atoms: C_2  and  C_3 
REMARK    2  A    between atoms: C_5  and  N_6 
REMARK       I    between atoms: N_6  and  C_7 
REMARK    3  A    between atoms: C_7  and  C_8 
REMARK    4  A    between atoms: C_8  and  S_9 
REMARK    5  A    between atoms: S_9  and  C_10 
REMARK    6  A    between atoms: C_12  and  C_13 
REMARK    7  A    between atoms: C_14  and  O_15 
ROOT
HETATM    1  C   UNL     1     -42.829  58.267 -51.354  1.00  0.00     0.185 A 
HETATM    2  N   UNL     1     -42.768  56.987 -51.620  1.00  0.00    -0.201 NA
HETATM    3  C   UNL     1     -41.619  56.585 -50.950  1.00  0.00     0.184 A 
HETATM    4  N   UNL     1     -41.015  57.571 -50.264  1.00  0.00    -0.152 NA
HETATM    5  N   UNL     1     -41.801  58.626 -50.544  1.00  0.00    -0.253 N 
HETATM    6  H   UNL     1     -41.577  59.541 -50.169  1.00  0.00     0.191 HD
ENDROOT
BRANCH   1   7
HETATM    7  S   UNL     1     -43.981  59.417 -51.901  1.00  0.00    -0.081 SA
BRANCH   7   8
HETATM    8  C   UNL     1     -43.033  60.269 -53.196  1.00  0.00     0.185 C 
BRANCH   8   9
HETATM    9  C   UNL     1     -42.460  59.283 -54.208  1.00  0.00     0.231 C 
HETATM   10  N   UNL     1     -43.419  58.429 -54.736  1.00  0.00    -0.327 N 
HETATM   11  H   UNL     1     -44.371  58.538 -54.404  1.00  0.00     0.169 HD
HETATM   12  O   UNL     1     -41.268  59.293 -54.505  1.00  0.00    -0.272 OA
BRANCH  10  13
HETATM   13  C   UNL     1     -43.227  57.378 -55.659  1.00  0.00     0.035 A 
HETATM   14  C   UNL     1     -43.080  57.560 -57.036  1.00  0.00     0.044 A 
HETATM   15  C   UNL     1     -42.884  56.459 -57.882  1.00  0.00     0.011 A 
HETATM   16  C   UNL     1     -42.835  55.169 -57.341  1.00  0.00     0.015 A 
HETATM   17  C   UNL     1     -42.981  54.979 -55.969  1.00  0.00     0.003 A 
HETATM   18  C   UNL     1     -43.177  56.080 -55.134  1.00  0.00     0.029 A 
BRANCH  15  19
HETATM   19  C   UNL     1     -42.718  56.611 -59.359  1.00  0.00     0.155 C 
HETATM   20  C   UNL     1     -41.879  57.745 -59.891  1.00  0.00     0.096 C 
HETATM   21  O   UNL     1     -43.265  55.816 -60.121  1.00  0.00    -0.293 OA
ENDBRANCH  15  19
ENDBRANCH  10  13
ENDBRANCH   8   9
ENDBRANCH   7   8
ENDBRANCH   1   7
BRANCH   3  22
HETATM   22  C   UNL     1     -41.139  55.208 -51.024  1.00  0.00     0.048 A 
HETATM   23  C   UNL     1     -40.812  54.480 -49.864  1.00  0.00     0.080 A 
HETATM   24  C   UNL     1     -40.377  53.158 -49.939  1.00  0.00     0.039 A 
HETATM   25  C   UNL     1     -40.254  52.539 -51.181  1.00  0.00     0.022 A 
HETATM   26  C   UNL     1     -40.566  53.249 -52.339  1.00  0.00     0.012 A 
HETATM   27 BR   UNL     1     -40.390  52.411 -54.026  1.00  0.00    -0.051 Br
HETATM   28  C   UNL     1     -41.006  54.572 -52.268  1.00  0.00     0.037 A 
BRANCH  23  29
HETATM   29  O   UNL     1     -40.894  55.019 -48.603  1.00  0.00    -0.360 OA
HETATM   30  H   UNL     1     -40.285  55.787 -48.598  1.00  0.00     0.217 HD
ENDBRANCH  23  29
ENDBRANCH   3  22
TORSDOF 7
ENDMDL
MODEL 4
REMARK VINA RESULT:      -7.5      2.919      6.414
REMARK  7 active torsions:
REMARK  status: ('A' for Active; 'I' for Inactive)
REMARK    1  A    between atoms: C_2  and  C_3 
REMARK    2  A    between atoms: C_5  and  N_6 
REMARK       I    between atoms: N_6  and  C_7 
REMARK    3  A    between atoms: C_7  and  C_8 
REMARK    4  A    between atoms: C_8  and  S_9 
REMARK    5  A    between atoms: S_9  and  C_10 
REMARK    6  A    between atoms: C_12  and  C_13 
REMARK    7  A    between atoms: C_14  and  O_15 
ROOT
HETATM    1  C   UNL     1     -42.230  57.046 -51.442  1.00  0.00     0.185 A 
HETATM    2  N   UNL     1     -42.002  56.132 -52.349  1.00  0.00    -0.201 NA
HETATM    3  C   UNL     1     -41.297  55.165 -51.644  1.00  0.00     0.184 A 
HETATM    4  N   UNL     1     -41.129  55.453 -50.343  1.00  0.00    -0.152 NA
HETATM    5  N   UNL     1     -41.725  56.654 -50.244  1.00  0.00    -0.253 N 
HETATM    6  H   UNL     1     -41.742  57.144 -49.358  1.00  0.00     0.191 HD
ENDROOT
BRANCH   1   7
HETATM    7  S   UNL     1     -43.026  58.558 -51.627  1.00  0.00    -0.081 SA
BRANCH   7   8
HETATM    8  C   UNL     1     -44.535  58.051 -52.502  1.00  0.00     0.185 C 
BRANCH   8   9
HETATM    9  C   UNL     1     -44.458  58.388 -53.987  1.00  0.00     0.231 C 
HETATM   10  N   UNL     1     -43.303  57.911 -54.592  1.00  0.00    -0.327 N 
HETATM   11  H   UNL     1     -42.645  57.408 -54.007  1.00  0.00     0.169 HD
HETATM   12  O   UNL     1     -45.360  59.005 -54.549  1.00  0.00    -0.272 OA
BRANCH  10  13
HETATM   13  C   UNL     1     -42.897  58.079 -55.934  1.00  0.00     0.035 A 
HETATM   14  C   UNL     1     -43.044  57.106 -56.926  1.00  0.00     0.044 A 
HETATM   15  C   UNL     1     -42.621  57.360 -58.239  1.00  0.00     0.011 A 
HETATM   16  C   UNL     1     -42.048  58.598 -58.555  1.00  0.00     0.015 A 
HETATM   17  C   UNL     1     -41.898  59.572 -57.572  1.00  0.00     0.003 A 
HETATM   18  C   UNL     1     -42.321  59.312 -56.268  1.00  0.00     0.029 A 
BRANCH  15  19
HETATM   19  C   UNL     1     -42.764  56.349 -59.329  1.00  0.00     0.155 C 
HETATM   20  C   UNL     1     -43.860  55.319 -59.236  1.00  0.00     0.096 C 
HETATM   21  O   UNL     1     -41.990  56.367 -60.285  1.00  0.00    -0.293 OA
ENDBRANCH  15  19
ENDBRANCH  10  13
ENDBRANCH   8   9
ENDBRANCH   7   8
ENDBRANCH   1   7
BRANCH   3  22
HETATM   22  C   UNL     1     -40.788  53.965 -52.303  1.00  0.00     0.048 A 
HETATM   23  C   UNL     1     -40.601  53.916 -53.698  1.00  0.00     0.080 A 
HETATM   24  C   UNL     1     -40.092  52.777 -54.320  1.00  0.00     0.039 A 
HETATM   25  C   UNL     1     -39.767  51.658 -53.555  1.00  0.00     0.022 A 
HETATM   26  C   UNL     1     -39.955  51.688 -52.175  1.00  0.00     0.012 A 
HETATM   27 BR   UNL     1     -39.521  50.166 -51.139  1.00  0.00    -0.051 Br
HETATM   28  C   UNL     1     -40.459  52.829 -51.548  1.00  0.00     0.037 A 
BRANCH  23  29
HETATM   29  O   UNL     1     -40.907  54.970 -54.525  1.00  0.00    -0.360 OA
HETATM   30  H   UNL     1     -40.051  55.295 -54.875  1.00  0.00     0.217 HD
ENDBRANCH  23  29
ENDBRANCH   3  22
TORSDOF 7
ENDMDL
MODEL 5
REMARK VINA RESULT:      -7.4      2.755      5.978
REMARK  7 active torsions:
REMARK  status: ('A' for Active; 'I' for Inactive)
REMARK    1  A    between atoms: C_2  and  C_3 
REMARK    2  A    between atoms: C_5  and  N_6 
REMARK       I    between atoms: N_6  and  C_7 
REMARK    3  A    between atoms: C_7  and  C_8 
REMARK    4  A    between atoms: C_8  and  S_9 
REMARK    5  A    between atoms: S_9  and  C_10 
REMARK    6  A    between atoms: C_12  and  C_13 
REMARK    7  A    between atoms: C_14  and  O_15 
ROOT
HETATM    1  C   UNL     1     -43.870  58.208 -51.961  1.00  0.00     0.185 A 
HETATM    2  N   UNL     1     -43.376  57.414 -52.875  1.00  0.00    -0.201 NA
HETATM    3  C   UNL     1     -43.181  56.226 -52.182  1.00  0.00     0.184 A 
HETATM    4  N   UNL     1     -43.574  56.273 -50.898  1.00  0.00    -0.152 NA
HETATM    5  N   UNL     1     -44.000  57.544 -50.785  1.00  0.00    -0.253 N 
HETATM    6  H   UNL     1     -44.348  57.887 -49.897  1.00  0.00     0.191 HD
ENDROOT
BRANCH   1   7
HETATM    7  S   UNL     1     -44.309  59.862 -52.108  1.00  0.00    -0.081 SA
BRANCH   7   8
HETATM    8  C   UNL     1     -42.683  60.631 -52.371  1.00  0.00     0.185 C 
BRANCH   8   9
HETATM    9  C   UNL     1     -42.010  60.093 -53.630  1.00  0.00     0.231 C 
HETATM   10  N   UNL     1     -42.850  60.091 -54.735  1.00  0.00    -0.327 N 
HETATM   11  H   UNL     1     -43.796  60.429 -54.601  1.00  0.00     0.169 HD
HETATM   12  O   UNL     1     -40.837  59.728 -53.620  1.00  0.00    -0.272 OA
BRANCH  10  13
HETATM   13  C   UNL     1     -42.564  59.625 -56.037  1.00  0.00     0.035 A 
HETATM   14  C   UNL     1     -42.841  58.331 -56.486  1.00  0.00     0.044 A 
HETATM   15  C   UNL     1     -42.532  57.953 -57.801  1.00  0.00     0.011 A 
HETATM   16  C   UNL     1     -41.944  58.881 -58.669  1.00  0.00     0.015 A 
HETATM   17  C   UNL     1     -41.665  60.172 -58.229  1.00  0.00     0.003 A 
HETATM   18  C   UNL     1     -41.974  60.540 -56.919  1.00  0.00     0.029 A 
BRANCH  15  19
HETATM   19  C   UNL     1     -42.815  56.581 -58.320  1.00  0.00     0.155 C 
HETATM   20  C   UNL     1     -42.639  56.301 -59.791  1.00  0.00     0.096 C 
HETATM   21  O   UNL     1     -43.186  55.699 -57.547  1.00  0.00    -0.293 OA
ENDBRANCH  15  19
ENDBRANCH  10  13
ENDBRANCH   8   9
ENDBRANCH   7   8
ENDBRANCH   1   7
BRANCH   3  22
HETATM   22  C   UNL     1     -42.583  55.059 -52.827  1.00  0.00     0.048 A 
HETATM   23  C   UNL     1     -42.943  54.678 -54.134  1.00  0.00     0.080 A 
HETATM   24  C   UNL     1     -42.352  53.578 -54.754  1.00  0.00     0.039 A 
HETATM   25  C   UNL     1     -41.392  52.833 -54.073  1.00  0.00     0.022 A 
HETATM   26  C   UNL     1     -41.031  53.193 -52.776  1.00  0.00     0.012 A 
HETATM   27 BR   UNL     1     -39.734  52.176 -51.849  1.00  0.00    -0.051 Br
HETATM   28  C   UNL     1     -41.617  54.297 -52.153  1.00  0.00     0.037 A 
BRANCH  23  29
HETATM   29  O   UNL     1     -43.889  55.350 -54.869  1.00  0.00    -0.360 OA
HETATM   30  H   UNL     1     -44.748  54.934 -54.647  1.00  0.00     0.217 HD
ENDBRANCH  23  29
ENDBRANCH   3  22
TORSDOF 7
ENDMDL
MODEL 6
REMARK VINA RESULT:      -7.3      3.531      7.796
REMARK  7 active torsions:
REMARK  status: ('A' for Active; 'I' for Inactive)
REMARK    1  A    between atoms: C_2  and  C_3 
REMARK    2  A    between atoms: C_5  and  N_6 
REMARK       I    between atoms: N_6  and  C_7 
REMARK    3  A    between atoms: C_7  and  C_8 
REMARK    4  A    between atoms: C_8  and  S_9 
REMARK    5  A    between atoms: S_9  and  C_10 
REMARK    6  A    between atoms: C_12  and  C_13 
REMARK    7  A    between atoms: C_14  and  O_15 
ROOT
HETATM    1  C   UNL     1     -43.273  56.531 -54.336  1.00  0.00     0.185 A 
HETATM    2  N   UNL     1     -42.137  56.034 -53.919  1.00  0.00    -0.201 NA
HETATM    3  C   UNL     1     -42.442  54.696 -53.707  1.00  0.00     0.184 A 
HETATM    4  N   UNL     1     -43.709  54.371 -54.017  1.00  0.00    -0.152 NA
HETATM    5  N   UNL     1     -44.213  55.554 -54.407  1.00  0.00    -0.253 N 
HETATM    6  H   UNL     1     -45.184  55.627 -54.690  1.00  0.00     0.191 HD
ENDROOT
BRANCH   1   7
HETATM    7  S   UNL     1     -43.640  58.158 -54.747  1.00  0.00    -0.081 SA
BRANCH   7   8
HETATM    8  C   UNL     1     -42.410  58.473 -56.047  1.00  0.00     0.185 C 
BRANCH   8   9
HETATM    9  C   UNL     1     -43.001  58.262 -57.437  1.00  0.00     0.231 C 
HETATM   10  N   UNL     1     -43.770  57.110 -57.530  1.00  0.00    -0.327 N 
HETATM   11  H   UNL     1     -43.854  56.539 -56.696  1.00  0.00     0.169 HD
HETATM   12  O   UNL     1     -42.804  59.068 -58.344  1.00  0.00    -0.272 OA
BRANCH  10  13
HETATM   13  C   UNL     1     -44.423  56.596 -58.671  1.00  0.00     0.035 A 
HETATM   14  C   UNL     1     -45.551  57.176 -59.258  1.00  0.00     0.044 A 
HETATM   15  C   UNL     1     -46.133  56.604 -60.399  1.00  0.00     0.011 A 
HETATM   16  C   UNL     1     -45.579  55.444 -60.951  1.00  0.00     0.015 A 
HETATM   17  C   UNL     1     -44.456  54.859 -60.372  1.00  0.00     0.003 A 
HETATM   18  C   UNL     1     -43.883  55.434 -59.238  1.00  0.00     0.029 A 
BRANCH  15  19
HETATM   19  C   UNL     1     -47.336  57.196 -61.058  1.00  0.00     0.155 C 
HETATM   20  C   UNL     1     -47.586  58.677 -60.937  1.00  0.00     0.096 C 
HETATM   21  O   UNL     1     -48.106  56.473 -61.688  1.00  0.00    -0.293 OA
ENDBRANCH  15  19
ENDBRANCH  10  13
ENDBRANCH   8   9
ENDBRANCH   7   8
ENDBRANCH   1   7
BRANCH   3  22
HETATM   22  C   UNL     1     -41.449  53.765 -53.177  1.00  0.00     0.048 A 
HETATM   23  C   UNL     1     -40.827  53.984 -51.933  1.00  0.00     0.080 A 
HETATM   24  C   UNL     1     -39.898  53.080 -51.421  1.00  0.00     0.039 A 
HETATM   25  C   UNL     1     -39.567  51.939 -52.151  1.00  0.00     0.022 A 
HETATM   26  C   UNL     1     -40.168  51.714 -53.388  1.00  0.00     0.012 A 
HETATM   27 BR   UNL     1     -39.712  50.170 -54.381  1.00  0.00    -0.051 Br
HETATM   28  C   UNL     1     -41.103  52.614 -53.902  1.00  0.00     0.037 A 
BRANCH  23  29
HETATM   29  O   UNL     1     -41.088  55.087 -51.158  1.00  0.00    -0.360 OA
HETATM   30  H   UNL     1     -40.818  54.845 -50.247  1.00  0.00     0.217 HD
ENDBRANCH  23  29
ENDBRANCH   3  22
TORSDOF 7
ENDMDL
MODEL 7
REMARK VINA RESULT:      -7.3      2.308      2.944
REMARK  7 active torsions:
REMARK  status: ('A' for Active; 'I' for Inactive)
REMARK    1  A    between atoms: C_2  and  C_3 
REMARK    2  A    between atoms: C_5  and  N_6 
REMARK       I    between atoms: N_6  and  C_7 
REMARK    3  A    between atoms: C_7  and  C_8 
REMARK    4  A    between atoms: C_8  and  S_9 
REMARK    5  A    between atoms: S_9  and  C_10 
REMARK    6  A    between atoms: C_12  and  C_13 
REMARK    7  A    between atoms: C_14  and  O_15 
ROOT
HETATM    1  C   UNL     1     -43.479  59.304 -55.423  1.00  0.00     0.185 A 
HETATM    2  N   UNL     1     -43.192  58.801 -56.597  1.00  0.00    -0.201 NA
HETATM    3  C   UNL     1     -44.328  58.064 -56.905  1.00  0.00     0.184 A 
HETATM    4  N   UNL     1     -45.295  58.139 -55.974  1.00  0.00    -0.152 NA
HETATM    5  N   UNL     1     -44.727  58.927 -55.045  1.00  0.00    -0.253 N 
HETATM    6  H   UNL     1     -45.227  59.152 -54.193  1.00  0.00     0.191 HD
ENDROOT
BRANCH   1   7
HETATM    7  S   UNL     1     -42.499  60.294 -54.418  1.00  0.00    -0.081 SA
BRANCH   7   8
HETATM    8  C   UNL     1     -42.329  59.235 -52.950  1.00  0.00     0.185 C 
BRANCH   8   9
HETATM    9  C   UNL     1     -41.327  58.110 -53.189  1.00  0.00     0.231 C 
HETATM   10  N   UNL     1     -41.933  56.872 -53.354  1.00  0.00    -0.327 N 
HETATM   11  H   UNL     1     -42.944  56.837 -53.297  1.00  0.00     0.169 HD
HETATM   12  O   UNL     1     -40.120  58.330 -53.238  1.00  0.00    -0.272 OA
BRANCH  10  13
HETATM   13  C   UNL     1     -41.306  55.622 -53.550  1.00  0.00     0.035 A 
HETATM   14  C   UNL     1     -41.057  54.700 -52.530  1.00  0.00     0.044 A 
HETATM   15  C   UNL     1     -40.436  53.475 -52.814  1.00  0.00     0.011 A 
HETATM   16  C   UNL     1     -40.064  53.175 -54.130  1.00  0.00     0.015 A 
HETATM   17  C   UNL     1     -40.308  54.088 -55.152  1.00  0.00     0.003 A 
HETATM   18  C   UNL     1     -40.926  55.305 -54.861  1.00  0.00     0.029 A 
BRANCH  15  19
HETATM   19  C   UNL     1     -40.156  52.462 -51.752  1.00  0.00     0.155 C 
HETATM   20  C   UNL     1     -39.514  51.153 -52.136  1.00  0.00     0.096 C 
HETATM   21  O   UNL     1     -40.451  52.704 -50.583  1.00  0.00    -0.293 OA
ENDBRANCH  15  19
ENDBRANCH  10  13
ENDBRANCH   8   9
ENDBRANCH   7   8
ENDBRANCH   1   7
BRANCH   3  22
HETATM   22  C   UNL     1     -44.414  57.278 -58.133  1.00  0.00     0.048 A 
HETATM   23  C   UNL     1     -43.330  56.502 -58.586  1.00  0.00     0.080 A 
HETATM   24  C   UNL     1     -43.425  55.735 -59.746  1.00  0.00     0.039 A 
HETATM   25  C   UNL     1     -44.609  55.737 -60.481  1.00  0.00     0.022 A 
HETATM   26  C   UNL     1     -45.687  56.507 -60.051  1.00  0.00     0.012 A 
HETATM   27 BR   UNL     1     -47.290  56.515 -61.055  1.00  0.00    -0.051 Br
HETATM   28  C   UNL     1     -45.598  57.272 -58.887  1.00  0.00     0.037 A 
BRANCH  23  29
HETATM   29  O   UNL     1     -42.126  56.455 -57.927  1.00  0.00    -0.360 OA
HETATM   30  H   UNL     1     -42.238  57.002 -57.121  1.00  0.00     0.217 HD
ENDBRANCH  23  29
ENDBRANCH   3  22
TORSDOF 7
ENDMDL
MODEL 8
REMARK VINA RESULT:      -7.3      3.172      7.201
REMARK  7 active torsions:
REMARK  status: ('A' for Active; 'I' for Inactive)
REMARK    1  A    between atoms: C_2  and  C_3 
REMARK    2  A    between atoms: C_5  and  N_6 
REMARK       I    between atoms: N_6  and  C_7 
REMARK    3  A    between atoms: C_7  and  C_8 
REMARK    4  A    between atoms: C_8  and  S_9 
REMARK    5  A    between atoms: S_9  and  C_10 
REMARK    6  A    between atoms: C_12  and  C_13 
REMARK    7  A    between atoms: C_14  and  O_15 
ROOT
HETATM    1  C   UNL     1     -43.440  57.280 -51.330  1.00  0.00     0.185 A 
HETATM    2  N   UNL     1     -43.222  56.008 -51.542  1.00  0.00    -0.201 NA
HETATM    3  C   UNL     1     -41.961  55.813 -50.991  1.00  0.00     0.184 A 
HETATM    4  N   UNL     1     -41.438  56.914 -50.426  1.00  0.00    -0.152 NA
HETATM    5  N   UNL     1     -42.394  57.830 -50.662  1.00  0.00    -0.253 N 
HETATM    6  H   UNL     1     -42.268  58.788 -50.358  1.00  0.00     0.191 HD
ENDROOT
BRANCH   1   7
HETATM    7  S   UNL     1     -44.801  58.221 -51.793  1.00  0.00    -0.081 SA
BRANCH   7   8
HETATM    8  C   UNL     1     -44.251  58.856 -53.404  1.00  0.00     0.185 C 
BRANCH   8   9
HETATM    9  C   UNL     1     -44.726  57.962 -54.546  1.00  0.00     0.231 C 
HETATM   10  N   UNL     1     -44.711  58.602 -55.778  1.00  0.00    -0.327 N 
HETATM   11  H   UNL     1     -44.403  59.568 -55.796  1.00  0.00     0.169 HD
HETATM   12  O   UNL     1     -45.060  56.796 -54.347  1.00  0.00    -0.272 OA
BRANCH  10  13
HETATM   13  C   UNL     1     -45.123  58.085 -57.026  1.00  0.00     0.035 A 
HETATM   14  C   UNL     1     -44.273  57.434 -57.924  1.00  0.00     0.044 A 
HETATM   15  C   UNL     1     -44.767  56.942 -59.141  1.00  0.00     0.011 A 
HETATM   16  C   UNL     1     -46.121  57.105 -59.455  1.00  0.00     0.015 A 
HETATM   17  C   UNL     1     -46.974  57.752 -58.566  1.00  0.00     0.003 A 
HETATM   18  C   UNL     1     -46.475  58.240 -57.358  1.00  0.00     0.029 A 
BRANCH  15  19
HETATM   19  C   UNL     1     -43.893  56.237 -60.126  1.00  0.00     0.155 C 
HETATM   20  C   UNL     1     -42.403  56.211 -59.899  1.00  0.00     0.096 C 
HETATM   21  O   UNL     1     -44.395  55.688 -61.106  1.00  0.00    -0.293 OA
ENDBRANCH  15  19
ENDBRANCH  10  13
ENDBRANCH   8   9
ENDBRANCH   7   8
ENDBRANCH   1   7
BRANCH   3  22
HETATM   22  C   UNL     1     -41.296  54.514 -51.057  1.00  0.00     0.048 A 
HETATM   23  C   UNL     1     -40.961  53.801 -49.891  1.00  0.00     0.080 A 
HETATM   24  C   UNL     1     -40.348  52.551 -49.959  1.00  0.00     0.039 A 
HETATM   25  C   UNL     1     -40.051  51.993 -51.201  1.00  0.00     0.022 A 
HETATM   26  C   UNL     1     -40.368  52.692 -52.365  1.00  0.00     0.012 A 
HETATM   27 BR   UNL     1     -39.955  51.938 -54.050  1.00  0.00    -0.051 Br
HETATM   28  C   UNL     1     -40.986  53.942 -52.300  1.00  0.00     0.037 A 
BRANCH  23  29
HETATM   29  O   UNL     1     -41.209  54.284 -48.629  1.00  0.00    -0.360 OA
HETATM   30  H   UNL     1     -40.446  54.005 -48.079  1.00  0.00     0.217 HD
ENDBRANCH  23  29
ENDBRANCH   3  22
TORSDOF 7
ENDMDL
MODEL 9
REMARK VINA RESULT:      -7.2      3.941      7.986
REMARK  7 active torsions:
REMARK  status: ('A' for Active; 'I' for Inactive)
REMARK    1  A    between atoms: C_2  and  C_3 
REMARK    2  A    between atoms: C_5  and  N_6 
REMARK       I    between atoms: N_6  and  C_7 
REMARK    3  A    between atoms: C_7  and  C_8 
REMARK    4  A    between atoms: C_8  and  S_9 
REMARK    5  A    between atoms: S_9  and  C_10 
REMARK    6  A    between atoms: C_12  and  C_13 
REMARK    7  A    between atoms: C_14  and  O_15 
ROOT
HETATM    1  C   UNL     1     -42.327  56.809 -53.635  1.00  0.00     0.185 A 
HETATM    2  N   UNL     1     -42.108  55.809 -52.820  1.00  0.00    -0.201 NA
HETATM    3  C   UNL     1     -41.120  55.085 -53.475  1.00  0.00     0.184 A 
HETATM    4  N   UNL     1     -40.717  55.637 -54.632  1.00  0.00    -0.152 NA
HETATM    5  N   UNL     1     -41.503  56.725 -54.711  1.00  0.00    -0.253 N 
HETATM    6  H   UNL     1     -41.438  57.345 -55.509  1.00  0.00     0.191 HD
ENDROOT
BRANCH   1   7
HETATM    7  S   UNL     1     -43.467  58.084 -53.477  1.00  0.00    -0.081 SA
BRANCH   7   8
HETATM    8  C   UNL     1     -44.894  57.385 -54.357  1.00  0.00     0.185 C 
BRANCH   8   9
HETATM    9  C   UNL     1     -44.929  57.839 -55.812  1.00  0.00     0.231 C 
HETATM   10  N   UNL     1     -46.204  57.803 -56.361  1.00  0.00    -0.327 N 
HETATM   11  H   UNL     1     -46.958  57.484 -55.764  1.00  0.00     0.169 HD
HETATM   12  O   UNL     1     -43.909  58.207 -56.390  1.00  0.00    -0.272 OA
BRANCH  10  13
HETATM   13  C   UNL     1     -46.584  58.115 -57.685  1.00  0.00     0.035 A 
HETATM   14  C   UNL     1     -46.664  57.180 -58.720  1.00  0.00     0.044 A 
HETATM   15  C   UNL     1     -47.060  57.575 -60.006  1.00  0.00     0.011 A 
HETATM   16  C   UNL     1     -47.379  58.915 -60.252  1.00  0.00     0.015 A 
HETATM   17  C   UNL     1     -47.302  59.853 -59.226  1.00  0.00     0.003 A 
HETATM   18  C   UNL     1     -46.906  59.453 -57.950  1.00  0.00     0.029 A 
BRANCH  15  19
HETATM   19  C   UNL     1     -47.162  56.605 -61.138  1.00  0.00     0.155 C 
HETATM   20  C   UNL     1     -48.316  56.717 -62.101  1.00  0.00     0.096 C 
HETATM   21  O   UNL     1     -46.307  55.731 -61.272  1.00  0.00    -0.293 OA
ENDBRANCH  15  19
ENDBRANCH  10  13
ENDBRANCH   8   9
ENDBRANCH   7   8
ENDBRANCH   1   7
BRANCH   3  22
HETATM   22  C   UNL     1     -40.606  53.833 -52.927  1.00  0.00     0.048 A 
HETATM   23  C   UNL     1     -40.314  53.696 -51.556  1.00  0.00     0.080 A 
HETATM   24  C   UNL     1     -39.847  52.492 -51.033  1.00  0.00     0.039 A 
HETATM   25  C   UNL     1     -39.655  51.399 -51.877  1.00  0.00     0.022 A 
HETATM   26  C   UNL     1     -39.930  51.522 -53.237  1.00  0.00     0.012 A 
HETATM   27 BR   UNL     1     -39.661  50.041 -54.383  1.00  0.00    -0.051 Br
HETATM   28  C   UNL     1     -40.403  52.725 -53.764  1.00  0.00     0.037 A 
BRANCH  23  29
HETATM   29  O   UNL     1     -40.465  54.726 -50.660  1.00  0.00    -0.360 OA
HETATM   30  H   UNL     1     -41.431  54.874 -50.579  1.00  0.00     0.217 HD
ENDBRANCH  23  29
ENDBRANCH   3  22
TORSDOF 7
ENDMDL
MODEL 10
REMARK VINA RESULT:      -7.0      3.062      6.514
REMARK  7 active torsions:
REMARK  status: ('A' for Active; 'I' for Inactive)
REMARK    1  A    between atoms: C_2  and  C_3 
REMARK    2  A    between atoms: C_5  and  N_6 
REMARK       I    between atoms: N_6  and  C_7 
REMARK    3  A    between atoms: C_7  and  C_8 
REMARK    4  A    between atoms: C_8  and  S_9 
REMARK    5  A    between atoms: S_9  and  C_10 
REMARK    6  A    between atoms: C_12  and  C_13 
REMARK    7  A    between atoms: C_14  and  O_15 
ROOT
HETATM    1  C   UNL     1     -44.062  57.278 -53.499  1.00  0.00     0.185 A 
HETATM    2  N   UNL     1     -42.903  56.730 -53.240  1.00  0.00    -0.201 NA
HETATM    3  C   UNL     1     -43.037  55.453 -53.771  1.00  0.00     0.184 A 
HETATM    4  N   UNL     1     -44.221  55.234 -54.368  1.00  0.00    -0.152 NA
HETATM    5  N   UNL     1     -44.852  56.405 -54.175  1.00  0.00    -0.253 N 
HETATM    6  H   UNL     1     -45.800  56.535 -54.510  1.00  0.00     0.191 HD
ENDROOT
BRANCH   1   7
HETATM    7  S   UNL     1     -44.617  58.850 -53.082  1.00  0.00    -0.081 SA
BRANCH   7   8
HETATM    8  C   UNL     1     -43.567  59.881 -54.148  1.00  0.00     0.185 C 
BRANCH   8   9
HETATM    9  C   UNL     1     -43.822  59.597 -55.624  1.00  0.00     0.231 C 
HETATM   10  N   UNL     1     -43.030  58.572 -56.124  1.00  0.00    -0.327 N 
HETATM   11  H   UNL     1     -42.379  58.133 -55.482  1.00  0.00     0.169 HD
HETATM   12  O   UNL     1     -44.666  60.225 -56.259  1.00  0.00    -0.272 OA
BRANCH  10  13
HETATM   13  C   UNL     1     -42.980  58.084 -57.448  1.00  0.00     0.035 A 
HETATM   14  C   UNL     1     -43.873  57.146 -57.972  1.00  0.00     0.044 A 
HETATM   15  C   UNL     1     -43.758  56.722 -59.305  1.00  0.00     0.011 A 
HETATM   16  C   UNL     1     -42.740  57.243 -60.112  1.00  0.00     0.015 A 
HETATM   17  C   UNL     1     -41.846  58.178 -59.596  1.00  0.00     0.003 A 
HETATM   18  C   UNL     1     -41.967  58.594 -58.271  1.00  0.00     0.029 A 
BRANCH  15  19
HETATM   19  C   UNL     1     -44.695  55.725 -59.904  1.00  0.00     0.155 C 
HETATM   20  C   UNL     1     -44.503  54.261 -59.599  1.00  0.00     0.096 C 
HETATM   21  O   UNL     1     -45.607  56.106 -60.636  1.00  0.00    -0.293 OA
ENDBRANCH  15  19
ENDBRANCH  10  13
ENDBRANCH   8   9
ENDBRANCH   7   8
ENDBRANCH   1   7
BRANCH   3  22
HETATM   22  C   UNL     1     -41.968  54.465 -53.653  1.00  0.00     0.048 A 
HETATM   23  C   UNL     1     -41.193  54.086 -54.766  1.00  0.00     0.080 A 
HETATM   24  C   UNL     1     -40.158  53.160 -54.644  1.00  0.00     0.039 A 
HETATM   25  C   UNL     1     -39.883  52.590 -53.403  1.00  0.00     0.022 A 
HETATM   26  C   UNL     1     -40.647  52.949 -52.294  1.00  0.00     0.012 A 
HETATM   27 BR   UNL     1     -40.278  52.167 -50.612  1.00  0.00    -0.051 Br
HETATM   28  C   UNL     1     -41.681  53.879 -52.411  1.00  0.00     0.037 A 
BRANCH  23  29
HETATM   29  O   UNL     1     -41.406  54.591 -56.025  1.00  0.00    -0.360 OA
HETATM   30  H   UNL     1     -41.484  53.814 -56.618  1.00  0.00     0.217 HD
ENDBRANCH  23  29
ENDBRANCH   3  22
TORSDOF 7
ENDMDL
