MODEL 1
REMARK VINA RESULT:      -8.8      0.000      0.000
REMARK  1 active torsions:
REMARK  status: ('A' for Active; 'I' for Inactive)
REMARK    1  A    between atoms: C_8  and  C_9 
ROOT
HETATM    1  C   UNL     1     -43.581  55.045 -50.529  1.00  0.00     0.073 C 
HETATM    2  C   UNL     1     -43.867  56.407 -51.061  1.00  0.00     0.062 A 
HETATM    3  N   UNL     1     -45.078  56.932 -50.859  1.00  0.00    -0.178 NA
HETATM    4  N   UNL     1     -44.980  58.162 -51.360  1.00  0.00    -0.262 N 
HETATM    5  H   UNL     1     -45.789  58.766 -51.288  1.00  0.00     0.191 HD
HETATM    6  C   UNL     1     -43.768  58.449 -51.930  1.00  0.00     0.134 A 
HETATM    7  C   UNL     1     -42.992  57.309 -51.773  1.00  0.00     0.032 A 
HETATM    8  C   UNL     1     -41.542  57.049 -52.049  1.00  0.00     0.119 C 
HETATM    9  S   UNL     1     -40.507  58.356 -52.736  1.00  0.00    -0.141 SA
HETATM   10  C   UNL     1     -41.583  59.221 -53.914  1.00  0.00     0.136 C 
HETATM   11  C   UNL     1     -42.265  58.399 -54.995  1.00  0.00     0.031 C 
HETATM   12  C   UNL     1     -42.548  60.163 -53.220  1.00  0.00     0.236 C 
HETATM   13  O   UNL     1     -42.508  61.379 -53.440  1.00  0.00    -0.272 OA
HETATM   14  N   UNL     1     -43.569  59.708 -52.442  1.00  0.00    -0.311 N 
HETATM   15  H   UNL     1     -44.221  60.446 -52.202  1.00  0.00     0.170 HD
ENDROOT
BRANCH   8  16
HETATM   16  C   UNL     1     -41.353  55.707 -52.750  1.00  0.00    -0.039 A 
HETATM   17  C   UNL     1     -40.609  54.709 -52.082  1.00  0.00     0.021 A 
HETATM   18  C   UNL     1     -40.426  53.425 -52.623  1.00  0.00    -0.025 A 
HETATM   19  C   UNL     1     -40.974  53.126 -53.887  1.00  0.00    -0.026 A 
HETATM   20  C   UNL     1     -39.721  52.429 -51.927  1.00  0.00     0.012 A 
HETATM   21  C   UNL     1     -41.689  54.118 -54.570  1.00  0.00     0.013 A 
HETATM   22  C   UNL     1     -40.801  51.840 -54.426  1.00  0.00     0.012 A 
HETATM   23  C   UNL     1     -41.881  55.386 -54.008  1.00  0.00     0.009 A 
HETATM   24  C   UNL     1     -40.101  50.859 -53.720  1.00  0.00     0.001 A 
HETATM   25  C   UNL     1     -39.563  51.153 -52.471  1.00  0.00     0.001 A 
ENDBRANCH   8  16
TORSDOF 1
ENDMDL
MODEL 2
REMARK VINA RESULT:      -8.7      2.133      3.194
REMARK  1 active torsions:
REMARK  status: ('A' for Active; 'I' for Inactive)
REMARK    1  A    between atoms: C_8  and  C_9 
ROOT
HETATM    1  C   UNL     1     -39.560  58.671 -52.832  1.00  0.00     0.073 C 
HETATM    2  C   UNL     1     -40.672  58.963 -51.885  1.00  0.00     0.062 A 
HETATM    3  N   UNL     1     -40.401  59.653 -50.774  1.00  0.00    -0.178 NA
HETATM    4  N   UNL     1     -41.594  59.823 -50.206  1.00  0.00    -0.262 N 
HETATM    5  H   UNL     1     -41.635  60.357 -49.347  1.00  0.00     0.191 HD
HETATM    6  C   UNL     1     -42.632  59.228 -50.874  1.00  0.00     0.134 A 
HETATM    7  C   UNL     1     -42.073  58.627 -51.993  1.00  0.00     0.032 A 
HETATM    8  C   UNL     1     -42.699  57.957 -53.177  1.00  0.00     0.119 C 
HETATM    9  S   UNL     1     -44.493  57.810 -53.285  1.00  0.00    -0.141 SA
HETATM   10  C   UNL     1     -45.028  57.480 -51.583  1.00  0.00     0.136 C 
HETATM   11  C   UNL     1     -44.399  56.307 -50.850  1.00  0.00     0.031 C 
HETATM   12  C   UNL     1     -45.046  58.738 -50.736  1.00  0.00     0.236 C 
HETATM   13  O   UNL     1     -46.103  59.150 -50.244  1.00  0.00    -0.272 OA
HETATM   14  N   UNL     1     -43.902  59.383 -50.376  1.00  0.00    -0.311 N 
HETATM   15  H   UNL     1     -44.073  60.091 -49.670  1.00  0.00     0.170 HD
ENDROOT
BRANCH   8  16
HETATM   16  C   UNL     1     -41.972  56.659 -53.516  1.00  0.00    -0.039 A 
HETATM   17  C   UNL     1     -41.644  55.786 -52.455  1.00  0.00     0.021 A 
HETATM   18  C   UNL     1     -41.023  54.543 -52.673  1.00  0.00    -0.025 A 
HETATM   19  C   UNL     1     -40.686  54.165 -53.989  1.00  0.00    -0.026 A 
HETATM   20  C   UNL     1     -40.743  53.666 -51.612  1.00  0.00     0.012 A 
HETATM   21  C   UNL     1     -40.981  55.037 -55.045  1.00  0.00     0.013 A 
HETATM   22  C   UNL     1     -40.074  52.920 -54.211  1.00  0.00     0.012 A 
HETATM   23  C   UNL     1     -41.619  56.262 -54.813  1.00  0.00     0.009 A 
HETATM   24  C   UNL     1     -39.806  52.057 -53.147  1.00  0.00     0.001 A 
HETATM   25  C   UNL     1     -40.141  52.429 -51.849  1.00  0.00     0.001 A 
ENDBRANCH   8  16
TORSDOF 1
ENDMDL
MODEL 3
REMARK VINA RESULT:      -8.6      2.058      2.821
REMARK  1 active torsions:
REMARK  status: ('A' for Active; 'I' for Inactive)
REMARK    1  A    between atoms: C_8  and  C_9 
ROOT
HETATM    1  C   UNL     1     -42.143  55.459 -49.898  1.00  0.00     0.073 C 
HETATM    2  C   UNL     1     -42.971  55.938 -51.041  1.00  0.00     0.062 A 
HETATM    3  N   UNL     1     -44.209  56.373 -50.795  1.00  0.00    -0.178 NA
HETATM    4  N   UNL     1     -44.634  56.809 -51.980  1.00  0.00    -0.262 N 
HETATM    5  H   UNL     1     -45.559  57.218 -52.027  1.00  0.00     0.191 HD
HETATM    6  C   UNL     1     -43.743  56.630 -53.005  1.00  0.00     0.134 A 
HETATM    7  C   UNL     1     -42.622  56.039 -52.439  1.00  0.00     0.032 A 
HETATM    8  C   UNL     1     -41.269  55.734 -53.003  1.00  0.00     0.119 C 
HETATM    9  S   UNL     1     -40.900  56.128 -54.724  1.00  0.00    -0.141 SA
HETATM   10  C   UNL     1     -42.435  55.754 -55.617  1.00  0.00     0.136 C 
HETATM   11  C   UNL     1     -43.034  54.367 -55.461  1.00  0.00     0.031 C 
HETATM   12  C   UNL     1     -43.474  56.846 -55.448  1.00  0.00     0.236 C 
HETATM   13  O   UNL     1     -43.884  57.481 -56.427  1.00  0.00    -0.272 OA
HETATM   14  N   UNL     1     -44.087  57.081 -54.255  1.00  0.00    -0.311 N 
HETATM   15  H   UNL     1     -44.874  57.713 -54.352  1.00  0.00     0.170 HD
ENDROOT
BRANCH   8  16
HETATM   16  C   UNL     1     -40.812  54.335 -52.600  1.00  0.00    -0.039 A 
HETATM   17  C   UNL     1     -40.799  53.330 -53.592  1.00  0.00     0.021 A 
HETATM   18  C   UNL     1     -40.345  52.026 -53.331  1.00  0.00    -0.025 A 
HETATM   19  C   UNL     1     -39.915  51.695 -52.029  1.00  0.00    -0.026 A 
HETATM   20  C   UNL     1     -40.296  51.049 -54.340  1.00  0.00     0.012 A 
HETATM   21  C   UNL     1     -39.952  52.677 -51.031  1.00  0.00     0.013 A 
HETATM   22  C   UNL     1     -39.452  50.395 -51.767  1.00  0.00     0.012 A 
HETATM   23  C   UNL     1     -40.387  53.978 -51.313  1.00  0.00     0.009 A 
HETATM   24  C   UNL     1     -39.405  49.436 -52.781  1.00  0.00     0.001 A 
HETATM   25  C   UNL     1     -39.826  49.763 -54.066  1.00  0.00     0.001 A 
ENDBRANCH   8  16
TORSDOF 1
ENDMDL
MODEL 4
REMARK VINA RESULT:      -7.7      3.615      6.561
REMARK  1 active torsions:
REMARK  status: ('A' for Active; 'I' for Inactive)
REMARK    1  A    between atoms: C_8  and  C_9 
ROOT
HETATM    1  C   UNL     1     -41.478  56.111 -49.778  1.00  0.00     0.073 C 
HETATM    2  C   UNL     1     -40.824  54.959 -50.459  1.00  0.00     0.062 A 
HETATM    3  N   UNL     1     -39.844  54.313 -49.824  1.00  0.00    -0.178 NA
HETATM    4  N   UNL     1     -39.546  53.304 -50.640  1.00  0.00    -0.262 N 
HETATM    5  H   UNL     1     -38.832  52.650 -50.341  1.00  0.00     0.191 HD
HETATM    6  C   UNL     1     -40.255  53.291 -51.812  1.00  0.00     0.134 A 
HETATM    7  C   UNL     1     -41.112  54.381 -51.751  1.00  0.00     0.032 A 
HETATM    8  C   UNL     1     -42.231  54.815 -52.648  1.00  0.00     0.119 C 
HETATM    9  S   UNL     1     -42.628  53.856 -54.123  1.00  0.00    -0.141 SA
HETATM   10  C   UNL     1     -41.019  53.316 -54.764  1.00  0.00     0.136 C 
HETATM   11  C   UNL     1     -39.965  54.377 -55.035  1.00  0.00     0.031 C 
HETATM   12  C   UNL     1     -40.458  52.142 -53.985  1.00  0.00     0.236 C 
HETATM   13  O   UNL     1     -40.258  51.056 -54.543  1.00  0.00    -0.272 OA
HETATM   14  N   UNL     1     -40.035  52.265 -52.697  1.00  0.00    -0.311 N 
HETATM   15  H   UNL     1     -39.528  51.444 -52.385  1.00  0.00     0.170 HD
ENDROOT
BRANCH   8  16
HETATM   16  C   UNL     1     -42.167  56.317 -52.912  1.00  0.00    -0.039 A 
HETATM   17  C   UNL     1     -43.349  57.071 -52.739  1.00  0.00     0.021 A 
HETATM   18  C   UNL     1     -43.377  58.467 -52.906  1.00  0.00    -0.025 A 
HETATM   19  C   UNL     1     -42.197  59.137 -53.288  1.00  0.00    -0.026 A 
HETATM   20  C   UNL     1     -44.550  59.209 -52.688  1.00  0.00     0.012 A 
HETATM   21  C   UNL     1     -41.027  58.394 -53.490  1.00  0.00     0.013 A 
HETATM   22  C   UNL     1     -42.219  60.533 -53.447  1.00  0.00     0.012 A 
HETATM   23  C   UNL     1     -41.011  57.007 -53.299  1.00  0.00     0.009 A 
HETATM   24  C   UNL     1     -43.391  61.258 -53.222  1.00  0.00     0.001 A 
HETATM   25  C   UNL     1     -44.555  60.596 -52.842  1.00  0.00     0.001 A 
ENDBRANCH   8  16
TORSDOF 1
ENDMDL
MODEL 5
REMARK VINA RESULT:      -7.7      3.566      6.262
REMARK  1 active torsions:
REMARK  status: ('A' for Active; 'I' for Inactive)
REMARK    1  A    between atoms: C_8  and  C_9 
ROOT
HETATM    1  C   UNL     1     -40.217  54.103 -55.113  1.00  0.00     0.073 C 
HETATM    2  C   UNL     1     -40.340  53.523 -53.746  1.00  0.00     0.062 A 
HETATM    3  N   UNL     1     -40.092  52.222 -53.578  1.00  0.00    -0.178 NA
HETATM    4  N   UNL     1     -40.192  52.046 -52.262  1.00  0.00    -0.262 N 
HETATM    5  H   UNL     1     -40.012  51.119 -51.895  1.00  0.00     0.191 HD
HETATM    6  C   UNL     1     -40.547  53.169 -51.563  1.00  0.00     0.134 A 
HETATM    7  C   UNL     1     -40.673  54.181 -52.504  1.00  0.00     0.032 A 
HETATM    8  C   UNL     1     -40.891  55.655 -52.353  1.00  0.00     0.119 C 
HETATM    9  S   UNL     1     -41.067  56.377 -50.710  1.00  0.00    -0.141 SA
HETATM   10  C   UNL     1     -42.018  55.150 -49.771  1.00  0.00     0.136 C 
HETATM   11  C   UNL     1     -43.349  54.689 -50.341  1.00  0.00     0.031 C 
HETATM   12  C   UNL     1     -41.158  53.987 -49.317  1.00  0.00     0.236 C 
HETATM   13  O   UNL     1     -41.000  53.754 -48.113  1.00  0.00    -0.272 OA
HETATM   14  N   UNL     1     -40.640  53.085 -50.196  1.00  0.00    -0.311 N 
HETATM   15  H   UNL     1     -40.247  52.278 -49.723  1.00  0.00     0.170 HD
ENDROOT
BRANCH   8  16
HETATM   16  C   UNL     1     -41.943  56.155 -53.340  1.00  0.00    -0.039 A 
HETATM   17  C   UNL     1     -41.664  57.334 -54.066  1.00  0.00     0.021 A 
HETATM   18  C   UNL     1     -42.547  57.842 -55.036  1.00  0.00    -0.025 A 
HETATM   19  C   UNL     1     -43.766  57.175 -55.273  1.00  0.00    -0.026 A 
HETATM   20  C   UNL     1     -42.235  58.991 -55.782  1.00  0.00     0.012 A 
HETATM   21  C   UNL     1     -44.064  56.021 -54.536  1.00  0.00     0.013 A 
HETATM   22  C   UNL     1     -44.645  57.674 -56.247  1.00  0.00     0.012 A 
HETATM   23  C   UNL     1     -43.165  55.516 -53.590  1.00  0.00     0.009 A 
HETATM   24  C   UNL     1     -44.320  58.815 -56.984  1.00  0.00     0.001 A 
HETATM   25  C   UNL     1     -43.116  59.472 -56.752  1.00  0.00     0.001 A 
ENDBRANCH   8  16
TORSDOF 1
ENDMDL
MODEL 6
REMARK VINA RESULT:      -7.6      2.042      3.298
REMARK  1 active torsions:
REMARK  status: ('A' for Active; 'I' for Inactive)
REMARK    1  A    between atoms: C_8  and  C_9 
ROOT
HETATM    1  C   UNL     1     -39.528  58.547 -51.821  1.00  0.00     0.073 C 
HETATM    2  C   UNL     1     -40.784  59.218 -51.384  1.00  0.00     0.062 A 
HETATM    3  N   UNL     1     -40.707  60.190 -50.473  1.00  0.00    -0.178 NA
HETATM    4  N   UNL     1     -41.958  60.636 -50.375  1.00  0.00    -0.262 N 
HETATM    5  H   UNL     1     -42.135  61.411 -49.747  1.00  0.00     0.191 HD
HETATM    6  C   UNL     1     -42.865  59.960 -51.148  1.00  0.00     0.134 A 
HETATM    7  C   UNL     1     -42.139  58.993 -51.831  1.00  0.00     0.032 A 
HETATM    8  C   UNL     1     -42.530  58.048 -52.925  1.00  0.00     0.119 C 
HETATM    9  S   UNL     1     -44.223  58.038 -53.546  1.00  0.00    -0.141 SA
HETATM   10  C   UNL     1     -45.251  58.301 -52.074  1.00  0.00     0.136 C 
HETATM   11  C   UNL     1     -45.065  57.362 -50.895  1.00  0.00     0.031 C 
HETATM   12  C   UNL     1     -45.272  59.756 -51.646  1.00  0.00     0.236 C 
HETATM   13  O   UNL     1     -46.332  60.394 -51.640  1.00  0.00    -0.272 OA
HETATM   14  N   UNL     1     -44.173  60.375 -51.133  1.00  0.00    -0.311 N 
HETATM   15  H   UNL     1     -44.399  61.279 -50.734  1.00  0.00     0.170 HD
ENDROOT
BRANCH   8  16
HETATM   16  C   UNL     1     -41.983  56.649 -52.659  1.00  0.00    -0.039 A 
HETATM   17  C   UNL     1     -41.582  55.871 -53.767  1.00  0.00     0.021 A 
HETATM   18  C   UNL     1     -41.016  54.593 -53.619  1.00  0.00    -0.025 A 
HETATM   19  C   UNL     1     -40.871  54.050 -52.326  1.00  0.00    -0.026 A 
HETATM   20  C   UNL     1     -40.581  53.849 -54.730  1.00  0.00     0.012 A 
HETATM   21  C   UNL     1     -41.293  54.802 -51.222  1.00  0.00     0.013 A 
HETATM   22  C   UNL     1     -40.298  52.777 -52.174  1.00  0.00     0.012 A 
HETATM   23  C   UNL     1     -41.835  56.083 -51.385  1.00  0.00     0.009 A 
HETATM   24  C   UNL     1     -39.866  52.052 -53.286  1.00  0.00     0.001 A 
HETATM   25  C   UNL     1     -40.007  52.588 -54.563  1.00  0.00     0.001 A 
ENDBRANCH   8  16
TORSDOF 1
ENDMDL
MODEL 7
REMARK VINA RESULT:      -7.4      2.253      3.262
REMARK  1 active torsions:
REMARK  status: ('A' for Active; 'I' for Inactive)
REMARK    1  A    between atoms: C_8  and  C_9 
ROOT
HETATM    1  C   UNL     1     -42.866  55.337 -56.958  1.00  0.00     0.073 C 
HETATM    2  C   UNL     1     -42.619  56.771 -56.640  1.00  0.00     0.062 A 
HETATM    3  N   UNL     1     -42.504  57.639 -57.648  1.00  0.00    -0.178 NA
HETATM    4  N   UNL     1     -42.388  58.818 -57.041  1.00  0.00    -0.262 N 
HETATM    5  H   UNL     1     -42.315  59.643 -57.624  1.00  0.00     0.191 HD
HETATM    6  C   UNL     1     -42.370  58.755 -55.673  1.00  0.00     0.134 A 
HETATM    7  C   UNL     1     -42.506  57.411 -55.350  1.00  0.00     0.032 A 
HETATM    8  C   UNL     1     -42.704  56.721 -54.036  1.00  0.00     0.119 C 
HETATM    9  S   UNL     1     -42.769  57.685 -52.513  1.00  0.00    -0.141 SA
HETATM   10  C   UNL     1     -41.538  58.997 -52.748  1.00  0.00     0.136 C 
HETATM   11  C   UNL     1     -40.120  58.590 -53.111  1.00  0.00     0.031 C 
HETATM   12  C   UNL     1     -42.055  60.112 -53.636  1.00  0.00     0.236 C 
HETATM   13  O   UNL     1     -42.169  61.263 -53.198  1.00  0.00    -0.272 OA
HETATM   14  N   UNL     1     -42.287  59.929 -54.966  1.00  0.00    -0.311 N 
HETATM   15  H   UNL     1     -42.455  60.807 -55.445  1.00  0.00     0.170 HD
ENDROOT
BRANCH   8  16
HETATM   16  C   UNL     1     -41.808  55.491 -53.926  1.00  0.00    -0.039 A 
HETATM   17  C   UNL     1     -41.694  54.863 -52.666  1.00  0.00     0.021 A 
HETATM   18  C   UNL     1     -40.937  53.694 -52.477  1.00  0.00    -0.025 A 
HETATM   19  C   UNL     1     -40.240  53.142 -53.571  1.00  0.00    -0.026 A 
HETATM   20  C   UNL     1     -40.869  53.057 -51.227  1.00  0.00     0.012 A 
HETATM   21  C   UNL     1     -40.323  53.774 -54.819  1.00  0.00     0.013 A 
HETATM   22  C   UNL     1     -39.490  51.969 -53.388  1.00  0.00     0.012 A 
HETATM   23  C   UNL     1     -41.100  54.926 -54.995  1.00  0.00     0.009 A 
HETATM   24  C   UNL     1     -39.435  51.344 -52.141  1.00  0.00     0.001 A 
HETATM   25  C   UNL     1     -40.126  51.887 -51.061  1.00  0.00     0.001 A 
ENDBRANCH   8  16
TORSDOF 1
ENDMDL
MODEL 8
REMARK VINA RESULT:      -7.4      2.407      3.412
REMARK  1 active torsions:
REMARK  status: ('A' for Active; 'I' for Inactive)
REMARK    1  A    between atoms: C_8  and  C_9 
ROOT
HETATM    1  C   UNL     1     -39.904  58.729 -52.908  1.00  0.00     0.073 C 
HETATM    2  C   UNL     1     -41.195  59.318 -53.364  1.00  0.00     0.062 A 
HETATM    3  N   UNL     1     -41.565  60.503 -52.872  1.00  0.00    -0.178 NA
HETATM    4  N   UNL     1     -42.685  60.786 -53.535  1.00  0.00    -0.262 N 
HETATM    5  H   UNL     1     -43.137  61.672 -53.341  1.00  0.00     0.191 HD
HETATM    6  C   UNL     1     -43.094  59.811 -54.406  1.00  0.00     0.134 A 
HETATM    7  C   UNL     1     -42.145  58.801 -54.321  1.00  0.00     0.032 A 
HETATM    8  C   UNL     1     -41.951  57.551 -55.123  1.00  0.00     0.119 C 
HETATM    9  S   UNL     1     -43.101  57.146 -56.452  1.00  0.00    -0.141 SA
HETATM   10  C   UNL     1     -44.724  57.659 -55.825  1.00  0.00     0.136 C 
HETATM   11  C   UNL     1     -45.179  57.109 -54.484  1.00  0.00     0.031 C 
HETATM   12  C   UNL     1     -44.926  59.159 -55.924  1.00  0.00     0.236 C 
HETATM   13  O   UNL     1     -45.830  59.627 -56.626  1.00  0.00    -0.272 OA
HETATM   14  N   UNL     1     -44.221  60.035 -55.156  1.00  0.00    -0.311 N 
HETATM   15  H   UNL     1     -44.598  60.975 -55.211  1.00  0.00     0.170 HD
ENDROOT
BRANCH   8  16
HETATM   16  C   UNL     1     -41.644  56.363 -54.216  1.00  0.00    -0.039 A 
HETATM   17  C   UNL     1     -41.049  55.221 -54.797  1.00  0.00     0.021 A 
HETATM   18  C   UNL     1     -40.681  54.099 -54.034  1.00  0.00    -0.025 A 
HETATM   19  C   UNL     1     -40.940  54.095 -52.648  1.00  0.00    -0.026 A 
HETATM   20  C   UNL     1     -40.050  52.989 -54.620  1.00  0.00     0.012 A 
HETATM   21  C   UNL     1     -41.556  55.211 -52.068  1.00  0.00     0.013 A 
HETATM   22  C   UNL     1     -40.564  52.979 -51.882  1.00  0.00     0.012 A 
HETATM   23  C   UNL     1     -41.897  56.330 -52.838  1.00  0.00     0.009 A 
HETATM   24  C   UNL     1     -39.934  51.885 -52.476  1.00  0.00     0.001 A 
HETATM   25  C   UNL     1     -39.676  51.890 -53.844  1.00  0.00     0.001 A 
ENDBRANCH   8  16
TORSDOF 1
ENDMDL
MODEL 9
REMARK VINA RESULT:      -7.1      5.073      6.501
REMARK  1 active torsions:
REMARK  status: ('A' for Active; 'I' for Inactive)
REMARK    1  A    between atoms: C_8  and  C_9 
ROOT
HETATM    1  C   UNL     1     -45.376  59.088 -56.289  1.00  0.00     0.073 C 
HETATM    2  C   UNL     1     -45.836  58.219 -57.408  1.00  0.00     0.062 A 
HETATM    3  N   UNL     1     -47.145  58.128 -57.651  1.00  0.00    -0.178 NA
HETATM    4  N   UNL     1     -47.215  57.371 -58.745  1.00  0.00    -0.262 N 
HETATM    5  H   UNL     1     -48.131  57.190 -59.135  1.00  0.00     0.191 HD
HETATM    6  C   UNL     1     -46.005  56.919 -59.201  1.00  0.00     0.134 A 
HETATM    7  C   UNL     1     -45.051  57.441 -58.339  1.00  0.00     0.032 A 
HETATM    8  C   UNL     1     -43.554  57.432 -58.391  1.00  0.00     0.119 C 
HETATM    9  S   UNL     1     -42.705  56.605 -59.751  1.00  0.00    -0.141 SA
HETATM   10  C   UNL     1     -43.700  55.124 -60.078  1.00  0.00     0.136 C 
HETATM   11  C   UNL     1     -43.983  54.182 -58.919  1.00  0.00     0.031 C 
HETATM   12  C   UNL     1     -44.952  55.441 -60.873  1.00  0.00     0.236 C 
HETATM   13  O   UNL     1     -45.125  54.951 -61.995  1.00  0.00    -0.272 OA
HETATM   14  N   UNL     1     -45.981  56.159 -60.345  1.00  0.00    -0.311 N 
HETATM   15  H   UNL     1     -46.806  56.129 -60.934  1.00  0.00     0.170 HD
ENDROOT
BRANCH   8  16
HETATM   16  C   UNL     1     -42.963  57.097 -57.025  1.00  0.00    -0.039 A 
HETATM   17  C   UNL     1     -43.015  55.753 -56.592  1.00  0.00     0.021 A 
HETATM   18  C   UNL     1     -42.449  55.337 -55.375  1.00  0.00    -0.025 A 
HETATM   19  C   UNL     1     -41.836  56.293 -54.539  1.00  0.00    -0.026 A 
HETATM   20  C   UNL     1     -42.470  53.989 -54.978  1.00  0.00     0.012 A 
HETATM   21  C   UNL     1     -41.805  57.633 -54.946  1.00  0.00     0.013 A 
HETATM   22  C   UNL     1     -41.262  55.878 -53.326  1.00  0.00     0.012 A 
HETATM   23  C   UNL     1     -42.354  58.027 -56.172  1.00  0.00     0.009 A 
HETATM   24  C   UNL     1     -41.286  54.535 -52.947  1.00  0.00     0.001 A 
HETATM   25  C   UNL     1     -41.888  53.591 -53.773  1.00  0.00     0.001 A 
ENDBRANCH   8  16
TORSDOF 1
ENDMDL
MODEL 10
REMARK VINA RESULT:      -7.0      2.844      5.063
REMARK  1 active torsions:
REMARK  status: ('A' for Active; 'I' for Inactive)
REMARK    1  A    between atoms: C_8  and  C_9 
ROOT
HETATM    1  C   UNL     1     -43.295  54.469 -53.804  1.00  0.00     0.073 C 
HETATM    2  C   UNL     1     -43.012  55.274 -52.582  1.00  0.00     0.062 A 
HETATM    3  N   UNL     1     -43.387  54.790 -51.396  1.00  0.00    -0.178 NA
HETATM    4  N   UNL     1     -42.915  55.680 -50.525  1.00  0.00    -0.262 N 
HETATM    5  H   UNL     1     -43.060  55.498 -49.540  1.00  0.00     0.191 HD
HETATM    6  C   UNL     1     -42.290  56.757 -51.095  1.00  0.00     0.134 A 
HETATM    7  C   UNL     1     -42.339  56.547 -52.466  1.00  0.00     0.032 A 
HETATM    8  C   UNL     1     -41.705  57.282 -53.607  1.00  0.00     0.119 C 
HETATM    9  S   UNL     1     -40.692  58.740 -53.287  1.00  0.00    -0.141 SA
HETATM   10  C   UNL     1     -41.535  59.593 -51.926  1.00  0.00     0.136 C 
HETATM   11  C   UNL     1     -43.004  59.941 -52.100  1.00  0.00     0.031 C 
HETATM   12  C   UNL     1     -41.259  58.940 -50.585  1.00  0.00     0.236 C 
HETATM   13  O   UNL     1     -40.680  59.565 -49.689  1.00  0.00    -0.272 OA
HETATM   14  N   UNL     1     -41.743  57.707 -50.268  1.00  0.00    -0.311 N 
HETATM   15  H   UNL     1     -41.624  57.495 -49.284  1.00  0.00     0.170 HD
ENDROOT
BRANCH   8  16
HETATM   16  C   UNL     1     -42.701  57.485 -54.745  1.00  0.00    -0.039 A 
HETATM   17  C   UNL     1     -42.363  56.977 -56.020  1.00  0.00     0.021 A 
HETATM   18  C   UNL     1     -43.238  57.067 -57.116  1.00  0.00    -0.025 A 
HETATM   19  C   UNL     1     -44.481  57.712 -56.954  1.00  0.00    -0.026 A 
HETATM   20  C   UNL     1     -42.906  56.519 -58.367  1.00  0.00     0.012 A 
HETATM   21  C   UNL     1     -44.812  58.244 -55.701  1.00  0.00     0.013 A 
HETATM   22  C   UNL     1     -45.361  57.795 -58.045  1.00  0.00     0.012 A 
HETATM   23  C   UNL     1     -43.939  58.127 -54.613  1.00  0.00     0.009 A 
HETATM   24  C   UNL     1     -45.019  57.241 -59.281  1.00  0.00     0.001 A 
HETATM   25  C   UNL     1     -43.794  56.603 -59.441  1.00  0.00     0.001 A 
ENDBRANCH   8  16
TORSDOF 1
ENDMDL
