MODEL 1
REMARK VINA RESULT:      -8.9      0.000      0.000
REMARK  7 active torsions:
REMARK  status: ('A' for Active; 'I' for Inactive)
REMARK    1  A    between atoms: C_7  and  C_8 
REMARK    2  A    between atoms: C_8  and  C_9 
REMARK    3  A    between atoms: C_9  and  N_10 
REMARK    4  A    between atoms: N_10  and  C_11 
REMARK    5  A    between atoms: C_11  and  N_12 
REMARK    6  A    between atoms: N_12  and  C_13 
REMARK    7  A    between atoms: C_30  and  C_31 
ROOT
HETATM    1  C   UNL     1     -43.203  57.294 -56.090  1.00  0.00     0.123 C 
HETATM    2  C   UNL     1     -44.094  57.350 -57.129  1.00  0.00     0.144 C 
HETATM    3  C   UNL     1     -45.374  58.094 -57.003  1.00  0.00     0.270 C 
HETATM    4  O   UNL     1     -45.808  58.473 -55.914  1.00  0.00    -0.267 OA
HETATM    5  N   UNL     1     -46.058  58.313 -58.184  1.00  0.00    -0.270 N 
HETATM    6  C   UNL     1     -47.221  59.182 -58.132  1.00  0.00     0.164 C 
HETATM    7  C   UNL     1     -45.877  57.579 -59.343  1.00  0.00     0.333 C 
HETATM    8  O   UNL     1     -46.630  57.706 -60.311  1.00  0.00    -0.246 OA
HETATM    9  N   UNL     1     -44.812  56.696 -59.361  1.00  0.00    -0.270 N 
HETATM   10  C   UNL     1     -44.591  55.944 -60.584  1.00  0.00     0.164 C 
HETATM   11  C   UNL     1     -43.801  56.669 -58.418  1.00  0.00     0.270 C 
HETATM   12  O   UNL     1     -42.709  56.144 -58.644  1.00  0.00    -0.267 OA
ENDROOT
BRANCH   1  13
HETATM   13  N   UNL     1     -43.422  58.013 -54.909  1.00  0.00    -0.375 N 
HETATM   14  H   UNL     1     -44.326  58.496 -54.888  1.00  0.00     0.161 HD
BRANCH  13  15
HETATM   15  C   UNL     1     -42.359  58.710 -54.182  1.00  0.00     0.126 C 
BRANCH  15  16
HETATM   16  C   UNL     1     -42.703  58.899 -52.697  1.00  0.00     0.061 C 
BRANCH  16  17
HETATM   17  C   UNL     1     -41.990  57.938 -51.786  1.00  0.00    -0.022 A 
HETATM   18  C   UNL     1     -40.872  58.212 -51.013  1.00  0.00     0.013 A 
HETATM   19  C   UNL     1     -40.078  59.459 -50.856  1.00  0.00     0.068 C 
HETATM   20  N   UNL     1     -40.546  57.069 -50.328  1.00  0.00    -0.358 N 
HETATM   21  H   UNL     1     -39.768  56.980 -49.685  1.00  0.00     0.166 HD
HETATM   22  C   UNL     1     -41.408  56.044 -50.649  1.00  0.00     0.058 A 
HETATM   23  C   UNL     1     -42.318  56.558 -51.572  1.00  0.00    -0.000 A 
HETATM   24  C   UNL     1     -41.438  54.709 -50.192  1.00  0.00     0.075 A 
HETATM   25  C   UNL     1     -43.312  55.700 -52.083  1.00  0.00     0.014 A 
HETATM   26  C   UNL     1     -43.372  54.372 -51.653  1.00  0.00     0.002 A 
HETATM   27  C   UNL     1     -42.455  53.890 -50.723  1.00  0.00     0.018 A 
BRANCH  24  28
HETATM   28  C   UNL     1     -40.475  54.142 -49.180  1.00  0.00     0.419 C 
HETATM   29  F   UNL     1     -40.637  54.661 -47.928  1.00  0.00    -0.166 F 
HETATM   30  F   UNL     1     -40.601  52.793 -49.039  1.00  0.00    -0.166 F 
HETATM   31  F   UNL     1     -39.171  54.363 -49.507  1.00  0.00    -0.166 F 
ENDBRANCH  24  28
ENDBRANCH  16  17
ENDBRANCH  15  16
ENDBRANCH  13  15
ENDBRANCH   1  13
BRANCH   1  32
HETATM   32  N   UNL     1     -42.012  56.565 -56.193  1.00  0.00    -0.342 N 
HETATM   33  H   UNL     1     -41.744  56.393 -57.171  1.00  0.00     0.167 HD
BRANCH  32  34
HETATM   34  C   UNL     1     -41.691  55.402 -55.442  1.00  0.00     0.033 A 
HETATM   35  C   UNL     1     -40.525  55.261 -54.681  1.00  0.00     0.029 A 
HETATM   36  C   UNL     1     -40.256  54.075 -53.990  1.00  0.00     0.002 A 
HETATM   37  C   UNL     1     -41.146  53.007 -54.060  1.00  0.00     0.000 A 
HETATM   38  C   UNL     1     -42.303  53.121 -54.825  1.00  0.00     0.002 A 
HETATM   39  C   UNL     1     -42.569  54.308 -55.515  1.00  0.00     0.029 A 
ENDBRANCH  32  34
ENDBRANCH   1  32
TORSDOF 7
ENDMDL
MODEL 2
REMARK VINA RESULT:      -8.7      2.563      4.645
REMARK  7 active torsions:
REMARK  status: ('A' for Active; 'I' for Inactive)
REMARK    1  A    between atoms: C_7  and  C_8 
REMARK    2  A    between atoms: C_8  and  C_9 
REMARK    3  A    between atoms: C_9  and  N_10 
REMARK    4  A    between atoms: N_10  and  C_11 
REMARK    5  A    between atoms: C_11  and  N_12 
REMARK    6  A    between atoms: N_12  and  C_13 
REMARK    7  A    between atoms: C_30  and  C_31 
ROOT
HETATM    1  C   UNL     1     -42.861  57.960 -54.462  1.00  0.00     0.123 C 
HETATM    2  C   UNL     1     -42.579  58.126 -55.792  1.00  0.00     0.144 C 
HETATM    3  C   UNL     1     -42.630  56.980 -56.737  1.00  0.00     0.270 C 
HETATM    4  O   UNL     1     -42.679  55.812 -56.350  1.00  0.00    -0.267 OA
HETATM    5  N   UNL     1     -42.598  57.310 -58.080  1.00  0.00    -0.270 N 
HETATM    6  C   UNL     1     -42.822  56.240 -59.036  1.00  0.00     0.164 C 
HETATM    7  C   UNL     1     -42.125  58.509 -58.582  1.00  0.00     0.333 C 
HETATM    8  O   UNL     1     -41.964  58.682 -59.792  1.00  0.00    -0.246 OA
HETATM    9  N   UNL     1     -41.842  59.502 -57.661  1.00  0.00    -0.270 N 
HETATM   10  C   UNL     1     -41.376  60.777 -58.178  1.00  0.00     0.164 C 
HETATM   11  C   UNL     1     -42.214  59.464 -56.330  1.00  0.00     0.270 C 
HETATM   12  O   UNL     1     -42.275  60.483 -55.637  1.00  0.00    -0.267 OA
ENDROOT
BRANCH   1  13
HETATM   13  N   UNL     1     -43.302  56.728 -53.965  1.00  0.00    -0.375 N 
HETATM   14  H   UNL     1     -44.317  56.598 -54.040  1.00  0.00     0.161 HD
BRANCH  13  15
HETATM   15  C   UNL     1     -42.702  56.067 -52.804  1.00  0.00     0.126 C 
BRANCH  15  16
HETATM   16  C   UNL     1     -41.267  55.598 -53.084  1.00  0.00     0.061 C 
BRANCH  16  17
HETATM   17  C   UNL     1     -40.878  54.361 -52.322  1.00  0.00    -0.022 A 
HETATM   18  C   UNL     1     -40.730  54.254 -50.947  1.00  0.00     0.013 A 
HETATM   19  C   UNL     1     -40.895  55.262 -49.868  1.00  0.00     0.068 C 
HETATM   20  N   UNL     1     -40.375  52.959 -50.664  1.00  0.00    -0.358 N 
HETATM   21  H   UNL     1     -40.201  52.596 -49.734  1.00  0.00     0.166 HD
HETATM   22  C   UNL     1     -40.264  52.218 -51.819  1.00  0.00     0.058 A 
HETATM   23  C   UNL     1     -40.563  53.076 -52.877  1.00  0.00    -0.000 A 
HETATM   24  C   UNL     1     -39.916  50.862 -51.995  1.00  0.00     0.075 A 
HETATM   25  C   UNL     1     -40.505  52.567 -54.189  1.00  0.00     0.014 A 
HETATM   26  C   UNL     1     -40.165  51.229 -54.402  1.00  0.00     0.002 A 
HETATM   27  C   UNL     1     -39.881  50.394 -53.325  1.00  0.00     0.018 A 
BRANCH  24  28
HETATM   28  C   UNL     1     -39.610  49.915 -50.863  1.00  0.00     0.419 C 
HETATM   29  F   UNL     1     -40.014  50.381 -49.645  1.00  0.00    -0.166 F 
HETATM   30  F   UNL     1     -40.217  48.706 -51.015  1.00  0.00    -0.166 F 
HETATM   31  F   UNL     1     -38.279  49.653 -50.737  1.00  0.00    -0.166 F 
ENDBRANCH  24  28
ENDBRANCH  16  17
ENDBRANCH  15  16
ENDBRANCH  13  15
ENDBRANCH   1  13
BRANCH   1  32
HETATM   32  N   UNL     1     -42.779  59.030 -53.563  1.00  0.00    -0.342 N 
HETATM   33  H   UNL     1     -42.915  59.938 -54.024  1.00  0.00     0.167 HD
BRANCH  32  34
HETATM   34  C   UNL     1     -41.778  59.192 -52.567  1.00  0.00     0.033 A 
HETATM   35  C   UNL     1     -40.413  58.979 -52.790  1.00  0.00     0.029 A 
HETATM   36  C   UNL     1     -39.483  59.128 -51.755  1.00  0.00     0.002 A 
HETATM   37  C   UNL     1     -39.910  59.479 -50.477  1.00  0.00     0.000 A 
HETATM   38  C   UNL     1     -41.265  59.678 -50.231  1.00  0.00     0.002 A 
HETATM   39  C   UNL     1     -42.191  59.529 -51.268  1.00  0.00     0.029 A 
ENDBRANCH  32  34
ENDBRANCH   1  32
TORSDOF 7
ENDMDL
MODEL 3
REMARK VINA RESULT:      -8.5      1.869      2.418
REMARK  7 active torsions:
REMARK  status: ('A' for Active; 'I' for Inactive)
REMARK    1  A    between atoms: C_7  and  C_8 
REMARK    2  A    between atoms: C_8  and  C_9 
REMARK    3  A    between atoms: C_9  and  N_10 
REMARK    4  A    between atoms: N_10  and  C_11 
REMARK    5  A    between atoms: C_11  and  N_12 
REMARK    6  A    between atoms: N_12  and  C_13 
REMARK    7  A    between atoms: C_30  and  C_31 
ROOT
HETATM    1  C   UNL     1     -42.878  57.804 -55.283  1.00  0.00     0.123 C 
HETATM    2  C   UNL     1     -42.648  58.339 -56.522  1.00  0.00     0.144 C 
HETATM    3  C   UNL     1     -42.236  59.758 -56.682  1.00  0.00     0.270 C 
HETATM    4  O   UNL     1     -42.323  60.573 -55.763  1.00  0.00    -0.267 OA
HETATM    5  N   UNL     1     -41.770  60.108 -57.936  1.00  0.00    -0.270 N 
HETATM    6  C   UNL     1     -41.195  61.433 -58.088  1.00  0.00     0.164 C 
HETATM    7  C   UNL     1     -42.034  59.403 -59.097  1.00  0.00     0.333 C 
HETATM    8  O   UNL     1     -41.736  59.853 -60.205  1.00  0.00    -0.246 OA
HETATM    9  N   UNL     1     -42.650  58.174 -58.951  1.00  0.00    -0.270 N 
HETATM   10  C   UNL     1     -42.903  57.408 -60.160  1.00  0.00     0.164 C 
HETATM   11  C   UNL     1     -42.800  57.510 -57.748  1.00  0.00     0.270 C 
HETATM   12  O   UNL     1     -43.012  56.296 -57.691  1.00  0.00    -0.267 OA
ENDROOT
BRANCH   1  13
HETATM   13  N   UNL     1     -42.641  58.546 -54.120  1.00  0.00    -0.375 N 
HETATM   14  H   UNL     1     -41.708  58.394 -53.723  1.00  0.00     0.161 HD
BRANCH  13  15
HETATM   15  C   UNL     1     -43.673  58.827 -53.120  1.00  0.00     0.126 C 
BRANCH  15  16
HETATM   16  C   UNL     1     -43.083  59.002 -51.713  1.00  0.00     0.061 C 
BRANCH  16  17
HETATM   17  C   UNL     1     -42.162  57.885 -51.304  1.00  0.00    -0.022 A 
HETATM   18  C   UNL     1     -40.817  58.002 -50.988  1.00  0.00     0.013 A 
HETATM   19  C   UNL     1     -39.922  59.188 -50.960  1.00  0.00     0.068 C 
HETATM   20  N   UNL     1     -40.353  56.752 -50.663  1.00  0.00    -0.358 N 
HETATM   21  H   UNL     1     -39.401  56.540 -50.390  1.00  0.00     0.166 HD
HETATM   22  C   UNL     1     -41.354  55.813 -50.780  1.00  0.00     0.058 A 
HETATM   23  C   UNL     1     -42.498  56.495 -51.192  1.00  0.00    -0.000 A 
HETATM   24  C   UNL     1     -41.320  54.420 -50.556  1.00  0.00     0.075 A 
HETATM   25  C   UNL     1     -43.678  55.756 -51.406  1.00  0.00     0.014 A 
HETATM   26  C   UNL     1     -43.682  54.375 -51.194  1.00  0.00     0.002 A 
HETATM   27  C   UNL     1     -42.526  53.723 -50.773  1.00  0.00     0.018 A 
BRANCH  24  28
HETATM   28  C   UNL     1     -40.098  53.670 -50.092  1.00  0.00     0.419 C 
HETATM   29  F   UNL     1     -40.371  52.403 -49.662  1.00  0.00    -0.166 F 
HETATM   30  F   UNL     1     -39.165  53.532 -51.074  1.00  0.00    -0.166 F 
HETATM   31  F   UNL     1     -39.461  54.283 -49.055  1.00  0.00    -0.166 F 
ENDBRANCH  24  28
ENDBRANCH  16  17
ENDBRANCH  15  16
ENDBRANCH  13  15
ENDBRANCH   1  13
BRANCH   1  32
HETATM   32  N   UNL     1     -43.300  56.478 -55.131  1.00  0.00    -0.342 N 
HETATM   33  H   UNL     1     -44.148  56.402 -54.555  1.00  0.00     0.167 HD
BRANCH  32  34
HETATM   34  C   UNL     1     -42.458  55.377 -54.815  1.00  0.00     0.033 A 
HETATM   35  C   UNL     1     -42.901  54.052 -54.735  1.00  0.00     0.029 A 
HETATM   36  C   UNL     1     -42.024  53.019 -54.388  1.00  0.00     0.002 A 
HETATM   37  C   UNL     1     -40.691  53.301 -54.103  1.00  0.00     0.000 A 
HETATM   38  C   UNL     1     -40.235  54.614 -54.159  1.00  0.00     0.002 A 
HETATM   39  C   UNL     1     -41.114  55.644 -54.507  1.00  0.00     0.029 A 
ENDBRANCH  32  34
ENDBRANCH   1  32
TORSDOF 7
ENDMDL
MODEL 4
REMARK VINA RESULT:      -8.4      2.758      5.270
REMARK  7 active torsions:
REMARK  status: ('A' for Active; 'I' for Inactive)
REMARK    1  A    between atoms: C_7  and  C_8 
REMARK    2  A    between atoms: C_8  and  C_9 
REMARK    3  A    between atoms: C_9  and  N_10 
REMARK    4  A    between atoms: N_10  and  C_11 
REMARK    5  A    between atoms: C_11  and  N_12 
REMARK    6  A    between atoms: N_12  and  C_13 
REMARK    7  A    between atoms: C_30  and  C_31 
ROOT
HETATM    1  C   UNL     1     -42.851  57.652 -53.284  1.00  0.00     0.123 C 
HETATM    2  C   UNL     1     -42.687  57.705 -54.643  1.00  0.00     0.144 C 
HETATM    3  C   UNL     1     -42.801  56.481 -55.478  1.00  0.00     0.270 C 
HETATM    4  O   UNL     1     -42.796  55.350 -54.990  1.00  0.00    -0.267 OA
HETATM    5  N   UNL     1     -42.891  56.693 -56.842  1.00  0.00    -0.270 N 
HETATM    6  C   UNL     1     -43.178  55.542 -57.679  1.00  0.00     0.164 C 
HETATM    7  C   UNL     1     -42.484  57.848 -57.485  1.00  0.00     0.333 C 
HETATM    8  O   UNL     1     -42.430  57.917 -58.714  1.00  0.00    -0.246 OA
HETATM    9  N   UNL     1     -42.138  58.920 -56.680  1.00  0.00    -0.270 N 
HETATM   10  C   UNL     1     -41.741  60.150 -57.343  1.00  0.00     0.164 C 
HETATM   11  C   UNL     1     -42.393  58.994 -55.323  1.00  0.00     0.270 C 
HETATM   12  O   UNL     1     -42.411  60.069 -54.718  1.00  0.00    -0.267 OA
ENDROOT
BRANCH   1  13
HETATM   13  N   UNL     1     -43.226  56.464 -52.646  1.00  0.00    -0.375 N 
HETATM   14  H   UNL     1     -44.199  56.195 -52.826  1.00  0.00     0.161 HD
BRANCH  13  15
HETATM   15  C   UNL     1     -42.734  56.069 -51.324  1.00  0.00     0.126 C 
BRANCH  15  16
HETATM   16  C   UNL     1     -41.214  55.858 -51.313  1.00  0.00     0.061 C 
BRANCH  16  17
HETATM   17  C   UNL     1     -40.807  54.422 -51.122  1.00  0.00    -0.022 A 
HETATM   18  C   UNL     1     -40.622  53.772 -49.911  1.00  0.00     0.013 A 
HETATM   19  C   UNL     1     -40.757  54.260 -48.514  1.00  0.00     0.068 C 
HETATM   20  N   UNL     1     -40.263  52.477 -50.182  1.00  0.00    -0.358 N 
HETATM   21  H   UNL     1     -40.064  51.772 -49.482  1.00  0.00     0.166 HD
HETATM   22  C   UNL     1     -40.184  52.264 -51.541  1.00  0.00     0.058 A 
HETATM   23  C   UNL     1     -40.509  53.472 -52.156  1.00  0.00    -0.000 A 
HETATM   24  C   UNL     1     -39.844  51.096 -52.256  1.00  0.00     0.075 A 
HETATM   25  C   UNL     1     -40.488  53.535 -53.563  1.00  0.00     0.014 A 
HETATM   26  C   UNL     1     -40.156  52.399 -54.304  1.00  0.00     0.002 A 
HETATM   27  C   UNL     1     -39.845  51.203 -53.662  1.00  0.00     0.018 A 
BRANCH  24  28
HETATM   28  C   UNL     1     -39.509  49.777 -51.609  1.00  0.00     0.419 C 
HETATM   29  F   UNL     1     -38.402  49.832 -50.811  1.00  0.00    -0.166 F 
HETATM   30  F   UNL     1     -40.513  49.316 -50.814  1.00  0.00    -0.166 F 
HETATM   31  F   UNL     1     -39.264  48.789 -52.514  1.00  0.00    -0.166 F 
ENDBRANCH  24  28
ENDBRANCH  16  17
ENDBRANCH  15  16
ENDBRANCH  13  15
ENDBRANCH   1  13
BRANCH   1  32
HETATM   32  N   UNL     1     -42.709  58.796 -52.491  1.00  0.00    -0.342 N 
HETATM   33  H   UNL     1     -41.880  58.751 -51.885  1.00  0.00     0.167 HD
BRANCH  32  34
HETATM   34  C   UNL     1     -43.752  59.422 -51.755  1.00  0.00     0.033 A 
HETATM   35  C   UNL     1     -45.107  59.340 -52.097  1.00  0.00     0.029 A 
HETATM   36  C   UNL     1     -46.080  60.007 -51.346  1.00  0.00     0.002 A 
HETATM   37  C   UNL     1     -45.709  60.778 -50.248  1.00  0.00     0.000 A 
HETATM   38  C   UNL     1     -44.366  60.886 -49.902  1.00  0.00     0.002 A 
HETATM   39  C   UNL     1     -43.395  60.218 -50.654  1.00  0.00     0.029 A 
ENDBRANCH  32  34
ENDBRANCH   1  32
TORSDOF 7
ENDMDL
MODEL 5
REMARK VINA RESULT:      -8.3      1.998      4.671
REMARK  7 active torsions:
REMARK  status: ('A' for Active; 'I' for Inactive)
REMARK    1  A    between atoms: C_7  and  C_8 
REMARK    2  A    between atoms: C_8  and  C_9 
REMARK    3  A    between atoms: C_9  and  N_10 
REMARK    4  A    between atoms: N_10  and  C_11 
REMARK    5  A    between atoms: C_11  and  N_12 
REMARK    6  A    between atoms: N_12  and  C_13 
REMARK    7  A    between atoms: C_30  and  C_31 
ROOT
HETATM    1  C   UNL     1     -43.380  56.872 -56.387  1.00  0.00     0.123 C 
HETATM    2  C   UNL     1     -43.345  58.146 -55.887  1.00  0.00     0.144 C 
HETATM    3  C   UNL     1     -43.745  58.431 -54.484  1.00  0.00     0.270 C 
HETATM    4  O   UNL     1     -44.351  57.609 -53.795  1.00  0.00    -0.267 OA
HETATM    5  N   UNL     1     -43.413  59.687 -54.010  1.00  0.00    -0.270 N 
HETATM    6  C   UNL     1     -43.627  59.946 -52.597  1.00  0.00     0.164 C 
HETATM    7  C   UNL     1     -43.136  60.780 -54.811  1.00  0.00     0.333 C 
HETATM    8  O   UNL     1     -43.012  61.911 -54.338  1.00  0.00    -0.246 OA
HETATM    9  N   UNL     1     -43.007  60.541 -56.168  1.00  0.00    -0.270 N 
HETATM   10  C   UNL     1     -42.684  61.675 -57.017  1.00  0.00     0.164 C 
HETATM   11  C   UNL     1     -42.901  59.284 -56.735  1.00  0.00     0.270 C 
HETATM   12  O   UNL     1     -42.434  59.112 -57.863  1.00  0.00    -0.267 OA
ENDROOT
BRANCH   1  13
HETATM   13  N   UNL     1     -43.700  55.782 -55.570  1.00  0.00    -0.375 N 
HETATM   14  H   UNL     1     -44.023  56.054 -54.636  1.00  0.00     0.161 HD
BRANCH  13  15
HETATM   15  C   UNL     1     -42.972  54.511 -55.601  1.00  0.00     0.126 C 
BRANCH  15  16
HETATM   16  C   UNL     1     -41.481  54.692 -55.282  1.00  0.00     0.061 C 
BRANCH  16  17
HETATM   17  C   UNL     1     -41.115  54.309 -53.874  1.00  0.00    -0.022 A 
HETATM   18  C   UNL     1     -40.641  53.076 -53.453  1.00  0.00     0.013 A 
HETATM   19  C   UNL     1     -40.367  51.826 -54.210  1.00  0.00     0.068 C 
HETATM   20  N   UNL     1     -40.426  53.150 -52.100  1.00  0.00    -0.358 N 
HETATM   21  H   UNL     1     -40.079  52.391 -51.526  1.00  0.00     0.166 HD
HETATM   22  C   UNL     1     -40.768  54.394 -51.617  1.00  0.00     0.058 A 
HETATM   23  C   UNL     1     -41.215  55.139 -52.708  1.00  0.00    -0.000 A 
HETATM   24  C   UNL     1     -40.717  54.900 -50.301  1.00  0.00     0.075 A 
HETATM   25  C   UNL     1     -41.648  56.461 -52.484  1.00  0.00     0.014 A 
HETATM   26  C   UNL     1     -41.611  56.995 -51.195  1.00  0.00     0.002 A 
HETATM   27  C   UNL     1     -41.150  56.230 -50.127  1.00  0.00     0.018 A 
BRANCH  24  28
HETATM   28  C   UNL     1     -40.218  54.116 -49.114  1.00  0.00     0.419 C 
HETATM   29  F   UNL     1     -40.694  54.580 -47.921  1.00  0.00    -0.166 F 
HETATM   30  F   UNL     1     -40.576  52.803 -49.168  1.00  0.00    -0.166 F 
HETATM   31  F   UNL     1     -38.861  54.129 -49.002  1.00  0.00    -0.166 F 
ENDBRANCH  24  28
ENDBRANCH  16  17
ENDBRANCH  15  16
ENDBRANCH  13  15
ENDBRANCH   1  13
BRANCH   1  32
HETATM   32  N   UNL     1     -43.038  56.606 -57.718  1.00  0.00    -0.342 N 
HETATM   33  H   UNL     1     -42.393  57.308 -58.104  1.00  0.00     0.167 HD
BRANCH  32  34
HETATM   34  C   UNL     1     -43.950  56.242 -58.746  1.00  0.00     0.033 A 
HETATM   35  C   UNL     1     -43.756  55.165 -59.618  1.00  0.00     0.029 A 
HETATM   36  C   UNL     1     -44.680  54.881 -60.629  1.00  0.00     0.002 A 
HETATM   37  C   UNL     1     -45.808  55.681 -60.789  1.00  0.00     0.000 A 
HETATM   38  C   UNL     1     -46.011  56.767 -59.943  1.00  0.00     0.002 A 
HETATM   39  C   UNL     1     -45.085  57.048 -58.934  1.00  0.00     0.029 A 
ENDBRANCH  32  34
ENDBRANCH   1  32
TORSDOF 7
ENDMDL
MODEL 6
REMARK VINA RESULT:      -8.3      2.577      4.647
REMARK  7 active torsions:
REMARK  status: ('A' for Active; 'I' for Inactive)
REMARK    1  A    between atoms: C_7  and  C_8 
REMARK    2  A    between atoms: C_8  and  C_9 
REMARK    3  A    between atoms: C_9  and  N_10 
REMARK    4  A    between atoms: N_10  and  C_11 
REMARK    5  A    between atoms: C_11  and  N_12 
REMARK    6  A    between atoms: N_12  and  C_13 
REMARK    7  A    between atoms: C_30  and  C_31 
ROOT
HETATM    1  C   UNL     1     -42.633  57.221 -55.408  1.00  0.00     0.123 C 
HETATM    2  C   UNL     1     -42.706  57.005 -56.758  1.00  0.00     0.144 C 
HETATM    3  C   UNL     1     -43.112  55.684 -57.303  1.00  0.00     0.270 C 
HETATM    4  O   UNL     1     -43.157  54.672 -56.604  1.00  0.00    -0.267 OA
HETATM    5  N   UNL     1     -43.414  55.660 -58.652  1.00  0.00    -0.270 N 
HETATM    6  C   UNL     1     -43.981  54.436 -59.189  1.00  0.00     0.164 C 
HETATM    7  C   UNL     1     -42.990  56.607 -59.568  1.00  0.00     0.333 C 
HETATM    8  O   UNL     1     -43.146  56.446 -60.780  1.00  0.00    -0.246 OA
HETATM    9  N   UNL     1     -42.382  57.739 -59.056  1.00  0.00    -0.270 N 
HETATM   10  C   UNL     1     -41.961  58.756 -60.005  1.00  0.00     0.164 C 
HETATM   11  C   UNL     1     -42.382  58.092 -57.720  1.00  0.00     0.270 C 
HETATM   12  O   UNL     1     -42.164  59.248 -57.348  1.00  0.00    -0.267 OA
ENDROOT
BRANCH   1  13
HETATM   13  N   UNL     1     -43.031  56.237 -54.495  1.00  0.00    -0.375 N 
HETATM   14  H   UNL     1     -44.043  56.074 -54.488  1.00  0.00     0.161 HD
BRANCH  13  15
HETATM   15  C   UNL     1     -42.387  56.037 -53.195  1.00  0.00     0.126 C 
BRANCH  15  16
HETATM   16  C   UNL     1     -40.945  55.529 -53.336  1.00  0.00     0.061 C 
BRANCH  16  17
HETATM   17  C   UNL     1     -40.653  54.306 -52.510  1.00  0.00    -0.022 A 
HETATM   18  C   UNL     1     -40.537  54.254 -51.129  1.00  0.00     0.013 A 
HETATM   19  C   UNL     1     -40.652  55.321 -50.101  1.00  0.00     0.068 C 
HETATM   20  N   UNL     1     -40.275  52.954 -50.780  1.00  0.00    -0.358 N 
HETATM   21  H   UNL     1     -40.142  52.624 -49.831  1.00  0.00     0.166 HD
HETATM   22  C   UNL     1     -40.194  52.153 -51.898  1.00  0.00     0.058 A 
HETATM   23  C   UNL     1     -40.416  52.978 -53.000  1.00  0.00    -0.000 A 
HETATM   24  C   UNL     1     -39.936  50.770 -52.004  1.00  0.00     0.075 A 
HETATM   25  C   UNL     1     -40.370  52.406 -54.286  1.00  0.00     0.014 A 
HETATM   26  C   UNL     1     -40.118  51.039 -54.429  1.00  0.00     0.002 A 
HETATM   27  C   UNL     1     -39.910  50.239 -53.310  1.00  0.00     0.018 A 
BRANCH  24  28
HETATM   28  C   UNL     1     -39.714  49.859 -50.824  1.00  0.00     0.419 C 
HETATM   29  F   UNL     1     -40.240  50.344 -49.661  1.00  0.00    -0.166 F 
HETATM   30  F   UNL     1     -40.275  48.632 -50.999  1.00  0.00    -0.166 F 
HETATM   31  F   UNL     1     -38.395  49.635 -50.569  1.00  0.00    -0.166 F 
ENDBRANCH  24  28
ENDBRANCH  16  17
ENDBRANCH  15  16
ENDBRANCH  13  15
ENDBRANCH   1  13
BRANCH   1  32
HETATM   32  N   UNL     1     -42.216  58.454 -54.891  1.00  0.00    -0.342 N 
HETATM   33  H   UNL     1     -41.298  58.395 -54.433  1.00  0.00     0.167 HD
BRANCH  32  34
HETATM   34  C   UNL     1     -43.025  59.344 -54.133  1.00  0.00     0.033 A 
HETATM   35  C   UNL     1     -44.412  59.459 -54.283  1.00  0.00     0.029 A 
HETATM   36  C   UNL     1     -45.143  60.379 -53.524  1.00  0.00     0.002 A 
HETATM   37  C   UNL     1     -44.494  61.207 -52.613  1.00  0.00     0.000 A 
HETATM   38  C   UNL     1     -43.114  61.120 -52.461  1.00  0.00     0.002 A 
HETATM   39  C   UNL     1     -42.385  60.199 -53.221  1.00  0.00     0.029 A 
ENDBRANCH  32  34
ENDBRANCH   1  32
TORSDOF 7
ENDMDL
MODEL 7
REMARK VINA RESULT:      -8.1      1.694      3.888
REMARK  7 active torsions:
REMARK  status: ('A' for Active; 'I' for Inactive)
REMARK    1  A    between atoms: C_7  and  C_8 
REMARK    2  A    between atoms: C_8  and  C_9 
REMARK    3  A    between atoms: C_9  and  N_10 
REMARK    4  A    between atoms: N_10  and  C_11 
REMARK    5  A    between atoms: C_11  and  N_12 
REMARK    6  A    between atoms: N_12  and  C_13 
REMARK    7  A    between atoms: C_30  and  C_31 
ROOT
HETATM    1  C   UNL     1     -42.753  56.944 -56.281  1.00  0.00     0.123 C 
HETATM    2  C   UNL     1     -43.227  57.487 -57.445  1.00  0.00     0.144 C 
HETATM    3  C   UNL     1     -43.827  56.633 -58.503  1.00  0.00     0.270 C 
HETATM    4  O   UNL     1     -43.705  55.407 -58.504  1.00  0.00    -0.267 OA
HETATM    5  N   UNL     1     -44.513  57.305 -59.498  1.00  0.00    -0.270 N 
HETATM    6  C   UNL     1     -45.260  56.504 -60.452  1.00  0.00     0.164 C 
HETATM    7  C   UNL     1     -44.340  58.643 -59.804  1.00  0.00     0.333 C 
HETATM    8  O   UNL     1     -44.851  59.146 -60.807  1.00  0.00    -0.246 OA
HETATM    9  N   UNL     1     -43.564  59.385 -58.932  1.00  0.00    -0.270 N 
HETATM   10  C   UNL     1     -43.401  60.800 -59.225  1.00  0.00     0.164 C 
HETATM   11  C   UNL     1     -43.158  58.954 -57.683  1.00  0.00     0.270 C 
HETATM   12  O   UNL     1     -42.795  59.740 -56.805  1.00  0.00    -0.267 OA
ENDROOT
BRANCH   1  13
HETATM   13  N   UNL     1     -42.903  55.580 -56.005  1.00  0.00    -0.375 N 
HETATM   14  H   UNL     1     -43.755  55.364 -55.476  1.00  0.00     0.161 HD
BRANCH  13  15
HETATM   15  C   UNL     1     -41.779  54.688 -55.714  1.00  0.00     0.126 C 
BRANCH  15  16
HETATM   16  C   UNL     1     -42.212  53.458 -54.903  1.00  0.00     0.061 C 
BRANCH  16  17
HETATM   17  C   UNL     1     -41.611  53.403 -53.526  1.00  0.00    -0.022 A 
HETATM   18  C   UNL     1     -40.487  52.685 -53.146  1.00  0.00     0.013 A 
HETATM   19  C   UNL     1     -39.584  51.801 -53.930  1.00  0.00     0.068 C 
HETATM   20  N   UNL     1     -40.276  52.913 -51.810  1.00  0.00    -0.358 N 
HETATM   21  H   UNL     1     -39.520  52.513 -51.266  1.00  0.00     0.166 HD
HETATM   22  C   UNL     1     -41.246  53.744 -51.296  1.00  0.00     0.058 A 
HETATM   23  C   UNL     1     -42.105  54.058 -52.349  1.00  0.00    -0.000 A 
HETATM   24  C   UNL     1     -41.421  54.228 -49.982  1.00  0.00     0.075 A 
HETATM   25  C   UNL     1     -43.209  54.892 -52.087  1.00  0.00     0.014 A 
HETATM   26  C   UNL     1     -43.414  55.390 -50.798  1.00  0.00     0.002 A 
HETATM   27  C   UNL     1     -42.534  55.067 -49.769  1.00  0.00     0.018 A 
BRANCH  24  28
HETATM   28  C   UNL     1     -40.493  53.915 -48.837  1.00  0.00     0.419 C 
HETATM   29  F   UNL     1     -39.185  54.200 -49.107  1.00  0.00    -0.166 F 
HETATM   30  F   UNL     1     -40.797  54.618 -47.711  1.00  0.00    -0.166 F 
HETATM   31  F   UNL     1     -40.519  52.602 -48.477  1.00  0.00    -0.166 F 
ENDBRANCH  24  28
ENDBRANCH  16  17
ENDBRANCH  15  16
ENDBRANCH  13  15
ENDBRANCH   1  13
BRANCH   1  32
HETATM   32  N   UNL     1     -42.155  57.742 -55.299  1.00  0.00    -0.342 N 
HETATM   33  H   UNL     1     -41.171  57.492 -55.138  1.00  0.00     0.167 HD
BRANCH  32  34
HETATM   34  C   UNL     1     -42.732  58.070 -54.041  1.00  0.00     0.033 A 
HETATM   35  C   UNL     1     -44.108  58.198 -53.823  1.00  0.00     0.029 A 
HETATM   36  C   UNL     1     -44.607  58.553 -52.566  1.00  0.00     0.002 A 
HETATM   37  C   UNL     1     -43.734  58.799 -51.511  1.00  0.00     0.000 A 
HETATM   38  C   UNL     1     -42.361  58.695 -51.712  1.00  0.00     0.002 A 
HETATM   39  C   UNL     1     -41.865  58.338 -52.969  1.00  0.00     0.029 A 
ENDBRANCH  32  34
ENDBRANCH   1  32
TORSDOF 7
ENDMDL
MODEL 8
REMARK VINA RESULT:      -7.8      2.211      3.773
REMARK  7 active torsions:
REMARK  status: ('A' for Active; 'I' for Inactive)
REMARK    1  A    between atoms: C_7  and  C_8 
REMARK    2  A    between atoms: C_8  and  C_9 
REMARK    3  A    between atoms: C_9  and  N_10 
REMARK    4  A    between atoms: N_10  and  C_11 
REMARK    5  A    between atoms: C_11  and  N_12 
REMARK    6  A    between atoms: N_12  and  C_13 
REMARK    7  A    between atoms: C_30  and  C_31 
ROOT
HETATM    1  C   UNL     1     -42.752  57.852 -56.551  1.00  0.00     0.123 C 
HETATM    2  C   UNL     1     -43.042  58.568 -57.682  1.00  0.00     0.144 C 
HETATM    3  C   UNL     1     -44.177  58.187 -58.562  1.00  0.00     0.270 C 
HETATM    4  O   UNL     1     -44.743  57.098 -58.468  1.00  0.00    -0.267 OA
HETATM    5  N   UNL     1     -44.542  59.126 -59.509  1.00  0.00    -0.270 N 
HETATM    6  C   UNL     1     -45.751  58.872 -60.271  1.00  0.00     0.164 C 
HETATM    7  C   UNL     1     -43.722  60.147 -59.958  1.00  0.00     0.333 C 
HETATM    8  O   UNL     1     -44.036  60.850 -60.921  1.00  0.00    -0.246 OA
HETATM    9  N   UNL     1     -42.534  60.338 -59.275  1.00  0.00    -0.270 N 
HETATM   10  C   UNL     1     -41.680  61.427 -59.716  1.00  0.00     0.164 C 
HETATM   11  C   UNL     1     -42.227  59.753 -58.060  1.00  0.00     0.270 C 
HETATM   12  O   UNL     1     -41.353  60.207 -57.317  1.00  0.00    -0.267 OA
ENDROOT
BRANCH   1  13
HETATM   13  N   UNL     1     -43.572  56.798 -56.132  1.00  0.00    -0.375 N 
HETATM   14  H   UNL     1     -44.333  57.095 -55.512  1.00  0.00     0.161 HD
BRANCH  13  15
HETATM   15  C   UNL     1     -43.072  55.449 -55.856  1.00  0.00     0.126 C 
BRANCH  15  16
HETATM   16  C   UNL     1     -43.804  54.792 -54.678  1.00  0.00     0.061 C 
BRANCH  16  17
HETATM   17  C   UNL     1     -43.046  54.866 -53.381  1.00  0.00    -0.022 A 
HETATM   18  C   UNL     1     -43.271  55.762 -52.346  1.00  0.00     0.013 A 
HETATM   19  C   UNL     1     -44.264  56.859 -52.205  1.00  0.00     0.068 C 
HETATM   20  N   UNL     1     -42.369  55.486 -51.350  1.00  0.00    -0.358 N 
HETATM   21  H   UNL     1     -42.305  55.986 -50.471  1.00  0.00     0.166 HD
HETATM   22  C   UNL     1     -41.542  54.446 -51.713  1.00  0.00     0.058 A 
HETATM   23  C   UNL     1     -41.936  54.045 -52.989  1.00  0.00    -0.000 A 
HETATM   24  C   UNL     1     -40.478  53.846 -51.006  1.00  0.00     0.075 A 
HETATM   25  C   UNL     1     -41.232  52.994 -53.609  1.00  0.00     0.014 A 
HETATM   26  C   UNL     1     -40.175  52.376 -52.938  1.00  0.00     0.002 A 
HETATM   27  C   UNL     1     -39.809  52.792 -51.661  1.00  0.00     0.018 A 
BRANCH  24  28
HETATM   28  C   UNL     1     -40.051  54.253 -49.619  1.00  0.00     0.419 C 
HETATM   29  F   UNL     1     -38.696  54.345 -49.476  1.00  0.00    -0.166 F 
HETATM   30  F   UNL     1     -40.543  55.470 -49.257  1.00  0.00    -0.166 F 
HETATM   31  F   UNL     1     -40.466  53.380 -48.658  1.00  0.00    -0.166 F 
ENDBRANCH  24  28
ENDBRANCH  16  17
ENDBRANCH  15  16
ENDBRANCH  13  15
ENDBRANCH   1  13
BRANCH   1  32
HETATM   32  N   UNL     1     -41.662  58.187 -55.739  1.00  0.00    -0.342 N 
HETATM   33  H   UNL     1     -40.929  57.467 -55.754  1.00  0.00     0.167 HD
BRANCH  32  34
HETATM   34  C   UNL     1     -41.748  58.694 -54.413  1.00  0.00     0.033 A 
HETATM   35  C   UNL     1     -42.626  59.712 -54.022  1.00  0.00     0.029 A 
HETATM   36  C   UNL     1     -42.637  60.185 -52.706  1.00  0.00     0.002 A 
HETATM   37  C   UNL     1     -41.759  59.655 -51.764  1.00  0.00     0.000 A 
HETATM   38  C   UNL     1     -40.867  58.655 -52.138  1.00  0.00     0.002 A 
HETATM   39  C   UNL     1     -40.859  58.183 -53.454  1.00  0.00     0.029 A 
ENDBRANCH  32  34
ENDBRANCH   1  32
TORSDOF 7
ENDMDL
MODEL 9
REMARK VINA RESULT:      -7.7      2.066      4.411
REMARK  7 active torsions:
REMARK  status: ('A' for Active; 'I' for Inactive)
REMARK    1  A    between atoms: C_7  and  C_8 
REMARK    2  A    between atoms: C_8  and  C_9 
REMARK    3  A    between atoms: C_9  and  N_10 
REMARK    4  A    between atoms: N_10  and  C_11 
REMARK    5  A    between atoms: C_11  and  N_12 
REMARK    6  A    between atoms: N_12  and  C_13 
REMARK    7  A    between atoms: C_30  and  C_31 
ROOT
HETATM    1  C   UNL     1     -43.064  57.412 -55.901  1.00  0.00     0.123 C 
HETATM    2  C   UNL     1     -43.844  57.309 -57.021  1.00  0.00     0.144 C 
HETATM    3  C   UNL     1     -43.497  56.363 -58.114  1.00  0.00     0.270 C 
HETATM    4  O   UNL     1     -42.393  55.823 -58.188  1.00  0.00    -0.267 OA
HETATM    5  N   UNL     1     -44.487  56.146 -59.055  1.00  0.00    -0.270 N 
HETATM    6  C   UNL     1     -44.257  55.101 -60.038  1.00  0.00     0.164 C 
HETATM    7  C   UNL     1     -45.551  57.000 -59.287  1.00  0.00     0.333 C 
HETATM    8  O   UNL     1     -46.306  56.842 -60.248  1.00  0.00    -0.246 OA
HETATM    9  N   UNL     1     -45.722  58.039 -58.389  1.00  0.00    -0.270 N 
HETATM   10  C   UNL     1     -46.854  58.924 -58.603  1.00  0.00     0.164 C 
HETATM   11  C   UNL     1     -45.067  58.141 -57.176  1.00  0.00     0.270 C 
HETATM   12  O   UNL     1     -45.491  58.852 -56.261  1.00  0.00    -0.267 OA
ENDROOT
BRANCH   1  13
HETATM   13  N   UNL     1     -41.969  56.564 -55.701  1.00  0.00    -0.375 N 
HETATM   14  H   UNL     1     -41.350  56.500 -56.515  1.00  0.00     0.161 HD
BRANCH  13  15
HETATM   15  C   UNL     1     -42.036  55.335 -54.907  1.00  0.00     0.126 C 
BRANCH  15  16
HETATM   16  C   UNL     1     -40.732  54.529 -54.977  1.00  0.00     0.061 C 
BRANCH  16  17
HETATM   17  C   UNL     1     -40.539  53.592 -53.817  1.00  0.00    -0.022 A 
HETATM   18  C   UNL     1     -40.630  53.918 -52.472  1.00  0.00     0.013 A 
HETATM   19  C   UNL     1     -40.925  55.210 -51.800  1.00  0.00     0.068 C 
HETATM   20  N   UNL     1     -40.393  52.777 -51.748  1.00  0.00    -0.358 N 
HETATM   21  H   UNL     1     -40.397  52.721 -50.736  1.00  0.00     0.166 HD
HETATM   22  C   UNL     1     -40.126  51.714 -52.582  1.00  0.00     0.058 A 
HETATM   23  C   UNL     1     -40.198  52.200 -53.887  1.00  0.00    -0.000 A 
HETATM   24  C   UNL     1     -39.821  50.372 -52.270  1.00  0.00     0.075 A 
HETATM   25  C   UNL     1     -39.946  51.309 -54.949  1.00  0.00     0.014 A 
HETATM   26  C   UNL     1     -39.642  49.973 -54.678  1.00  0.00     0.002 A 
HETATM   27  C   UNL     1     -39.586  49.515 -53.365  1.00  0.00     0.018 A 
BRANCH  24  28
HETATM   28  C   UNL     1     -39.758  49.825 -50.867  1.00  0.00     0.419 C 
HETATM   29  F   UNL     1     -40.248  50.687 -49.928  1.00  0.00    -0.166 F 
HETATM   30  F   UNL     1     -40.473  48.676 -50.722  1.00  0.00    -0.166 F 
HETATM   31  F   UNL     1     -38.489  49.528 -50.471  1.00  0.00    -0.166 F 
ENDBRANCH  24  28
ENDBRANCH  16  17
ENDBRANCH  15  16
ENDBRANCH  13  15
ENDBRANCH   1  13
BRANCH   1  32
HETATM   32  N   UNL     1     -43.369  58.327 -54.886  1.00  0.00    -0.342 N 
HETATM   33  H   UNL     1     -43.640  59.246 -55.258  1.00  0.00     0.167 HD
BRANCH  32  34
HETATM   34  C   UNL     1     -42.596  58.542 -53.713  1.00  0.00     0.033 A 
HETATM   35  C   UNL     1     -41.254  58.938 -53.723  1.00  0.00     0.029 A 
HETATM   36  C   UNL     1     -40.542  59.102 -52.531  1.00  0.00     0.002 A 
HETATM   37  C   UNL     1     -41.161  58.858 -51.308  1.00  0.00     0.000 A 
HETATM   38  C   UNL     1     -42.490  58.446 -51.276  1.00  0.00     0.002 A 
HETATM   39  C   UNL     1     -43.199  58.284 -52.471  1.00  0.00     0.029 A 
ENDBRANCH  32  34
ENDBRANCH   1  32
TORSDOF 7
ENDMDL
MODEL 10
REMARK VINA RESULT:      -7.4      4.612      7.758
REMARK  7 active torsions:
REMARK  status: ('A' for Active; 'I' for Inactive)
REMARK    1  A    between atoms: C_7  and  C_8 
REMARK    2  A    between atoms: C_8  and  C_9 
REMARK    3  A    between atoms: C_9  and  N_10 
REMARK    4  A    between atoms: N_10  and  C_11 
REMARK    5  A    between atoms: C_11  and  N_12 
REMARK    6  A    between atoms: N_12  and  C_13 
REMARK    7  A    between atoms: C_30  and  C_31 
ROOT
HETATM    1  C   UNL     1     -42.238  55.717 -53.271  1.00  0.00     0.123 C 
HETATM    2  C   UNL     1     -42.589  56.877 -52.634  1.00  0.00     0.144 C 
HETATM    3  C   UNL     1     -43.960  57.437 -52.759  1.00  0.00     0.270 C 
HETATM    4  O   UNL     1     -44.753  57.044 -53.614  1.00  0.00    -0.267 OA
HETATM    5  N   UNL     1     -44.279  58.444 -51.866  1.00  0.00    -0.270 N 
HETATM    6  C   UNL     1     -45.658  58.897 -51.836  1.00  0.00     0.164 C 
HETATM    7  C   UNL     1     -43.351  59.216 -51.189  1.00  0.00     0.333 C 
HETATM    8  O   UNL     1     -43.689  60.206 -50.538  1.00  0.00    -0.246 OA
HETATM    9  N   UNL     1     -42.028  58.823 -51.282  1.00  0.00    -0.270 N 
HETATM   10  C   UNL     1     -41.047  59.606 -50.550  1.00  0.00     0.164 C 
HETATM   11  C   UNL     1     -41.606  57.609 -51.792  1.00  0.00     0.270 C 
HETATM   12  O   UNL     1     -40.493  57.142 -51.535  1.00  0.00    -0.267 OA
ENDROOT
BRANCH   1  13
HETATM   13  N   UNL     1     -43.182  54.968 -53.983  1.00  0.00    -0.375 N 
HETATM   14  H   UNL     1     -43.712  54.316 -53.395  1.00  0.00     0.161 HD
BRANCH  13  15
HETATM   15  C   UNL     1     -42.968  54.494 -55.352  1.00  0.00     0.126 C 
BRANCH  15  16
HETATM   16  C   UNL     1     -42.072  55.444 -56.159  1.00  0.00     0.061 C 
BRANCH  16  17
HETATM   17  C   UNL     1     -42.839  56.426 -57.002  1.00  0.00    -0.022 A 
HETATM   18  C   UNL     1     -42.935  57.793 -56.792  1.00  0.00     0.013 A 
HETATM   19  C   UNL     1     -42.349  58.660 -55.735  1.00  0.00     0.068 C 
HETATM   20  N   UNL     1     -43.719  58.316 -57.788  1.00  0.00    -0.358 N 
HETATM   21  H   UNL     1     -43.958  59.296 -57.883  1.00  0.00     0.166 HD
HETATM   22  C   UNL     1     -44.161  57.324 -58.635  1.00  0.00     0.058 A 
HETATM   23  C   UNL     1     -43.634  56.125 -58.158  1.00  0.00    -0.000 A 
HETATM   24  C   UNL     1     -44.989  57.408 -59.774  1.00  0.00     0.075 A 
HETATM   25  C   UNL     1     -43.950  54.934 -58.842  1.00  0.00     0.014 A 
HETATM   26  C   UNL     1     -44.767  54.980 -59.974  1.00  0.00     0.002 A 
HETATM   27  C   UNL     1     -45.271  56.194 -60.432  1.00  0.00     0.018 A 
BRANCH  24  28
HETATM   28  C   UNL     1     -45.552  58.698 -60.315  1.00  0.00     0.419 C 
HETATM   29  F   UNL     1     -45.961  59.561 -59.339  1.00  0.00    -0.166 F 
HETATM   30  F   UNL     1     -44.648  59.389 -61.063  1.00  0.00    -0.166 F 
HETATM   31  F   UNL     1     -46.635  58.507 -61.119  1.00  0.00    -0.166 F 
ENDBRANCH  24  28
ENDBRANCH  16  17
ENDBRANCH  15  16
ENDBRANCH  13  15
ENDBRANCH   1  13
BRANCH   1  32
HETATM   32  N   UNL     1     -40.937  55.205 -53.184  1.00  0.00    -0.342 N 
HETATM   33  H   UNL     1     -40.403  55.350 -54.050  1.00  0.00     0.167 HD
BRANCH  32  34
HETATM   34  C   UNL     1     -40.588  53.930 -52.664  1.00  0.00     0.033 A 
HETATM   35  C   UNL     1     -40.585  53.617 -51.299  1.00  0.00     0.029 A 
HETATM   36  C   UNL     1     -40.200  52.348 -50.853  1.00  0.00     0.002 A 
HETATM   37  C   UNL     1     -39.799  51.377 -51.766  1.00  0.00     0.000 A 
HETATM   38  C   UNL     1     -39.778  51.674 -53.126  1.00  0.00     0.002 A 
HETATM   39  C   UNL     1     -40.164  52.943 -53.569  1.00  0.00     0.029 A 
ENDBRANCH  32  34
ENDBRANCH   1  32
TORSDOF 7
ENDMDL
