MODEL 1
REMARK VINA RESULT:      -6.5      0.000      0.000
REMARK  5 active torsions:
REMARK  status: ('A' for Active; 'I' for Inactive)
REMARK    1  A    between atoms: C_2  and  O_3 
REMARK    2  A    between atoms: C_4  and  C_5 
REMARK    3  A    between atoms: C_5  and  O_6 
REMARK    4  A    between atoms: C_9  and  C_10 
REMARK    5  A    between atoms: C_22  and  O_23 
ROOT
HETATM    1  C   UNL     1     -40.467  54.654 -54.532  1.00  0.00     0.047 C 
HETATM    2  C   UNL     1     -41.656  55.619 -54.704  1.00  0.00     0.073 C 
HETATM    3  C   UNL     1     -41.343  56.979 -53.978  1.00  0.00     0.133 C 
HETATM    4  C   UNL     1     -41.449  56.942 -52.415  1.00  0.00     0.074 C 
HETATM    5  C   UNL     1     -42.279  55.804 -51.912  1.00  0.00     0.030 A 
HETATM    6  C   UNL     1     -42.964  54.929 -52.726  1.00  0.00     0.042 A 
HETATM    7  N   UNL     1     -43.570  54.014 -51.914  1.00  0.00    -0.279 N 
HETATM    8  H   UNL     1     -44.158  53.227 -52.170  1.00  0.00     0.189 HD
HETATM    9  N   UNL     1     -43.276  54.203 -50.610  1.00  0.00    -0.149 NA
HETATM   10  C   UNL     1     -42.494  55.275 -50.638  1.00  0.00     0.190 A 
HETATM   11  C   UNL     1     -42.968  54.944 -54.203  1.00  0.00     0.097 C 
ENDROOT
BRANCH   4  12
HETATM   12  C   UNL     1     -42.012  58.190 -51.744  1.00  0.00    -0.047 A 
HETATM   13  C   UNL     1     -43.397  58.438 -51.648  1.00  0.00     0.027 A 
HETATM   14  C   UNL     1     -43.872  59.607 -51.054  1.00  0.00     0.011 A 
HETATM   15 BR   UNL     1     -45.735  59.915 -50.950  1.00  0.00    -0.051 Br
HETATM   16  C   UNL     1     -42.985  60.551 -50.545  1.00  0.00     0.019 A 
HETATM   17  C   UNL     1     -41.613  60.323 -50.633  1.00  0.00     0.002 A 
HETATM   18  C   UNL     1     -41.130  59.154 -51.229  1.00  0.00     0.008 A 
ENDBRANCH   4  12
BRANCH   3  19
HETATM   19  C   UNL     1     -42.154  58.098 -54.602  1.00  0.00     0.266 C 
HETATM   20  O   UNL     1     -43.303  57.979 -55.011  1.00  0.00    -0.265 OA
BRANCH  19  21
HETATM   21  O   UNL     1     -41.405  59.233 -54.689  1.00  0.00    -0.326 OA
HETATM   22  C   UNL     1     -42.158  60.445 -54.645  1.00  0.00     0.213 C 
ENDBRANCH  19  21
ENDBRANCH   3  19
BRANCH   2  23
HETATM   23  O   UNL     1     -41.756  55.816 -56.125  1.00  0.00    -0.389 OA
HETATM   24  H   UNL     1     -42.229  56.659 -56.279  1.00  0.00     0.210 HD
ENDBRANCH   2  23
BRANCH  10  25
HETATM   25  O   UNL     1     -42.012  55.660 -49.462  1.00  0.00    -0.343 OA
HETATM   26  H   UNL     1     -41.546  56.493 -49.650  1.00  0.00     0.219 HD
ENDBRANCH  10  25
TORSDOF 5
ENDMDL
MODEL 2
REMARK VINA RESULT:      -6.4     17.015     18.821
REMARK  5 active torsions:
REMARK  status: ('A' for Active; 'I' for Inactive)
REMARK    1  A    between atoms: C_2  and  O_3 
REMARK    2  A    between atoms: C_4  and  C_5 
REMARK    3  A    between atoms: C_5  and  O_6 
REMARK    4  A    between atoms: C_9  and  C_10 
REMARK    5  A    between atoms: C_22  and  O_23 
ROOT
HETATM    1  C   UNL     1     -35.060  38.604 -51.196  1.00  0.00     0.047 C 
HETATM    2  C   UNL     1     -35.402  40.045 -51.623  1.00  0.00     0.073 C 
HETATM    3  C   UNL     1     -36.205  40.020 -52.975  1.00  0.00     0.133 C 
HETATM    4  C   UNL     1     -35.351  39.720 -54.254  1.00  0.00     0.074 C 
HETATM    5  C   UNL     1     -33.892  39.987 -54.059  1.00  0.00     0.030 A 
HETATM    6  C   UNL     1     -33.354  40.531 -52.914  1.00  0.00     0.042 A 
HETATM    7  N   UNL     1     -32.001  40.589 -53.094  1.00  0.00    -0.279 N 
HETATM    8  H   UNL     1     -31.289  40.934 -52.458  1.00  0.00     0.189 HD
HETATM    9  N   UNL     1     -31.612  40.060 -54.273  1.00  0.00    -0.149 NA
HETATM   10  C   UNL     1     -32.763  39.699 -54.827  1.00  0.00     0.190 A 
HETATM   11  C   UNL     1     -34.103  40.903 -51.696  1.00  0.00     0.097 C 
ENDROOT
BRANCH   4  12
HETATM   12  C   UNL     1     -35.741  40.473 -55.522  1.00  0.00    -0.047 A 
HETATM   13  C   UNL     1     -36.671  39.961 -56.450  1.00  0.00     0.027 A 
HETATM   14  C   UNL     1     -36.977  40.666 -57.613  1.00  0.00     0.011 A 
HETATM   15 BR   UNL     1     -38.222  39.947 -58.842  1.00  0.00    -0.051 Br
HETATM   16  C   UNL     1     -36.368  41.888 -57.881  1.00  0.00     0.019 A 
HETATM   17  C   UNL     1     -35.445  42.408 -56.975  1.00  0.00     0.002 A 
HETATM   18  C   UNL     1     -35.132  41.706 -55.807  1.00  0.00     0.008 A 
ENDBRANCH   4  12
BRANCH   3  19
HETATM   19  C   UNL     1     -37.045  41.276 -53.102  1.00  0.00     0.266 C 
HETATM   20  O   UNL     1     -36.651  42.406 -52.835  1.00  0.00    -0.265 OA
BRANCH  19  21
HETATM   21  O   UNL     1     -38.309  40.962 -53.504  1.00  0.00    -0.326 OA
HETATM   22  C   UNL     1     -39.323  41.230 -52.535  1.00  0.00     0.213 C 
ENDBRANCH  19  21
ENDBRANCH   3  19
BRANCH   2  23
HETATM   23  O   UNL     1     -36.224  40.549 -50.556  1.00  0.00    -0.389 OA
HETATM   24  H   UNL     1     -36.722  39.795 -50.179  1.00  0.00     0.210 HD
ENDBRANCH   2  23
BRANCH  10  25
HETATM   25  O   UNL     1     -32.663  39.094 -56.005  1.00  0.00    -0.343 OA
HETATM   26  H   UNL     1     -32.485  38.163 -55.786  1.00  0.00     0.219 HD
ENDBRANCH  10  25
TORSDOF 5
ENDMDL
MODEL 3
REMARK VINA RESULT:      -6.3     17.227     18.989
REMARK  5 active torsions:
REMARK  status: ('A' for Active; 'I' for Inactive)
REMARK    1  A    between atoms: C_2  and  O_3 
REMARK    2  A    between atoms: C_4  and  C_5 
REMARK    3  A    between atoms: C_5  and  O_6 
REMARK    4  A    between atoms: C_9  and  C_10 
REMARK    5  A    between atoms: C_22  and  O_23 
ROOT
HETATM    1  C   UNL     1     -33.399  40.601 -50.590  1.00  0.00     0.047 C 
HETATM    2  C   UNL     1     -33.451  39.669 -51.817  1.00  0.00     0.073 C 
HETATM    3  C   UNL     1     -33.548  40.528 -53.131  1.00  0.00     0.133 C 
HETATM    4  C   UNL     1     -34.951  41.167 -53.411  1.00  0.00     0.074 C 
HETATM    5  C   UNL     1     -36.062  40.481 -52.681  1.00  0.00     0.030 A 
HETATM    6  C   UNL     1     -35.898  39.348 -51.916  1.00  0.00     0.042 A 
HETATM    7  N   UNL     1     -37.118  39.042 -51.385  1.00  0.00    -0.279 N 
HETATM    8  H   UNL     1     -37.371  38.271 -50.774  1.00  0.00     0.189 HD
HETATM    9  N   UNL     1     -38.067  39.945 -51.711  1.00  0.00    -0.149 NA
HETATM   10  C   UNL     1     -37.405  40.801 -52.479  1.00  0.00     0.190 A 
HETATM   11  C   UNL     1     -34.621  38.650 -51.663  1.00  0.00     0.097 C 
ENDROOT
BRANCH   4  12
HETATM   12  C   UNL     1     -35.391  41.224 -54.870  1.00  0.00    -0.047 A 
HETATM   13  C   UNL     1     -36.161  40.205 -55.468  1.00  0.00     0.027 A 
HETATM   14  C   UNL     1     -36.517  40.280 -56.814  1.00  0.00     0.011 A 
HETATM   15 BR   UNL     1     -37.541  38.892 -57.589  1.00  0.00    -0.051 Br
HETATM   16  C   UNL     1     -36.118  41.362 -57.592  1.00  0.00     0.019 A 
HETATM   17  C   UNL     1     -35.356  42.377 -57.017  1.00  0.00     0.002 A 
HETATM   18  C   UNL     1     -34.993  42.308 -55.669  1.00  0.00     0.008 A 
ENDBRANCH   4  12
BRANCH   3  19
HETATM   19  C   UNL     1     -33.009  39.737 -54.307  1.00  0.00     0.266 C 
HETATM   20  O   UNL     1     -33.311  38.577 -54.561  1.00  0.00    -0.265 OA
BRANCH  19  21
HETATM   21  O   UNL     1     -32.108  40.483 -55.006  1.00  0.00    -0.326 OA
HETATM   22  C   UNL     1     -31.983  40.125 -56.383  1.00  0.00     0.213 C 
ENDBRANCH  19  21
ENDBRANCH   3  19
BRANCH   2  23
HETATM   23  O   UNL     1     -32.208  38.949 -51.773  1.00  0.00    -0.389 OA
HETATM   24  H   UNL     1     -31.916  38.797 -52.696  1.00  0.00     0.210 HD
ENDBRANCH   2  23
BRANCH  10  25
HETATM   25  O   UNL     1     -38.110  41.841 -52.911  1.00  0.00    -0.343 OA
HETATM   26  H   UNL     1     -38.886  41.868 -52.326  1.00  0.00     0.219 HD
ENDBRANCH  10  25
TORSDOF 5
ENDMDL
MODEL 4
REMARK VINA RESULT:      -6.2      2.919      4.878
REMARK  5 active torsions:
REMARK  status: ('A' for Active; 'I' for Inactive)
REMARK    1  A    between atoms: C_2  and  O_3 
REMARK    2  A    between atoms: C_4  and  C_5 
REMARK    3  A    between atoms: C_5  and  O_6 
REMARK    4  A    between atoms: C_9  and  C_10 
REMARK    5  A    between atoms: C_22  and  O_23 
ROOT
HETATM    1  C   UNL     1     -42.129  59.969 -55.426  1.00  0.00     0.047 C 
HETATM    2  C   UNL     1     -43.212  59.336 -54.529  1.00  0.00     0.073 C 
HETATM    3  C   UNL     1     -42.529  58.511 -53.377  1.00  0.00     0.133 C 
HETATM    4  C   UNL     1     -41.920  57.135 -53.811  1.00  0.00     0.074 C 
HETATM    5  C   UNL     1     -42.495  56.618 -55.091  1.00  0.00     0.030 A 
HETATM    6  C   UNL     1     -43.521  57.228 -55.778  1.00  0.00     0.042 A 
HETATM    7  N   UNL     1     -43.745  56.491 -56.905  1.00  0.00    -0.279 N 
HETATM    8  H   UNL     1     -44.428  56.644 -57.641  1.00  0.00     0.189 HD
HETATM    9  N   UNL     1     -42.883  55.459 -57.030  1.00  0.00    -0.149 NA
HETATM   10  C   UNL     1     -42.139  55.564 -55.935  1.00  0.00     0.190 A 
HETATM   11  C   UNL     1     -44.192  58.487 -55.394  1.00  0.00     0.097 C 
ENDROOT
BRANCH   4  12
HETATM   12  C   UNL     1     -42.048  55.990 -52.812  1.00  0.00    -0.047 A 
HETATM   13  C   UNL     1     -41.057  55.715 -51.846  1.00  0.00     0.027 A 
HETATM   14  C   UNL     1     -41.197  54.640 -50.969  1.00  0.00     0.011 A 
HETATM   15 BR   UNL     1     -39.847  54.292 -49.692  1.00  0.00    -0.051 Br
HETATM   16  C   UNL     1     -42.317  53.817 -51.034  1.00  0.00     0.019 A 
HETATM   17  C   UNL     1     -43.305  54.073 -51.983  1.00  0.00     0.002 A 
HETATM   18  C   UNL     1     -43.170  55.149 -52.866  1.00  0.00     0.008 A 
ENDBRANCH   4  12
BRANCH   3  19
HETATM   19  C   UNL     1     -43.470  58.398 -52.194  1.00  0.00     0.266 C 
HETATM   20  O   UNL     1     -44.658  58.104 -52.276  1.00  0.00    -0.265 OA
BRANCH  19  21
HETATM   21  O   UNL     1     -42.820  58.718 -51.039  1.00  0.00    -0.326 OA
HETATM   22  C   UNL     1     -41.824  59.730 -51.181  1.00  0.00     0.213 C 
ENDBRANCH  19  21
ENDBRANCH   3  19
BRANCH   2  23
HETATM   23  O   UNL     1     -43.932  60.458 -53.990  1.00  0.00    -0.389 OA
HETATM   24  H   UNL     1     -44.838  60.439 -54.361  1.00  0.00     0.210 HD
ENDBRANCH   2  23
BRANCH  10  25
HETATM   25  O   UNL     1     -41.157  54.677 -55.827  1.00  0.00    -0.343 OA
HETATM   26  H   UNL     1     -41.601  53.856 -55.551  1.00  0.00     0.219 HD
ENDBRANCH  10  25
TORSDOF 5
ENDMDL
MODEL 5
REMARK VINA RESULT:      -6.1      3.213      5.938
REMARK  5 active torsions:
REMARK  status: ('A' for Active; 'I' for Inactive)
REMARK    1  A    between atoms: C_2  and  O_3 
REMARK    2  A    between atoms: C_4  and  C_5 
REMARK    3  A    between atoms: C_5  and  O_6 
REMARK    4  A    between atoms: C_9  and  C_10 
REMARK    5  A    between atoms: C_22  and  O_23 
ROOT
HETATM    1  C   UNL     1     -39.623  59.901 -50.516  1.00  0.00     0.047 C 
HETATM    2  C   UNL     1     -40.925  59.101 -50.310  1.00  0.00     0.073 C 
HETATM    3  C   UNL     1     -40.822  57.722 -51.058  1.00  0.00     0.133 C 
HETATM    4  C   UNL     1     -40.975  57.794 -52.616  1.00  0.00     0.074 C 
HETATM    5  C   UNL     1     -41.662  59.039 -53.079  1.00  0.00     0.030 A 
HETATM    6  C   UNL     1     -42.195  59.987 -52.233  1.00  0.00     0.042 A 
HETATM    7  N   UNL     1     -42.700  60.985 -53.015  1.00  0.00    -0.279 N 
HETATM    8  H   UNL     1     -43.168  61.841 -52.732  1.00  0.00     0.189 HD
HETATM    9  N   UNL     1     -42.478  60.776 -54.331  1.00  0.00    -0.149 NA
HETATM   10  C   UNL     1     -41.847  59.609 -54.340  1.00  0.00     0.190 A 
HETATM   11  C   UNL     1     -42.151  59.953 -50.757  1.00  0.00     0.097 C 
ENDROOT
BRANCH   4  12
HETATM   12  C   UNL     1     -41.723  56.642 -53.278  1.00  0.00    -0.047 A 
HETATM   13  C   UNL     1     -41.133  55.379 -53.489  1.00  0.00     0.027 A 
HETATM   14  C   UNL     1     -41.840  54.360 -54.127  1.00  0.00     0.011 A 
HETATM   15 BR   UNL     1     -41.016  52.680 -54.404  1.00  0.00    -0.051 Br
HETATM   16  C   UNL     1     -43.142  54.573 -54.568  1.00  0.00     0.019 A 
HETATM   17  C   UNL     1     -43.741  55.816 -54.370  1.00  0.00     0.002 A 
HETATM   18  C   UNL     1     -43.037  56.842 -53.732  1.00  0.00     0.008 A 
ENDBRANCH   4  12
BRANCH   3  19
HETATM   19  C   UNL     1     -41.753  56.713 -50.416  1.00  0.00     0.266 C 
HETATM   20  O   UNL     1     -42.977  56.760 -50.475  1.00  0.00    -0.265 OA
BRANCH  19  21
HETATM   21  O   UNL     1     -41.038  55.782 -49.723  1.00  0.00    -0.326 OA
HETATM   22  C   UNL     1     -41.585  54.464 -49.764  1.00  0.00     0.213 C 
ENDBRANCH  19  21
ENDBRANCH   3  19
BRANCH   2  23
HETATM   23  O   UNL     1     -41.001  58.901 -48.888  1.00  0.00    -0.389 OA
HETATM   24  H   UNL     1     -41.068  59.781 -48.464  1.00  0.00     0.210 HD
ENDBRANCH   2  23
BRANCH  10  25
HETATM   25  O   UNL     1     -41.462  59.179 -55.536  1.00  0.00    -0.343 OA
HETATM   26  H   UNL     1     -40.541  59.483 -55.619  1.00  0.00     0.219 HD
ENDBRANCH  10  25
TORSDOF 5
ENDMDL
MODEL 6
REMARK VINA RESULT:      -6.1      2.411      4.610
REMARK  5 active torsions:
REMARK  status: ('A' for Active; 'I' for Inactive)
REMARK    1  A    between atoms: C_2  and  O_3 
REMARK    2  A    between atoms: C_4  and  C_5 
REMARK    3  A    between atoms: C_5  and  O_6 
REMARK    4  A    between atoms: C_9  and  C_10 
REMARK    5  A    between atoms: C_22  and  O_23 
ROOT
HETATM    1  C   UNL     1     -43.221  59.709 -50.545  1.00  0.00     0.047 C 
HETATM    2  C   UNL     1     -41.886  59.390 -51.248  1.00  0.00     0.073 C 
HETATM    3  C   UNL     1     -42.169  58.841 -52.695  1.00  0.00     0.133 C 
HETATM    4  C   UNL     1     -42.691  57.365 -52.760  1.00  0.00     0.074 C 
HETATM    5  C   UNL     1     -42.378  56.579 -51.527  1.00  0.00     0.030 A 
HETATM    6  C   UNL     1     -41.627  57.058 -50.476  1.00  0.00     0.042 A 
HETATM    7  N   UNL     1     -41.590  56.076 -49.528  1.00  0.00    -0.279 N 
HETATM    8  H   UNL     1     -41.126  56.081 -48.625  1.00  0.00     0.189 HD
HETATM    9  N   UNL     1     -42.323  54.996 -49.871  1.00  0.00    -0.149 NA
HETATM   10  C   UNL     1     -42.792  55.327 -51.068  1.00  0.00     0.190 A 
HETATM   11  C   UNL     1     -41.044  58.412 -50.375  1.00  0.00     0.097 C 
ENDROOT
BRANCH   4  12
HETATM   12  C   UNL     1     -42.189  56.519 -53.925  1.00  0.00    -0.047 A 
HETATM   13  C   UNL     1     -42.839  56.493 -55.177  1.00  0.00     0.027 A 
HETATM   14  C   UNL     1     -42.366  55.682 -56.208  1.00  0.00     0.011 A 
HETATM   15 BR   UNL     1     -43.266  55.663 -57.871  1.00  0.00    -0.051 Br
HETATM   16  C   UNL     1     -41.245  54.881 -56.019  1.00  0.00     0.019 A 
HETATM   17  C   UNL     1     -40.591  54.892 -54.788  1.00  0.00     0.002 A 
HETATM   18  C   UNL     1     -41.060  55.702 -53.749  1.00  0.00     0.008 A 
ENDBRANCH   4  12
BRANCH   3  19
HETATM   19  C   UNL     1     -40.966  59.086 -53.585  1.00  0.00     0.266 C 
HETATM   20  O   UNL     1     -39.801  58.924 -53.240  1.00  0.00    -0.265 OA
BRANCH  19  21
HETATM   21  O   UNL     1     -41.365  59.558 -54.800  1.00  0.00    -0.326 OA
HETATM   22  C   UNL     1     -42.449  60.486 -54.749  1.00  0.00     0.213 C 
ENDBRANCH  19  21
ENDBRANCH   3  19
BRANCH   2  23
HETATM   23  O   UNL     1     -41.202  60.653 -51.310  1.00  0.00    -0.389 OA
HETATM   24  H   UNL     1     -41.730  61.252 -51.878  1.00  0.00     0.210 HD
ENDBRANCH   2  23
BRANCH  10  25
HETATM   25  O   UNL     1     -43.603  54.438 -51.628  1.00  0.00    -0.343 OA
HETATM   26  H   UNL     1     -44.466  54.885 -51.665  1.00  0.00     0.219 HD
ENDBRANCH  10  25
TORSDOF 5
ENDMDL
MODEL 7
REMARK VINA RESULT:      -6.0      3.099      4.695
REMARK  5 active torsions:
REMARK  status: ('A' for Active; 'I' for Inactive)
REMARK    1  A    between atoms: C_2  and  O_3 
REMARK    2  A    between atoms: C_4  and  C_5 
REMARK    3  A    between atoms: C_5  and  O_6 
REMARK    4  A    between atoms: C_9  and  C_10 
REMARK    5  A    between atoms: C_22  and  O_23 
ROOT
HETATM    1  C   UNL     1     -44.027  60.106 -54.370  1.00  0.00     0.047 C 
HETATM    2  C   UNL     1     -42.813  60.099 -53.420  1.00  0.00     0.073 C 
HETATM    3  C   UNL     1     -42.153  58.672 -53.417  1.00  0.00     0.133 C 
HETATM    4  C   UNL     1     -42.934  57.575 -52.616  1.00  0.00     0.074 C 
HETATM    5  C   UNL     1     -43.881  58.148 -51.610  1.00  0.00     0.030 A 
HETATM    6  C   UNL     1     -43.995  59.494 -51.338  1.00  0.00     0.042 A 
HETATM    7  N   UNL     1     -44.978  59.632 -50.400  1.00  0.00    -0.279 N 
HETATM    8  H   UNL     1     -45.328  60.480 -49.964  1.00  0.00     0.189 HD
HETATM    9  N   UNL     1     -45.559  58.455 -50.080  1.00  0.00    -0.149 NA
HETATM   10  C   UNL     1     -44.889  57.585 -50.826  1.00  0.00     0.190 A 
HETATM   11  C   UNL     1     -43.244  60.579 -52.001  1.00  0.00     0.097 C 
ENDROOT
BRANCH   4  12
HETATM   12  C   UNL     1     -42.089  56.561 -51.853  1.00  0.00    -0.047 A 
HETATM   13  C   UNL     1     -41.629  55.364 -52.441  1.00  0.00     0.027 A 
HETATM   14  C   UNL     1     -40.884  54.447 -51.700  1.00  0.00     0.011 A 
HETATM   15 BR   UNL     1     -40.290  52.848 -52.515  1.00  0.00    -0.051 Br
HETATM   16  C   UNL     1     -40.583  54.696 -50.365  1.00  0.00     0.019 A 
HETATM   17  C   UNL     1     -41.031  55.873 -49.767  1.00  0.00     0.002 A 
HETATM   18  C   UNL     1     -41.779  56.796 -50.503  1.00  0.00     0.008 A 
ENDBRANCH   4  12
BRANCH   3  19
HETATM   19  C   UNL     1     -40.695  58.777 -53.014  1.00  0.00     0.266 C 
HETATM   20  O   UNL     1     -39.778  58.172 -53.558  1.00  0.00    -0.265 OA
BRANCH  19  21
HETATM   21  O   UNL     1     -40.560  59.598 -51.933  1.00  0.00    -0.326 OA
HETATM   22  C   UNL     1     -39.418  59.325 -51.121  1.00  0.00     0.213 C 
ENDBRANCH  19  21
ENDBRANCH   3  19
BRANCH   2  23
HETATM   23  O   UNL     1     -41.914  61.072 -53.979  1.00  0.00    -0.389 OA
HETATM   24  H   UNL     1     -41.311  61.366 -53.266  1.00  0.00     0.210 HD
ENDBRANCH   2  23
BRANCH  10  25
HETATM   25  O   UNL     1     -45.299  56.325 -50.738  1.00  0.00    -0.343 OA
HETATM   26  H   UNL     1     -44.608  55.812 -51.191  1.00  0.00     0.219 HD
ENDBRANCH  10  25
TORSDOF 5
ENDMDL
MODEL 8
REMARK VINA RESULT:      -6.0     16.736     18.353
REMARK  5 active torsions:
REMARK  status: ('A' for Active; 'I' for Inactive)
REMARK    1  A    between atoms: C_2  and  O_3 
REMARK    2  A    between atoms: C_4  and  C_5 
REMARK    3  A    between atoms: C_5  and  O_6 
REMARK    4  A    between atoms: C_9  and  C_10 
REMARK    5  A    between atoms: C_22  and  O_23 
ROOT
HETATM    1  C   UNL     1     -34.734  42.519 -51.609  1.00  0.00     0.047 C 
HETATM    2  C   UNL     1     -34.524  41.232 -52.431  1.00  0.00     0.073 C 
HETATM    3  C   UNL     1     -34.814  41.522 -53.950  1.00  0.00     0.133 C 
HETATM    4  C   UNL     1     -36.329  41.656 -54.327  1.00  0.00     0.074 C 
HETATM    5  C   UNL     1     -37.240  41.022 -53.326  1.00  0.00     0.030 A 
HETATM    6  C   UNL     1     -36.806  40.307 -52.231  1.00  0.00     0.042 A 
HETATM    7  N   UNL     1     -37.916  39.919 -51.538  1.00  0.00    -0.279 N 
HETATM    8  H   UNL     1     -37.974  39.376 -50.682  1.00  0.00     0.189 HD
HETATM    9  N   UNL     1     -39.058  40.387 -52.084  1.00  0.00    -0.149 NA
HETATM   10  C   UNL     1     -38.624  41.052 -53.148  1.00  0.00     0.190 A 
HETATM   11  C   UNL     1     -35.397  40.079 -51.849  1.00  0.00     0.097 C 
ENDROOT
BRANCH   4  12
HETATM   12  C   UNL     1     -36.744  41.086 -55.680  1.00  0.00    -0.047 A 
HETATM   13  C   UNL     1     -36.786  41.871 -56.850  1.00  0.00     0.027 A 
HETATM   14  C   UNL     1     -37.202  41.320 -58.062  1.00  0.00     0.011 A 
HETATM   15 BR   UNL     1     -37.257  42.402 -59.612  1.00  0.00    -0.051 Br
HETATM   16  C   UNL     1     -37.584  39.984 -58.137  1.00  0.00     0.019 A 
HETATM   17  C   UNL     1     -37.549  39.194 -56.989  1.00  0.00     0.002 A 
HETATM   18  C   UNL     1     -37.135  39.741 -55.771  1.00  0.00     0.008 A 
ENDBRANCH   4  12
BRANCH   3  19
HETATM   19  C   UNL     1     -34.071  40.525 -54.817  1.00  0.00     0.266 C 
HETATM   20  O   UNL     1     -33.508  40.804 -55.870  1.00  0.00    -0.265 OA
BRANCH  19  21
HETATM   21  O   UNL     1     -34.163  39.273 -54.286  1.00  0.00    -0.326 OA
HETATM   22  C   UNL     1     -33.781  38.223 -55.174  1.00  0.00     0.213 C 
ENDBRANCH  19  21
ENDBRANCH   3  19
BRANCH   2  23
HETATM   23  O   UNL     1     -33.139  40.902 -52.234  1.00  0.00    -0.389 OA
HETATM   24  H   UNL     1     -32.965  40.054 -52.693  1.00  0.00     0.210 HD
ENDBRANCH   2  23
BRANCH  10  25
HETATM   25  O   UNL     1     -39.563  41.667 -53.857  1.00  0.00    -0.343 OA
HETATM   26  H   UNL     1     -39.541  41.226 -54.724  1.00  0.00     0.219 HD
ENDBRANCH  10  25
TORSDOF 5
ENDMDL
MODEL 9
REMARK VINA RESULT:      -5.9      2.740      4.174
REMARK  5 active torsions:
REMARK  status: ('A' for Active; 'I' for Inactive)
REMARK    1  A    between atoms: C_2  and  O_3 
REMARK    2  A    between atoms: C_4  and  C_5 
REMARK    3  A    between atoms: C_5  and  O_6 
REMARK    4  A    between atoms: C_9  and  C_10 
REMARK    5  A    between atoms: C_22  and  O_23 
ROOT
HETATM    1  C   UNL     1     -42.116  53.450 -54.127  1.00  0.00     0.047 C 
HETATM    2  C   UNL     1     -41.448  54.709 -53.539  1.00  0.00     0.073 C 
HETATM    3  C   UNL     1     -42.462  55.454 -52.596  1.00  0.00     0.133 C 
HETATM    4  C   UNL     1     -43.592  56.254 -53.329  1.00  0.00     0.074 C 
HETATM    5  C   UNL     1     -43.253  56.579 -54.749  1.00  0.00     0.030 A 
HETATM    6  C   UNL     1     -42.039  56.297 -55.336  1.00  0.00     0.042 A 
HETATM    7  N   UNL     1     -42.117  56.704 -56.637  1.00  0.00    -0.279 N 
HETATM    8  H   UNL     1     -41.409  56.654 -57.363  1.00  0.00     0.189 HD
HETATM    9  N   UNL     1     -43.337  57.188 -56.956  1.00  0.00    -0.149 NA
HETATM   10  C   UNL     1     -44.000  57.093 -55.811  1.00  0.00     0.190 A 
HETATM   11  C   UNL     1     -40.903  55.609 -54.689  1.00  0.00     0.097 C 
ENDROOT
BRANCH   4  12
HETATM   12  C   UNL     1     -44.010  57.576 -52.694  1.00  0.00    -0.047 A 
HETATM   13  C   UNL     1     -43.489  58.816 -53.116  1.00  0.00     0.027 A 
HETATM   14  C   UNL     1     -43.873  60.001 -52.488  1.00  0.00     0.011 A 
HETATM   15 BR   UNL     1     -43.149  61.647 -53.072  1.00  0.00    -0.051 Br
HETATM   16  C   UNL     1     -44.777  59.979 -51.431  1.00  0.00     0.019 A 
HETATM   17  C   UNL     1     -45.300  58.761 -50.998  1.00  0.00     0.002 A 
HETATM   18  C   UNL     1     -44.918  57.570 -51.623  1.00  0.00     0.008 A 
ENDBRANCH   4  12
BRANCH   3  19
HETATM   19  C   UNL     1     -41.706  56.289 -51.581  1.00  0.00     0.266 C 
HETATM   20  O   UNL     1     -40.822  57.090 -51.859  1.00  0.00    -0.265 OA
BRANCH  19  21
HETATM   21  O   UNL     1     -42.117  55.983 -50.317  1.00  0.00    -0.326 OA
HETATM   22  C   UNL     1     -42.638  54.662 -50.167  1.00  0.00     0.213 C 
ENDBRANCH  19  21
ENDBRANCH   3  19
BRANCH   2  23
HETATM   23  O   UNL     1     -40.332  54.204 -52.785  1.00  0.00    -0.389 OA
HETATM   24  H   UNL     1     -40.229  54.766 -51.990  1.00  0.00     0.210 HD
ENDBRANCH   2  23
BRANCH  10  25
HETATM   25  O   UNL     1     -45.273  57.468 -55.856  1.00  0.00    -0.343 OA
HETATM   26  H   UNL     1     -45.412  57.956 -55.026  1.00  0.00     0.219 HD
ENDBRANCH  10  25
TORSDOF 5
ENDMDL
MODEL 10
REMARK VINA RESULT:      -5.9      3.201      5.011
REMARK  5 active torsions:
REMARK  status: ('A' for Active; 'I' for Inactive)
REMARK    1  A    between atoms: C_2  and  O_3 
REMARK    2  A    between atoms: C_4  and  C_5 
REMARK    3  A    between atoms: C_5  and  O_6 
REMARK    4  A    between atoms: C_9  and  C_10 
REMARK    5  A    between atoms: C_22  and  O_23 
ROOT
HETATM    1  C   UNL     1     -42.476  58.488 -51.371  1.00  0.00     0.047 C 
HETATM    2  C   UNL     1     -41.896  58.767 -52.773  1.00  0.00     0.073 C 
HETATM    3  C   UNL     1     -43.068  59.034 -53.787  1.00  0.00     0.133 C 
HETATM    4  C   UNL     1     -43.863  57.763 -54.240  1.00  0.00     0.074 C 
HETATM    5  C   UNL     1     -43.101  56.492 -54.036  1.00  0.00     0.030 A 
HETATM    6  C   UNL     1     -41.800  56.437 -53.587  1.00  0.00     0.042 A 
HETATM    7  N   UNL     1     -41.462  55.117 -53.493  1.00  0.00    -0.279 N 
HETATM    8  H   UNL     1     -40.582  54.704 -53.199  1.00  0.00     0.189 HD
HETATM    9  N   UNL     1     -42.489  54.296 -53.801  1.00  0.00    -0.149 NA
HETATM   10  C   UNL     1     -43.461  55.146 -54.112  1.00  0.00     0.190 A 
HETATM   11  C   UNL     1     -40.965  57.595 -53.207  1.00  0.00     0.097 C 
ENDROOT
BRANCH   4  12
HETATM   12  C   UNL     1     -44.327  57.734 -55.693  1.00  0.00    -0.047 A 
HETATM   13  C   UNL     1     -43.527  57.215 -56.732  1.00  0.00     0.027 A 
HETATM   14  C   UNL     1     -43.975  57.236 -58.052  1.00  0.00     0.011 A 
HETATM   15 BR   UNL     1     -42.875  56.541 -59.424  1.00  0.00    -0.051 Br
HETATM   16  C   UNL     1     -45.219  57.772 -58.368  1.00  0.00     0.019 A 
HETATM   17  C   UNL     1     -46.022  58.291 -57.354  1.00  0.00     0.002 A 
HETATM   18  C   UNL     1     -45.579  58.275 -56.028  1.00  0.00     0.008 A 
ENDBRANCH   4  12
BRANCH   3  19
HETATM   19  C   UNL     1     -42.567  59.868 -54.949  1.00  0.00     0.266 C 
HETATM   20  O   UNL     1     -41.512  59.671 -55.542  1.00  0.00    -0.265 OA
BRANCH  19  21
HETATM   21  O   UNL     1     -43.430  60.892 -55.205  1.00  0.00    -0.326 OA
HETATM   22  C   UNL     1     -43.349  61.979 -54.283  1.00  0.00     0.213 C 
ENDBRANCH  19  21
ENDBRANCH   3  19
BRANCH   2  23
HETATM   23  O   UNL     1     -41.095  59.949 -52.602  1.00  0.00    -0.389 OA
HETATM   24  H   UNL     1     -41.630  60.604 -52.109  1.00  0.00     0.210 HD
ENDBRANCH   2  23
BRANCH  10  25
HETATM   25  O   UNL     1     -44.628  54.589 -54.417  1.00  0.00    -0.343 OA
HETATM   26  H   UNL     1     -44.513  54.266 -55.327  1.00  0.00     0.219 HD
ENDBRANCH  10  25
TORSDOF 5
ENDMDL
