MODEL 1
REMARK VINA RESULT:      -9.0      0.000      0.000
REMARK  5 active torsions:
REMARK  status: ('A' for Active; 'I' for Inactive)
REMARK    1  A    between atoms: C_5  and  C_6 
REMARK    2  A    between atoms: C_9  and  O_10 
REMARK    3  A    between atoms: N_14  and  C_15 
REMARK    4  A    between atoms: C_15  and  C_16 
REMARK       I    between atoms: C_16  and  N_17 
REMARK    5  A    between atoms: N_17  and  C_18 
ROOT
HETATM    1  C   UNL     1     -41.615  59.797 -58.097  1.00  0.00     0.156 C 
HETATM    2  N   UNL     1     -42.153  58.527 -57.671  1.00  0.00    -0.346 N 
HETATM    3  C   UNL     1     -42.228  58.087 -56.395  1.00  0.00     0.113 A 
HETATM    4  C   UNL     1     -42.777  56.835 -56.373  1.00  0.00     0.014 A 
HETATM    5  C   UNL     1     -42.883  56.339 -54.977  1.00  0.00     0.158 A 
HETATM    6  N   UNL     1     -42.405  57.539 -54.239  1.00  0.00    -0.325 N 
HETATM    7  C   UNL     1     -41.986  58.579 -55.081  1.00  0.00     0.272 A 
HETATM    8  O   UNL     1     -41.600  59.688 -54.751  1.00  0.00    -0.266 OA
HETATM    9  C   UNL     1     -43.128  56.485 -57.688  1.00  0.00     0.002 A 
HETATM   10  C   UNL     1     -42.727  57.568 -58.498  1.00  0.00     0.045 A 
HETATM   11  C   UNL     1     -43.758  55.378 -58.284  1.00  0.00     0.014 A 
HETATM   12  C   UNL     1     -43.981  55.377 -59.664  1.00  0.00     0.001 A 
HETATM   13  C   UNL     1     -43.581  56.454 -60.450  1.00  0.00     0.002 A 
HETATM   14  C   UNL     1     -42.946  57.565 -59.885  1.00  0.00     0.030 A 
ENDROOT
BRANCH   6  15
HETATM   15  C   UNL     1     -42.934  57.842 -52.924  1.00  0.00     0.229 C 
BRANCH  15  16
HETATM   16  C   UNL     1     -42.020  57.474 -51.764  1.00  0.00     0.235 C 
HETATM   17  N   UNL     1     -42.060  56.144 -51.403  1.00  0.00    -0.355 N 
HETATM   18  H   UNL     1     -42.666  55.530 -51.938  1.00  0.00     0.162 HD
HETATM   19  O   UNL     1     -41.230  58.285 -51.286  1.00  0.00    -0.272 OA
BRANCH  17  20
HETATM   20  C   UNL     1     -41.011  55.573 -50.588  1.00  0.00     0.084 C 
HETATM   21  C   UNL     1     -41.449  55.277 -49.160  1.00  0.00     0.025 C 
HETATM   22  C   UNL     1     -40.386  54.299 -48.682  1.00  0.00     0.002 C 
HETATM   23  C   UNL     1     -40.125  53.402 -49.887  1.00  0.00     0.002 C 
HETATM   24  C   UNL     1     -40.542  54.211 -51.115  1.00  0.00     0.025 C 
ENDBRANCH  17  20
ENDBRANCH  15  16
ENDBRANCH   6  15
BRANCH   5  25
HETATM   25  C   UNL     1     -41.982  55.132 -54.798  1.00  0.00    -0.030 A 
HETATM   26  C   UNL     1     -40.589  55.150 -54.989  1.00  0.00     0.012 A 
HETATM   27  C   UNL     1     -39.820  53.995 -54.820  1.00  0.00     0.037 A 
HETATM   28  C   UNL     1     -40.411  52.797 -54.424  1.00  0.00     0.068 A 
HETATM   29  C   UNL     1     -41.784  52.766 -54.194  1.00  0.00     0.037 A 
HETATM   30  C   UNL     1     -42.558  53.919 -54.381  1.00  0.00     0.012 A 
BRANCH  28  31
HETATM   31  O   UNL     1     -39.544  51.746 -54.300  1.00  0.00    -0.356 OA
HETATM   32  C   UNL     1     -40.103  50.441 -54.356  1.00  0.00     0.210 C 
ENDBRANCH  28  31
ENDBRANCH   5  25
TORSDOF 5
ENDMDL
MODEL 2
REMARK VINA RESULT:      -8.0      2.367      6.808
REMARK  5 active torsions:
REMARK  status: ('A' for Active; 'I' for Inactive)
REMARK    1  A    between atoms: C_5  and  C_6 
REMARK    2  A    between atoms: C_9  and  O_10 
REMARK    3  A    between atoms: N_14  and  C_15 
REMARK    4  A    between atoms: C_15  and  C_16 
REMARK       I    between atoms: C_16  and  N_17 
REMARK    5  A    between atoms: N_17  and  C_18 
ROOT
HETATM    1  C   UNL     1     -45.039  58.837 -52.255  1.00  0.00     0.156 C 
HETATM    2  N   UNL     1     -43.697  58.316 -52.370  1.00  0.00    -0.346 N 
HETATM    3  C   UNL     1     -43.303  57.313 -53.187  1.00  0.00     0.113 A 
HETATM    4  C   UNL     1     -41.968  57.077 -53.014  1.00  0.00     0.014 A 
HETATM    5  C   UNL     1     -41.512  55.988 -53.915  1.00  0.00     0.158 A 
HETATM    6  N   UNL     1     -42.768  55.735 -54.670  1.00  0.00    -0.325 N 
HETATM    7  C   UNL     1     -43.852  56.504 -54.222  1.00  0.00     0.272 A 
HETATM    8  O   UNL     1     -44.978  56.539 -54.689  1.00  0.00    -0.266 OA
HETATM    9  C   UNL     1     -41.472  58.015 -52.092  1.00  0.00     0.002 A 
HETATM   10  C   UNL     1     -42.579  58.793 -51.694  1.00  0.00     0.045 A 
HETATM   11  C   UNL     1     -40.202  58.305 -51.561  1.00  0.00     0.014 A 
HETATM   12  C   UNL     1     -40.062  59.363 -50.657  1.00  0.00     0.001 A 
HETATM   13  C   UNL     1     -41.166  60.122 -50.276  1.00  0.00     0.002 A 
HETATM   14  C   UNL     1     -42.440  59.852 -50.782  1.00  0.00     0.030 A 
ENDROOT
BRANCH   6  15
HETATM   15  C   UNL     1     -42.710  55.304 -56.053  1.00  0.00     0.229 C 
BRANCH  15  16
HETATM   16  C   UNL     1     -42.964  56.399 -57.078  1.00  0.00     0.235 C 
HETATM   17  N   UNL     1     -44.111  56.229 -57.825  1.00  0.00    -0.355 N 
HETATM   18  H   UNL     1     -44.687  55.418 -57.624  1.00  0.00     0.162 HD
HETATM   19  O   UNL     1     -42.260  57.405 -57.133  1.00  0.00    -0.272 OA
BRANCH  17  20
HETATM   20  C   UNL     1     -44.675  57.336 -58.565  1.00  0.00     0.084 C 
HETATM   21  C   UNL     1     -45.411  56.907 -59.827  1.00  0.00     0.025 C 
HETATM   22  C   UNL     1     -46.271  58.123 -60.140  1.00  0.00     0.002 C 
HETATM   23  C   UNL     1     -46.755  58.607 -58.779  1.00  0.00     0.002 C 
HETATM   24  C   UNL     1     -45.742  58.089 -57.759  1.00  0.00     0.025 C 
ENDBRANCH  17  20
ENDBRANCH  15  16
ENDBRANCH   6  15
BRANCH   5  25
HETATM   25  C   UNL     1     -41.065  54.799 -53.086  1.00  0.00    -0.030 A 
HETATM   26  C   UNL     1     -41.127  54.745 -51.683  1.00  0.00     0.012 A 
HETATM   27  C   UNL     1     -40.684  53.620 -50.982  1.00  0.00     0.037 A 
HETATM   28  C   UNL     1     -40.198  52.503 -51.659  1.00  0.00     0.068 A 
HETATM   29  C   UNL     1     -40.163  52.522 -53.050  1.00  0.00     0.037 A 
HETATM   30  C   UNL     1     -40.590  53.657 -53.754  1.00  0.00     0.012 A 
BRANCH  28  31
HETATM   31  O   UNL     1     -39.796  51.475 -50.851  1.00  0.00    -0.356 OA
HETATM   32  C   UNL     1     -39.434  50.259 -51.490  1.00  0.00     0.210 C 
ENDBRANCH  28  31
ENDBRANCH   5  25
TORSDOF 5
ENDMDL
MODEL 3
REMARK VINA RESULT:      -7.8      3.313      6.552
REMARK  5 active torsions:
REMARK  status: ('A' for Active; 'I' for Inactive)
REMARK    1  A    between atoms: C_5  and  C_6 
REMARK    2  A    between atoms: C_9  and  O_10 
REMARK    3  A    between atoms: N_14  and  C_15 
REMARK    4  A    between atoms: C_15  and  C_16 
REMARK       I    between atoms: C_16  and  N_17 
REMARK    5  A    between atoms: N_17  and  C_18 
ROOT
HETATM    1  C   UNL     1     -43.199  54.427 -55.823  1.00  0.00     0.156 C 
HETATM    2  N   UNL     1     -42.688  54.654 -54.492  1.00  0.00    -0.346 N 
HETATM    3  C   UNL     1     -43.108  55.611 -53.634  1.00  0.00     0.113 A 
HETATM    4  C   UNL     1     -42.387  55.539 -52.475  1.00  0.00     0.014 A 
HETATM    5  C   UNL     1     -42.843  56.574 -51.514  1.00  0.00     0.158 A 
HETATM    6  N   UNL     1     -43.980  57.153 -52.278  1.00  0.00    -0.325 N 
HETATM    7  C   UNL     1     -44.128  56.602 -53.559  1.00  0.00     0.272 A 
HETATM    8  O   UNL     1     -45.000  56.849 -54.375  1.00  0.00    -0.266 OA
HETATM    9  C   UNL     1     -41.510  54.444 -52.571  1.00  0.00     0.002 A 
HETATM   10  C   UNL     1     -41.714  53.894 -53.853  1.00  0.00     0.045 A 
HETATM   11  C   UNL     1     -40.577  53.845 -51.706  1.00  0.00     0.014 A 
HETATM   12  C   UNL     1     -39.877  52.712 -52.132  1.00  0.00     0.001 A 
HETATM   13  C   UNL     1     -40.091  52.179 -53.401  1.00  0.00     0.002 A 
HETATM   14  C   UNL     1     -41.008  52.759 -54.283  1.00  0.00     0.030 A 
ENDROOT
BRANCH   6  15
HETATM   15  C   UNL     1     -45.138  57.673 -51.577  1.00  0.00     0.229 C 
BRANCH  15  16
HETATM   16  C   UNL     1     -45.280  59.188 -51.607  1.00  0.00     0.235 C 
HETATM   17  N   UNL     1     -44.791  59.831 -50.490  1.00  0.00    -0.355 N 
HETATM   18  H   UNL     1     -44.371  59.259 -49.764  1.00  0.00     0.162 HD
HETATM   19  O   UNL     1     -45.685  59.777 -52.607  1.00  0.00    -0.272 OA
BRANCH  17  20
HETATM   20  C   UNL     1     -44.521  61.251 -50.519  1.00  0.00     0.084 C 
HETATM   21  C   UNL     1     -44.540  61.899 -49.142  1.00  0.00     0.025 C 
HETATM   22  C   UNL     1     -43.796  63.206 -49.378  1.00  0.00     0.002 C 
HETATM   23  C   UNL     1     -42.662  62.831 -50.325  1.00  0.00     0.002 C 
HETATM   24  C   UNL     1     -43.115  61.564 -51.050  1.00  0.00     0.025 C 
ENDBRANCH  17  20
ENDBRANCH  15  16
ENDBRANCH   6  15
BRANCH   5  25
HETATM   25  C   UNL     1     -41.724  57.567 -51.268  1.00  0.00    -0.030 A 
HETATM   26  C   UNL     1     -40.796  57.970 -52.245  1.00  0.00     0.012 A 
HETATM   27  C   UNL     1     -39.779  58.881 -51.945  1.00  0.00     0.037 A 
HETATM   28  C   UNL     1     -39.676  59.442 -50.673  1.00  0.00     0.068 A 
HETATM   29  C   UNL     1     -40.607  59.084 -49.702  1.00  0.00     0.037 A 
HETATM   30  C   UNL     1     -41.617  58.157 -49.996  1.00  0.00     0.012 A 
BRANCH  28  31
HETATM   31  O   UNL     1     -38.635  60.314 -50.516  1.00  0.00    -0.356 OA
HETATM   32  C   UNL     1     -37.641  59.965 -49.563  1.00  0.00     0.210 C 
ENDBRANCH  28  31
ENDBRANCH   5  25
TORSDOF 5
ENDMDL
MODEL 4
REMARK VINA RESULT:      -7.7      2.269      6.773
REMARK  5 active torsions:
REMARK  status: ('A' for Active; 'I' for Inactive)
REMARK    1  A    between atoms: C_5  and  C_6 
REMARK    2  A    between atoms: C_9  and  O_10 
REMARK    3  A    between atoms: N_14  and  C_15 
REMARK    4  A    between atoms: C_15  and  C_16 
REMARK       I    between atoms: C_16  and  N_17 
REMARK    5  A    between atoms: N_17  and  C_18 
ROOT
HETATM    1  C   UNL     1     -45.073  59.073 -52.007  1.00  0.00     0.156 C 
HETATM    2  N   UNL     1     -43.770  58.598 -52.407  1.00  0.00    -0.346 N 
HETATM    3  C   UNL     1     -43.510  57.791 -53.461  1.00  0.00     0.113 A 
HETATM    4  C   UNL     1     -42.168  57.534 -53.523  1.00  0.00     0.014 A 
HETATM    5  C   UNL     1     -41.860  56.661 -54.684  1.00  0.00     0.158 A 
HETATM    6  N   UNL     1     -43.211  56.563 -55.299  1.00  0.00    -0.325 N 
HETATM    7  C   UNL     1     -44.208  57.213 -54.559  1.00  0.00     0.272 A 
HETATM    8  O   UNL     1     -45.385  57.337 -54.852  1.00  0.00    -0.266 OA
HETATM    9  C   UNL     1     -41.534  58.261 -52.501  1.00  0.00     0.002 A 
HETATM   10  C   UNL     1     -42.561  58.930 -51.804  1.00  0.00     0.045 A 
HETATM   11  C   UNL     1     -40.199  58.443 -52.097  1.00  0.00     0.014 A 
HETATM   12  C   UNL     1     -39.918  59.288 -51.020  1.00  0.00     0.001 A 
HETATM   13  C   UNL     1     -40.944  59.943 -50.343  1.00  0.00     0.002 A 
HETATM   14  C   UNL     1     -42.280  59.775 -50.718  1.00  0.00     0.030 A 
ENDROOT
BRANCH   6  15
HETATM   15  C   UNL     1     -43.347  56.432 -56.736  1.00  0.00     0.229 C 
BRANCH  15  16
HETATM   16  C   UNL     1     -43.677  57.723 -57.471  1.00  0.00     0.235 C 
HETATM   17  N   UNL     1     -42.593  58.545 -57.698  1.00  0.00    -0.355 N 
HETATM   18  H   UNL     1     -41.684  58.223 -57.381  1.00  0.00     0.162 HD
HETATM   19  O   UNL     1     -44.799  57.937 -57.924  1.00  0.00    -0.272 OA
BRANCH  17  20
HETATM   20  C   UNL     1     -42.669  59.605 -58.678  1.00  0.00     0.084 C 
HETATM   21  C   UNL     1     -41.579  60.656 -58.519  1.00  0.00     0.025 C 
HETATM   22  C   UNL     1     -41.584  61.348 -59.874  1.00  0.00     0.002 C 
HETATM   23  C   UNL     1     -41.787  60.219 -60.878  1.00  0.00     0.002 C 
HETATM   24  C   UNL     1     -42.471  59.088 -60.109  1.00  0.00     0.025 C 
ENDBRANCH  17  20
ENDBRANCH  15  16
ENDBRANCH   6  15
BRANCH   5  25
HETATM   25  C   UNL     1     -41.332  55.328 -54.190  1.00  0.00    -0.030 A 
HETATM   26  C   UNL     1     -41.508  54.844 -52.882  1.00  0.00     0.012 A 
HETATM   27  C   UNL     1     -40.982  53.609 -52.491  1.00  0.00     0.037 A 
HETATM   28  C   UNL     1     -40.294  52.807 -53.399  1.00  0.00     0.068 A 
HETATM   29  C   UNL     1     -40.140  53.252 -54.709  1.00  0.00     0.037 A 
HETATM   30  C   UNL     1     -40.651  54.498 -55.098  1.00  0.00     0.012 A 
BRANCH  28  31
HETATM   31  O   UNL     1     -39.830  51.628 -52.883  1.00  0.00    -0.356 OA
HETATM   32  C   UNL     1     -39.672  50.546 -53.790  1.00  0.00     0.210 C 
ENDBRANCH  28  31
ENDBRANCH   5  25
TORSDOF 5
ENDMDL
MODEL 5
REMARK VINA RESULT:      -7.7      2.809      6.040
REMARK  5 active torsions:
REMARK  status: ('A' for Active; 'I' for Inactive)
REMARK    1  A    between atoms: C_5  and  C_6 
REMARK    2  A    between atoms: C_9  and  O_10 
REMARK    3  A    between atoms: N_14  and  C_15 
REMARK    4  A    between atoms: C_15  and  C_16 
REMARK       I    between atoms: C_16  and  N_17 
REMARK    5  A    between atoms: N_17  and  C_18 
ROOT
HETATM    1  C   UNL     1     -43.643  55.023 -51.641  1.00  0.00     0.156 C 
HETATM    2  N   UNL     1     -42.828  55.235 -52.814  1.00  0.00    -0.346 N 
HETATM    3  C   UNL     1     -42.882  56.310 -53.633  1.00  0.00     0.113 A 
HETATM    4  C   UNL     1     -41.979  56.159 -54.648  1.00  0.00     0.014 A 
HETATM    5  C   UNL     1     -42.012  57.338 -55.551  1.00  0.00     0.158 A 
HETATM    6  N   UNL     1     -42.990  58.192 -54.826  1.00  0.00    -0.325 N 
HETATM    7  C   UNL     1     -43.536  57.573 -53.692  1.00  0.00     0.272 A 
HETATM    8  O   UNL     1     -44.316  58.056 -52.888  1.00  0.00    -0.266 OA
HETATM    9  C   UNL     1     -41.271  54.965 -54.433  1.00  0.00     0.002 A 
HETATM   10  C   UNL     1     -41.819  54.392 -53.267  1.00  0.00     0.045 A 
HETATM   11  C   UNL     1     -40.211  54.311 -55.087  1.00  0.00     0.014 A 
HETATM   12  C   UNL     1     -39.718  53.112 -54.563  1.00  0.00     0.001 A 
HETATM   13  C   UNL     1     -40.270  52.560 -53.410  1.00  0.00     0.002 A 
HETATM   14  C   UNL     1     -41.328  53.185 -52.744  1.00  0.00     0.030 A 
ENDROOT
BRANCH   6  15
HETATM   15  C   UNL     1     -42.871  59.636 -54.874  1.00  0.00     0.229 C 
BRANCH  15  16
HETATM   16  C   UNL     1     -42.318  60.277 -53.610  1.00  0.00     0.235 C 
HETATM   17  N   UNL     1     -43.207  61.098 -52.949  1.00  0.00    -0.355 N 
HETATM   18  H   UNL     1     -44.139  61.193 -53.339  1.00  0.00     0.162 HD
HETATM   19  O   UNL     1     -41.212  59.976 -53.166  1.00  0.00    -0.272 OA
BRANCH  17  20
HETATM   20  C   UNL     1     -42.970  61.481 -51.575  1.00  0.00     0.084 C 
HETATM   21  C   UNL     1     -43.341  62.928 -51.278  1.00  0.00     0.025 C 
HETATM   22  C   UNL     1     -43.451  62.938 -49.760  1.00  0.00     0.002 C 
HETATM   23  C   UNL     1     -44.120  61.612 -49.419  1.00  0.00     0.002 C 
HETATM   24  C   UNL     1     -43.828  60.675 -50.591  1.00  0.00     0.025 C 
ENDBRANCH  17  20
ENDBRANCH  15  16
ENDBRANCH   6  15
BRANCH   5  25
HETATM   25  C   UNL     1     -42.497  56.912 -56.923  1.00  0.00    -0.030 A 
HETATM   26  C   UNL     1     -43.120  55.681 -57.195  1.00  0.00     0.012 A 
HETATM   27  C   UNL     1     -43.531  55.348 -58.489  1.00  0.00     0.037 A 
HETATM   28  C   UNL     1     -43.362  56.242 -59.544  1.00  0.00     0.068 A 
HETATM   29  C   UNL     1     -42.780  57.481 -59.289  1.00  0.00     0.037 A 
HETATM   30  C   UNL     1     -42.352  57.810 -57.996  1.00  0.00     0.012 A 
BRANCH  28  31
HETATM   31  O   UNL     1     -43.804  55.787 -60.755  1.00  0.00    -0.356 OA
HETATM   32  C   UNL     1     -44.915  54.902 -60.743  1.00  0.00     0.210 C 
ENDBRANCH  28  31
ENDBRANCH   5  25
TORSDOF 5
ENDMDL
MODEL 6
REMARK VINA RESULT:      -7.6      2.414      5.799
REMARK  5 active torsions:
REMARK  status: ('A' for Active; 'I' for Inactive)
REMARK    1  A    between atoms: C_5  and  C_6 
REMARK    2  A    between atoms: C_9  and  O_10 
REMARK    3  A    between atoms: N_14  and  C_15 
REMARK    4  A    between atoms: C_15  and  C_16 
REMARK       I    between atoms: C_16  and  N_17 
REMARK    5  A    between atoms: N_17  and  C_18 
ROOT
HETATM    1  C   UNL     1     -41.630  60.189 -50.205  1.00  0.00     0.156 C 
HETATM    2  N   UNL     1     -42.532  59.635 -51.187  1.00  0.00    -0.346 N 
HETATM    3  C   UNL     1     -42.431  58.411 -51.755  1.00  0.00     0.113 A 
HETATM    4  C   UNL     1     -43.448  58.236 -52.651  1.00  0.00     0.014 A 
HETATM    5  C   UNL     1     -43.363  56.891 -53.276  1.00  0.00     0.158 A 
HETATM    6  N   UNL     1     -42.214  56.326 -52.518  1.00  0.00    -0.325 N 
HETATM    7  C   UNL     1     -41.633  57.239 -51.626  1.00  0.00     0.272 A 
HETATM    8  O   UNL     1     -40.718  57.032 -50.846  1.00  0.00    -0.266 OA
HETATM    9  C   UNL     1     -44.274  59.372 -52.607  1.00  0.00     0.002 A 
HETATM   10  C   UNL     1     -43.681  60.248 -51.675  1.00  0.00     0.045 A 
HETATM   11  C   UNL     1     -45.470  59.751 -53.241  1.00  0.00     0.014 A 
HETATM   12  C   UNL     1     -46.052  60.983 -52.928  1.00  0.00     0.001 A 
HETATM   13  C   UNL     1     -45.455  61.836 -52.003  1.00  0.00     0.002 A 
HETATM   14  C   UNL     1     -44.261  61.488 -51.363  1.00  0.00     0.030 A 
ENDROOT
BRANCH   6  15
HETATM   15  C   UNL     1     -42.155  54.905 -52.238  1.00  0.00     0.229 C 
BRANCH  15  16
HETATM   16  C   UNL     1     -40.986  54.172 -52.878  1.00  0.00     0.235 C 
HETATM   17  N   UNL     1     -40.725  52.930 -52.340  1.00  0.00    -0.355 N 
HETATM   18  H   UNL     1     -41.330  52.606 -51.592  1.00  0.00     0.162 HD
HETATM   19  O   UNL     1     -40.415  54.615 -53.873  1.00  0.00    -0.272 OA
BRANCH  17  20
HETATM   20  C   UNL     1     -39.908  51.976 -53.056  1.00  0.00     0.084 C 
HETATM   21  C   UNL     1     -39.621  50.709 -52.263  1.00  0.00     0.025 C 
HETATM   22  C   UNL     1     -39.187  49.730 -53.344  1.00  0.00     0.002 C 
HETATM   23  C   UNL     1     -40.115  50.023 -54.517  1.00  0.00     0.002 C 
HETATM   24  C   UNL     1     -40.596  51.462 -54.328  1.00  0.00     0.025 C 
ENDBRANCH  17  20
ENDBRANCH  15  16
ENDBRANCH   6  15
BRANCH   5  25
HETATM   25  C   UNL     1     -43.083  57.038 -54.759  1.00  0.00    -0.030 A 
HETATM   26  C   UNL     1     -42.627  58.221 -55.364  1.00  0.00     0.012 A 
HETATM   27  C   UNL     1     -42.402  58.289 -56.743  1.00  0.00     0.037 A 
HETATM   28  C   UNL     1     -42.595  57.172 -57.553  1.00  0.00     0.068 A 
HETATM   29  C   UNL     1     -43.012  55.980 -56.968  1.00  0.00     0.037 A 
HETATM   30  C   UNL     1     -43.255  55.915 -55.588  1.00  0.00     0.012 A 
BRANCH  28  31
HETATM   31  O   UNL     1     -42.343  57.379 -58.881  1.00  0.00    -0.356 OA
HETATM   32  C   UNL     1     -42.523  56.270 -59.750  1.00  0.00     0.210 C 
ENDBRANCH  28  31
ENDBRANCH   5  25
TORSDOF 5
ENDMDL
MODEL 7
REMARK VINA RESULT:      -7.5      2.911      6.633
REMARK  5 active torsions:
REMARK  status: ('A' for Active; 'I' for Inactive)
REMARK    1  A    between atoms: C_5  and  C_6 
REMARK    2  A    between atoms: C_9  and  O_10 
REMARK    3  A    between atoms: N_14  and  C_15 
REMARK    4  A    between atoms: C_15  and  C_16 
REMARK       I    between atoms: C_16  and  N_17 
REMARK    5  A    between atoms: N_17  and  C_18 
ROOT
HETATM    1  C   UNL     1     -40.996  53.368 -49.960  1.00  0.00     0.156 C 
HETATM    2  N   UNL     1     -40.912  54.048 -51.230  1.00  0.00    -0.346 N 
HETATM    3  C   UNL     1     -41.068  55.377 -51.430  1.00  0.00     0.113 A 
HETATM    4  C   UNL     1     -40.940  55.660 -52.762  1.00  0.00     0.014 A 
HETATM    5  C   UNL     1     -41.093  57.118 -53.000  1.00  0.00     0.158 A 
HETATM    6  N   UNL     1     -41.223  57.596 -51.597  1.00  0.00    -0.325 N 
HETATM    7  C   UNL     1     -41.236  56.559 -50.654  1.00  0.00     0.272 A 
HETATM    8  O   UNL     1     -41.278  56.663 -49.440  1.00  0.00    -0.266 OA
HETATM    9  C   UNL     1     -40.626  54.468 -53.436  1.00  0.00     0.002 A 
HETATM   10  C   UNL     1     -40.610  53.457 -52.453  1.00  0.00     0.045 A 
HETATM   11  C   UNL     1     -40.333  54.133 -54.770  1.00  0.00     0.014 A 
HETATM   12  C   UNL     1     -40.025  52.807 -55.092  1.00  0.00     0.001 A 
HETATM   13  C   UNL     1     -40.013  51.821 -54.109  1.00  0.00     0.002 A 
HETATM   14  C   UNL     1     -40.307  52.125 -52.776  1.00  0.00     0.030 A 
ENDROOT
BRANCH   6  15
HETATM   15  C   UNL     1     -40.719  58.904 -51.226  1.00  0.00     0.229 C 
BRANCH  15  16
HETATM   16  C   UNL     1     -41.755  60.018 -51.237  1.00  0.00     0.235 C 
HETATM   17  N   UNL     1     -42.225  60.351 -52.490  1.00  0.00    -0.355 N 
HETATM   18  H   UNL     1     -41.864  59.829 -53.281  1.00  0.00     0.162 HD
HETATM   19  O   UNL     1     -42.213  60.482 -50.194  1.00  0.00    -0.272 OA
BRANCH  17  20
HETATM   20  C   UNL     1     -43.446  61.111 -52.638  1.00  0.00     0.084 C 
HETATM   21  C   UNL     1     -43.705  61.568 -54.067  1.00  0.00     0.025 C 
HETATM   22  C   UNL     1     -45.189  61.901 -54.046  1.00  0.00     0.002 C 
HETATM   23  C   UNL     1     -45.812  60.808 -53.185  1.00  0.00     0.002 C 
HETATM   24  C   UNL     1     -44.690  60.284 -52.289  1.00  0.00     0.025 C 
ENDBRANCH  17  20
ENDBRANCH  15  16
ENDBRANCH   6  15
BRANCH   5  25
HETATM   25  C   UNL     1     -42.336  57.368 -53.831  1.00  0.00    -0.030 A 
HETATM   26  C   UNL     1     -42.329  57.956 -55.108  1.00  0.00     0.012 A 
HETATM   27  C   UNL     1     -43.517  58.170 -55.813  1.00  0.00     0.037 A 
HETATM   28  C   UNL     1     -44.743  57.775 -55.282  1.00  0.00     0.068 A 
HETATM   29  C   UNL     1     -44.769  57.157 -54.035  1.00  0.00     0.037 A 
HETATM   30  C   UNL     1     -43.580  56.958 -53.319  1.00  0.00     0.012 A 
BRANCH  28  31
HETATM   31  O   UNL     1     -45.823  58.047 -56.075  1.00  0.00    -0.356 OA
HETATM   32  C   UNL     1     -45.861  59.325 -56.694  1.00  0.00     0.210 C 
ENDBRANCH  28  31
ENDBRANCH   5  25
TORSDOF 5
ENDMDL
MODEL 8
REMARK VINA RESULT:      -7.5      2.396      5.481
REMARK  5 active torsions:
REMARK  status: ('A' for Active; 'I' for Inactive)
REMARK    1  A    between atoms: C_5  and  C_6 
REMARK    2  A    between atoms: C_9  and  O_10 
REMARK    3  A    between atoms: N_14  and  C_15 
REMARK    4  A    between atoms: C_15  and  C_16 
REMARK       I    between atoms: C_16  and  N_17 
REMARK    5  A    between atoms: N_17  and  C_18 
ROOT
HETATM    1  C   UNL     1     -43.773  54.875 -58.708  1.00  0.00     0.156 C 
HETATM    2  N   UNL     1     -43.226  56.054 -58.080  1.00  0.00    -0.346 N 
HETATM    3  C   UNL     1     -42.972  56.203 -56.760  1.00  0.00     0.113 A 
HETATM    4  C   UNL     1     -42.476  57.456 -56.526  1.00  0.00     0.014 A 
HETATM    5  C   UNL     1     -42.176  57.634 -55.083  1.00  0.00     0.158 A 
HETATM    6  N   UNL     1     -42.486  56.268 -54.584  1.00  0.00    -0.325 N 
HETATM    7  C   UNL     1     -42.989  55.413 -55.575  1.00  0.00     0.272 A 
HETATM    8  O   UNL     1     -43.275  54.234 -55.461  1.00  0.00    -0.266 OA
HETATM    9  C   UNL     1     -42.347  58.115 -57.761  1.00  0.00     0.002 A 
HETATM   10  C   UNL     1     -42.825  57.214 -58.735  1.00  0.00     0.045 A 
HETATM   11  C   UNL     1     -41.861  59.370 -58.167  1.00  0.00     0.014 A 
HETATM   12  C   UNL     1     -41.854  59.696 -59.526  1.00  0.00     0.001 A 
HETATM   13  C   UNL     1     -42.328  58.794 -60.476  1.00  0.00     0.002 A 
HETATM   14  C   UNL     1     -42.823  57.542 -60.100  1.00  0.00     0.030 A 
ENDROOT
BRANCH   6  15
HETATM   15  C   UNL     1     -41.749  55.719 -53.463  1.00  0.00     0.229 C 
BRANCH  15  16
HETATM   16  C   UNL     1     -40.663  54.720 -53.835  1.00  0.00     0.235 C 
HETATM   17  N   UNL     1     -40.665  53.565 -53.082  1.00  0.00    -0.355 N 
HETATM   18  H   UNL     1     -41.383  53.469 -52.371  1.00  0.00     0.162 HD
HETATM   19  O   UNL     1     -39.935  54.894 -54.810  1.00  0.00    -0.272 OA
BRANCH  17  20
HETATM   20  C   UNL     1     -39.955  52.391 -53.537  1.00  0.00     0.084 C 
HETATM   21  C   UNL     1     -39.630  51.409 -52.420  1.00  0.00     0.025 C 
HETATM   22  C   UNL     1     -39.338  50.124 -53.180  1.00  0.00     0.002 C 
HETATM   23  C   UNL     1     -40.369  50.103 -54.302  1.00  0.00     0.002 C 
HETATM   24  C   UNL     1     -40.783  51.558 -54.525  1.00  0.00     0.025 C 
ENDBRANCH  17  20
ENDBRANCH  15  16
ENDBRANCH   6  15
BRANCH   5  25
HETATM   25  C   UNL     1     -43.086  58.700 -54.504  1.00  0.00    -0.030 A 
HETATM   26  C   UNL     1     -44.343  58.441 -53.931  1.00  0.00     0.012 A 
HETATM   27  C   UNL     1     -45.136  59.476 -53.428  1.00  0.00     0.037 A 
HETATM   28  C   UNL     1     -44.688  60.795 -53.452  1.00  0.00     0.068 A 
HETATM   29  C   UNL     1     -43.430  61.069 -53.982  1.00  0.00     0.037 A 
HETATM   30  C   UNL     1     -42.641  60.034 -54.503  1.00  0.00     0.012 A 
BRANCH  28  31
HETATM   31  O   UNL     1     -45.565  61.706 -52.931  1.00  0.00    -0.356 OA
HETATM   32  C   UNL     1     -46.826  61.213 -52.502  1.00  0.00     0.210 C 
ENDBRANCH  28  31
ENDBRANCH   5  25
TORSDOF 5
ENDMDL
MODEL 9
REMARK VINA RESULT:      -7.4     15.739     18.822
REMARK  5 active torsions:
REMARK  status: ('A' for Active; 'I' for Inactive)
REMARK    1  A    between atoms: C_5  and  C_6 
REMARK    2  A    between atoms: C_9  and  O_10 
REMARK    3  A    between atoms: N_14  and  C_15 
REMARK    4  A    between atoms: C_15  and  C_16 
REMARK       I    between atoms: C_16  and  N_17 
REMARK    5  A    between atoms: N_17  and  C_18 
ROOT
HETATM    1  C   UNL     1     -37.134  40.076 -51.993  1.00  0.00     0.156 C 
HETATM    2  N   UNL     1     -35.828  40.274 -52.576  1.00  0.00    -0.346 N 
HETATM    3  C   UNL     1     -35.577  40.603 -53.864  1.00  0.00     0.113 A 
HETATM    4  C   UNL     1     -34.227  40.688 -54.062  1.00  0.00     0.014 A 
HETATM    5  C   UNL     1     -33.931  41.063 -55.467  1.00  0.00     0.158 A 
HETATM    6  N   UNL     1     -35.313  41.266 -55.978  1.00  0.00    -0.325 N 
HETATM    7  C   UNL     1     -36.305  40.966 -55.033  1.00  0.00     0.272 A 
HETATM    8  O   UNL     1     -37.511  41.091 -55.161  1.00  0.00    -0.266 OA
HETATM    9  C   UNL     1     -33.588  40.467 -52.830  1.00  0.00     0.002 A 
HETATM   10  C   UNL     1     -34.615  40.207 -51.899  1.00  0.00     0.045 A 
HETATM   11  C   UNL     1     -32.251  40.475 -52.393  1.00  0.00     0.014 A 
HETATM   12  C   UNL     1     -31.969  40.234 -51.044  1.00  0.00     0.001 A 
HETATM   13  C   UNL     1     -32.996  39.981 -50.138  1.00  0.00     0.002 A 
HETATM   14  C   UNL     1     -34.333  39.960 -50.546  1.00  0.00     0.030 A 
ENDROOT
BRANCH   6  15
HETATM   15  C   UNL     1     -35.570  42.254 -57.007  1.00  0.00     0.229 C 
BRANCH  15  16
HETATM   16  C   UNL     1     -36.449  41.775 -58.152  1.00  0.00     0.235 C 
HETATM   17  N   UNL     1     -36.635  40.409 -58.198  1.00  0.00    -0.355 N 
HETATM   18  H   UNL     1     -36.197  39.850 -57.473  1.00  0.00     0.162 HD
HETATM   19  O   UNL     1     -37.036  42.566 -58.888  1.00  0.00    -0.272 OA
BRANCH  17  20
HETATM   20  C   UNL     1     -37.711  39.841 -58.980  1.00  0.00     0.084 C 
HETATM   21  C   UNL     1     -37.294  39.458 -60.394  1.00  0.00     0.025 C 
HETATM   22  C   UNL     1     -38.397  38.500 -60.818  1.00  0.00     0.002 C 
HETATM   23  C   UNL     1     -38.685  37.674 -59.570  1.00  0.00     0.002 C 
HETATM   24  C   UNL     1     -38.230  38.525 -58.385  1.00  0.00     0.025 C 
ENDBRANCH  17  20
ENDBRANCH  15  16
ENDBRANCH   6  15
BRANCH   5  25
HETATM   25  C   UNL     1     -33.204  39.923 -56.154  1.00  0.00    -0.030 A 
HETATM   26  C   UNL     1     -33.846  38.842 -56.784  1.00  0.00     0.012 A 
HETATM   27  C   UNL     1     -33.111  37.816 -57.387  1.00  0.00     0.037 A 
HETATM   28  C   UNL     1     -31.719  37.853 -57.408  1.00  0.00     0.068 A 
HETATM   29  C   UNL     1     -31.065  38.933 -56.822  1.00  0.00     0.037 A 
HETATM   30  C   UNL     1     -31.799  39.954 -56.201  1.00  0.00     0.012 A 
BRANCH  28  31
HETATM   31  O   UNL     1     -31.128  36.786 -58.026  1.00  0.00    -0.356 OA
HETATM   32  C   UNL     1     -30.836  36.925 -59.410  1.00  0.00     0.210 C 
ENDBRANCH  28  31
ENDBRANCH   5  25
TORSDOF 5
ENDMDL
MODEL 10
REMARK VINA RESULT:      -7.4      3.368      6.599
REMARK  5 active torsions:
REMARK  status: ('A' for Active; 'I' for Inactive)
REMARK    1  A    between atoms: C_5  and  C_6 
REMARK    2  A    between atoms: C_9  and  O_10 
REMARK    3  A    between atoms: N_14  and  C_15 
REMARK    4  A    between atoms: C_15  and  C_16 
REMARK       I    between atoms: C_16  and  N_17 
REMARK    5  A    between atoms: N_17  and  C_18 
ROOT
HETATM    1  C   UNL     1     -42.155  54.821 -50.411  1.00  0.00     0.156 C 
HETATM    2  N   UNL     1     -41.814  55.225 -51.754  1.00  0.00    -0.346 N 
HETATM    3  C   UNL     1     -41.956  56.468 -52.268  1.00  0.00     0.113 A 
HETATM    4  C   UNL     1     -41.548  56.475 -53.573  1.00  0.00     0.014 A 
HETATM    5  C   UNL     1     -41.683  57.836 -54.152  1.00  0.00     0.158 A 
HETATM    6  N   UNL     1     -42.128  58.586 -52.947  1.00  0.00    -0.325 N 
HETATM    7  C   UNL     1     -42.321  57.771 -51.823  1.00  0.00     0.272 A 
HETATM    8  O   UNL     1     -42.631  58.123 -50.697  1.00  0.00    -0.266 OA
HETATM    9  C   UNL     1     -41.062  55.195 -53.888  1.00  0.00     0.002 A 
HETATM   10  C   UNL     1     -41.236  54.415 -52.726  1.00  0.00     0.045 A 
HETATM   11  C   UNL     1     -40.476  54.611 -55.025  1.00  0.00     0.014 A 
HETATM   12  C   UNL     1     -40.071  53.273 -54.977  1.00  0.00     0.001 A 
HETATM   13  C   UNL     1     -40.248  52.518 -53.821  1.00  0.00     0.002 A 
HETATM   14  C   UNL     1     -40.835  53.071 -52.679  1.00  0.00     0.030 A 
ENDROOT
BRANCH   6  15
HETATM   15  C   UNL     1     -41.752  59.976 -52.776  1.00  0.00     0.229 C 
BRANCH  15  16
HETATM   16  C   UNL     1     -42.882  60.898 -52.340  1.00  0.00     0.235 C 
HETATM   17  N   UNL     1     -42.857  61.242 -51.005  1.00  0.00    -0.355 N 
HETATM   18  H   UNL     1     -42.098  60.876 -50.439  1.00  0.00     0.162 HD
HETATM   19  O   UNL     1     -43.666  61.383 -53.153  1.00  0.00    -0.272 OA
BRANCH  17  20
HETATM   20  C   UNL     1     -43.621  62.371 -50.524  1.00  0.00     0.084 C 
HETATM   21  C   UNL     1     -44.278  62.125 -49.173  1.00  0.00     0.025 C 
HETATM   22  C   UNL     1     -44.593  63.535 -48.694  1.00  0.00     0.002 C 
HETATM   23  C   UNL     1     -43.382  64.359 -49.116  1.00  0.00     0.002 C 
HETATM   24  C   UNL     1     -42.742  63.606 -50.283  1.00  0.00     0.025 C 
ENDBRANCH  17  20
ENDBRANCH  15  16
ENDBRANCH   6  15
BRANCH   5  25
HETATM   25  C   UNL     1     -42.720  57.816 -55.258  1.00  0.00    -0.030 A 
HETATM   26  C   UNL     1     -42.457  57.423 -56.582  1.00  0.00     0.012 A 
HETATM   27  C   UNL     1     -43.460  57.442 -57.555  1.00  0.00     0.037 A 
HETATM   28  C   UNL     1     -44.761  57.822 -57.231  1.00  0.00     0.068 A 
HETATM   29  C   UNL     1     -45.051  58.180 -55.918  1.00  0.00     0.037 A 
HETATM   30  C   UNL     1     -44.042  58.179 -54.945  1.00  0.00     0.012 A 
BRANCH  28  31
HETATM   31  O   UNL     1     -45.641  57.799 -58.279  1.00  0.00    -0.356 OA
HETATM   32  C   UNL     1     -47.014  57.989 -57.969  1.00  0.00     0.210 C 
ENDBRANCH  28  31
ENDBRANCH   5  25
TORSDOF 5
ENDMDL
