MODEL 1
REMARK VINA RESULT:      -7.5      0.000      0.000
REMARK  7 active torsions:
REMARK  status: ('A' for Active; 'I' for Inactive)
REMARK       I    between atoms: C_2  and  N_3 
REMARK    1  A    between atoms: N_3  and  C_4 
REMARK    2  A    between atoms: C_7  and  N_8 
REMARK       I    between atoms: N_8  and  C_9 
REMARK    3  A    between atoms: C_9  and  C_10 
REMARK    4  A    between atoms: C_11  and  C_12 
REMARK    5  A    between atoms: C_13  and  O_14 
REMARK    6  A    between atoms: N_20  and  C_21 
REMARK    7  A    between atoms: C_24  and  O_25 
ROOT
HETATM    1  C   UNL     1     -42.416  57.333 -57.542  1.00  0.00     0.106 C 
HETATM    2  C   UNL     1     -43.270  58.303 -56.702  1.00  0.00     0.142 C 
HETATM    3  N   UNL     1     -42.475  59.531 -56.423  1.00  0.00    -0.308 N 
HETATM    4  C   UNL     1     -41.822  60.204 -57.458  1.00  0.00     0.225 C 
HETATM    5  O   UNL     1     -41.504  61.394 -57.454  1.00  0.00    -0.273 OA
HETATM    6  C   UNL     1     -41.272  59.324 -58.575  1.00  0.00     0.104 C 
HETATM    7  C   UNL     1     -41.943  57.987 -58.831  1.00  0.00     0.026 C 
ENDROOT
BRANCH   1   8
HETATM    8  C   UNL     1     -43.082  56.010 -57.865  1.00  0.00     0.228 C 
HETATM    9  N   UNL     1     -43.132  54.965 -56.992  1.00  0.00    -0.327 N 
HETATM   10  H   UNL     1     -43.653  54.213 -57.432  1.00  0.00     0.169 HD
HETATM   11  O   UNL     1     -43.564  55.786 -58.980  1.00  0.00    -0.273 OA
BRANCH   9  12
HETATM   12  C   UNL     1     -42.748  54.725 -55.662  1.00  0.00     0.034 A 
HETATM   13  C   UNL     1     -43.574  54.712 -54.543  1.00  0.00     0.032 A 
HETATM   14  C   UNL     1     -43.074  54.351 -53.280  1.00  0.00     0.032 A 
HETATM   15  C   UNL     1     -41.730  54.028 -53.105  1.00  0.00     0.034 A 
HETATM   16  C   UNL     1     -40.879  54.122 -54.207  1.00  0.00     0.032 A 
HETATM   17  C   UNL     1     -41.383  54.466 -55.466  1.00  0.00     0.032 A 
BRANCH  15  18
HETATM   18  N   UNL     1     -41.166  53.598 -51.888  1.00  0.00    -0.328 N 
HETATM   19  C   UNL     1     -40.806  54.383 -50.807  1.00  0.00     0.218 C 
HETATM   20  C   UNL     1     -40.307  53.570 -49.638  1.00  0.00     0.117 C 
HETATM   21  O   UNL     1     -40.895  55.603 -50.723  1.00  0.00    -0.274 OA
HETATM   22  H   UNL     1     -41.076  52.597 -51.772  1.00  0.00     0.169 HD
ENDBRANCH  15  18
ENDBRANCH   9  12
ENDBRANCH   1   8
BRANCH   2  23
HETATM   23  C   UNL     1     -44.681  58.658 -57.204  1.00  0.00    -0.001 A 
HETATM   24  C   UNL     1     -45.826  58.194 -56.511  1.00  0.00     0.076 A 
HETATM   25  C   UNL     1     -47.109  58.466 -57.008  1.00  0.00     0.037 A 
HETATM   26  C   UNL     1     -47.279  59.214 -58.172  1.00  0.00     0.003 A 
HETATM   27  C   UNL     1     -46.168  59.708 -58.841  1.00  0.00     0.001 A 
HETATM   28  C   UNL     1     -44.885  59.440 -58.359  1.00  0.00     0.012 A 
BRANCH  24  29
HETATM   29  O   UNL     1     -45.599  57.463 -55.370  1.00  0.00    -0.355 OA
HETATM   30  C   UNL     1     -45.307  58.184 -54.180  1.00  0.00     0.210 C 
ENDBRANCH  24  29
ENDBRANCH   2  23
BRANCH   3  31
HETATM   31  C   UNL     1     -42.295  59.960 -55.066  1.00  0.00     0.038 A 
HETATM   32  C   UNL     1     -41.506  59.239 -54.165  1.00  0.00     0.032 A 
HETATM   33  C   UNL     1     -41.460  59.586 -52.809  1.00  0.00     0.039 A 
HETATM   34  C   UNL     1     -42.228  60.640 -52.320  1.00  0.00     0.068 A 
HETATM   35  C   UNL     1     -42.991  61.391 -53.209  1.00  0.00     0.039 A 
HETATM   36  C   UNL     1     -43.018  61.056 -54.571  1.00  0.00     0.032 A 
BRANCH  34  37
HETATM   37  O   UNL     1     -42.149  60.849 -50.971  1.00  0.00    -0.356 OA
HETATM   38  C   UNL     1     -41.387  59.893 -50.240  1.00  0.00     0.210 C 
ENDBRANCH  34  37
ENDBRANCH   3  31
TORSDOF 7
ENDMDL
MODEL 2
REMARK VINA RESULT:      -7.4      2.802      7.862
REMARK  7 active torsions:
REMARK  status: ('A' for Active; 'I' for Inactive)
REMARK       I    between atoms: C_2  and  N_3 
REMARK    1  A    between atoms: N_3  and  C_4 
REMARK    2  A    between atoms: C_7  and  N_8 
REMARK       I    between atoms: N_8  and  C_9 
REMARK    3  A    between atoms: C_9  and  C_10 
REMARK    4  A    between atoms: C_11  and  C_12 
REMARK    5  A    between atoms: C_13  and  O_14 
REMARK    6  A    between atoms: N_20  and  C_21 
REMARK    7  A    between atoms: C_24  and  O_25 
ROOT
HETATM    1  C   UNL     1     -43.940  56.385 -52.681  1.00  0.00     0.106 C 
HETATM    2  C   UNL     1     -42.464  55.988 -52.481  1.00  0.00     0.142 C 
HETATM    3  N   UNL     1     -42.009  55.203 -53.661  1.00  0.00    -0.308 N 
HETATM    4  C   UNL     1     -42.230  55.677 -54.957  1.00  0.00     0.225 C 
HETATM    5  O   UNL     1     -41.576  55.373 -55.955  1.00  0.00    -0.273 OA
HETATM    6  C   UNL     1     -43.525  56.454 -55.164  1.00  0.00     0.104 C 
HETATM    7  C   UNL     1     -44.131  57.169 -53.970  1.00  0.00     0.026 C 
ENDROOT
BRANCH   1   8
HETATM    8  C   UNL     1     -44.557  57.154 -51.529  1.00  0.00     0.228 C 
HETATM    9  N   UNL     1     -44.632  58.514 -51.493  1.00  0.00    -0.327 N 
HETATM   10  H   UNL     1     -45.110  58.779 -50.637  1.00  0.00     0.169 HD
HETATM   11  O   UNL     1     -44.970  56.578 -50.518  1.00  0.00    -0.273 OA
BRANCH   9  12
HETATM   12  C   UNL     1     -44.319  59.578 -52.354  1.00  0.00     0.034 A 
HETATM   13  C   UNL     1     -43.157  60.342 -52.351  1.00  0.00     0.032 A 
HETATM   14  C   UNL     1     -42.928  61.312 -53.342  1.00  0.00     0.032 A 
HETATM   15  C   UNL     1     -43.872  61.561 -54.336  1.00  0.00     0.034 A 
HETATM   16  C   UNL     1     -45.076  60.858 -54.294  1.00  0.00     0.032 A 
HETATM   17  C   UNL     1     -45.294  59.881 -53.316  1.00  0.00     0.032 A 
BRANCH  15  18
HETATM   18  N   UNL     1     -43.691  62.471 -55.396  1.00  0.00    -0.328 N 
HETATM   19  C   UNL     1     -43.044  62.243 -56.597  1.00  0.00     0.218 C 
HETATM   20  C   UNL     1     -43.115  63.427 -57.531  1.00  0.00     0.117 C 
HETATM   21  O   UNL     1     -42.490  61.206 -56.948  1.00  0.00    -0.274 OA
HETATM   22  H   UNL     1     -44.143  63.370 -55.287  1.00  0.00     0.169 HD
ENDBRANCH  15  18
ENDBRANCH   9  12
ENDBRANCH   1   8
BRANCH   2  23
HETATM   23  C   UNL     1     -41.451  57.092 -52.125  1.00  0.00    -0.001 A 
HETATM   24  C   UNL     1     -41.139  57.369 -50.771  1.00  0.00     0.076 A 
HETATM   25  C   UNL     1     -40.265  58.417 -50.449  1.00  0.00     0.037 A 
HETATM   26  C   UNL     1     -39.674  59.185 -51.451  1.00  0.00     0.003 A 
HETATM   27  C   UNL     1     -39.940  58.902 -52.783  1.00  0.00     0.001 A 
HETATM   28  C   UNL     1     -40.813  57.864 -53.116  1.00  0.00     0.012 A 
BRANCH  24  29
HETATM   29  O   UNL     1     -41.750  56.580 -49.826  1.00  0.00    -0.355 OA
HETATM   30  C   UNL     1     -41.011  55.474 -49.322  1.00  0.00     0.210 C 
ENDBRANCH  24  29
ENDBRANCH   2  23
BRANCH   3  31
HETATM   31  C   UNL     1     -41.435  53.904 -53.464  1.00  0.00     0.038 A 
HETATM   32  C   UNL     1     -40.664  53.604 -52.337  1.00  0.00     0.032 A 
HETATM   33  C   UNL     1     -39.988  52.382 -52.231  1.00  0.00     0.039 A 
HETATM   34  C   UNL     1     -40.043  51.448 -53.263  1.00  0.00     0.068 A 
HETATM   35  C   UNL     1     -40.835  51.715 -54.375  1.00  0.00     0.039 A 
HETATM   36  C   UNL     1     -41.529  52.930 -54.470  1.00  0.00     0.032 A 
BRANCH  34  37
HETATM   37  O   UNL     1     -39.296  50.318 -53.075  1.00  0.00    -0.356 OA
HETATM   38  C   UNL     1     -39.632  49.538 -51.931  1.00  0.00     0.210 C 
ENDBRANCH  34  37
ENDBRANCH   3  31
TORSDOF 7
ENDMDL
MODEL 3
REMARK VINA RESULT:      -6.9      2.696      6.681
REMARK  7 active torsions:
REMARK  status: ('A' for Active; 'I' for Inactive)
REMARK       I    between atoms: C_2  and  N_3 
REMARK    1  A    between atoms: N_3  and  C_4 
REMARK    2  A    between atoms: C_7  and  N_8 
REMARK       I    between atoms: N_8  and  C_9 
REMARK    3  A    between atoms: C_9  and  C_10 
REMARK    4  A    between atoms: C_11  and  C_12 
REMARK    5  A    between atoms: C_13  and  O_14 
REMARK    6  A    between atoms: N_20  and  C_21 
REMARK    7  A    between atoms: C_24  and  O_25 
ROOT
HETATM    1  C   UNL     1     -45.050  58.768 -51.857  1.00  0.00     0.106 C 
HETATM    2  C   UNL     1     -43.955  59.649 -52.489  1.00  0.00     0.142 C 
HETATM    3  N   UNL     1     -44.448  61.052 -52.570  1.00  0.00    -0.308 N 
HETATM    4  C   UNL     1     -45.009  61.673 -51.452  1.00  0.00     0.225 C 
HETATM    5  O   UNL     1     -45.064  62.888 -51.257  1.00  0.00    -0.273 OA
HETATM    6  C   UNL     1     -45.807  60.765 -50.523  1.00  0.00     0.104 C 
HETATM    7  C   UNL     1     -45.456  59.290 -50.486  1.00  0.00     0.026 C 
ENDROOT
BRANCH   1   8
HETATM    8  C   UNL     1     -44.705  57.296 -51.752  1.00  0.00     0.228 C 
HETATM    9  N   UNL     1     -44.425  56.515 -52.833  1.00  0.00    -0.327 N 
HETATM   10  H   UNL     1     -44.199  55.583 -52.497  1.00  0.00     0.169 HD
HETATM   11  O   UNL     1     -44.726  56.704 -50.668  1.00  0.00    -0.273 OA
BRANCH   9  12
HETATM   12  C   UNL     1     -44.277  56.701 -54.217  1.00  0.00     0.034 A 
HETATM   13  C   UNL     1     -44.956  57.615 -55.015  1.00  0.00     0.032 A 
HETATM   14  C   UNL     1     -44.633  57.768 -56.375  1.00  0.00     0.032 A 
HETATM   15  C   UNL     1     -43.646  56.984 -56.971  1.00  0.00     0.034 A 
HETATM   16  C   UNL     1     -43.023  56.006 -56.197  1.00  0.00     0.032 A 
HETATM   17  C   UNL     1     -43.335  55.868 -54.839  1.00  0.00     0.032 A 
BRANCH  15  18
HETATM   18  N   UNL     1     -43.224  57.118 -58.308  1.00  0.00    -0.328 N 
HETATM   19  C   UNL     1     -42.310  58.025 -58.812  1.00  0.00     0.218 C 
HETATM   20  C   UNL     1     -42.040  57.823 -60.284  1.00  0.00     0.117 C 
HETATM   21  O   UNL     1     -41.715  58.895 -58.185  1.00  0.00    -0.274 OA
HETATM   22  H   UNL     1     -43.585  56.429 -58.955  1.00  0.00     0.169 HD
ENDBRANCH  15  18
ENDBRANCH   9  12
ENDBRANCH   1   8
BRANCH   2  23
HETATM   23  C   UNL     1     -42.537  59.594 -51.892  1.00  0.00    -0.001 A 
HETATM   24  C   UNL     1     -41.457  59.087 -52.656  1.00  0.00     0.076 A 
HETATM   25  C   UNL     1     -40.180  58.979 -52.087  1.00  0.00     0.037 A 
HETATM   26  C   UNL     1     -39.947  59.390 -50.776  1.00  0.00     0.003 A 
HETATM   27  C   UNL     1     -40.986  59.924 -50.026  1.00  0.00     0.001 A 
HETATM   28  C   UNL     1     -42.263  60.031 -50.580  1.00  0.00     0.012 A 
BRANCH  24  29
HETATM   29  O   UNL     1     -41.743  58.700 -53.943  1.00  0.00    -0.355 OA
HETATM   30  C   UNL     1     -41.663  59.692 -54.958  1.00  0.00     0.210 C 
ENDBRANCH  24  29
ENDBRANCH   2  23
BRANCH   3  31
HETATM   31  C   UNL     1     -44.441  61.728 -53.835  1.00  0.00     0.038 A 
HETATM   32  C   UNL     1     -45.287  61.342 -54.880  1.00  0.00     0.032 A 
HETATM   33  C   UNL     1     -45.165  61.911 -56.154  1.00  0.00     0.039 A 
HETATM   34  C   UNL     1     -44.175  62.854 -56.418  1.00  0.00     0.068 A 
HETATM   35  C   UNL     1     -43.349  63.276 -55.381  1.00  0.00     0.039 A 
HETATM   36  C   UNL     1     -43.487  62.722 -54.100  1.00  0.00     0.032 A 
BRANCH  34  37
HETATM   37  O   UNL     1     -44.112  63.296 -57.710  1.00  0.00    -0.356 OA
HETATM   38  C   UNL     1     -43.748  62.319 -58.681  1.00  0.00     0.210 C 
ENDBRANCH  34  37
ENDBRANCH   3  31
TORSDOF 7
ENDMDL
MODEL 4
REMARK VINA RESULT:      -6.9      3.038      5.780
REMARK  7 active torsions:
REMARK  status: ('A' for Active; 'I' for Inactive)
REMARK       I    between atoms: C_2  and  N_3 
REMARK    1  A    between atoms: N_3  and  C_4 
REMARK    2  A    between atoms: C_7  and  N_8 
REMARK       I    between atoms: N_8  and  C_9 
REMARK    3  A    between atoms: C_9  and  C_10 
REMARK    4  A    between atoms: C_11  and  C_12 
REMARK    5  A    between atoms: C_13  and  O_14 
REMARK    6  A    between atoms: N_20  and  C_21 
REMARK    7  A    between atoms: C_24  and  O_25 
ROOT
HETATM    1  C   UNL     1     -44.522  58.204 -57.629  1.00  0.00     0.106 C 
HETATM    2  C   UNL     1     -44.679  58.761 -59.058  1.00  0.00     0.142 C 
HETATM    3  N   UNL     1     -43.358  58.712 -59.745  1.00  0.00    -0.308 N 
HETATM    4  C   UNL     1     -42.600  57.539 -59.743  1.00  0.00     0.225 C 
HETATM    5  O   UNL     1     -41.745  57.234 -60.576  1.00  0.00    -0.273 OA
HETATM    6  C   UNL     1     -42.698  56.690 -58.480  1.00  0.00     0.104 C 
HETATM    7  C   UNL     1     -43.962  56.790 -57.646  1.00  0.00     0.026 C 
ENDROOT
BRANCH   1   8
HETATM    8  C   UNL     1     -45.784  58.235 -56.789  1.00  0.00     0.228 C 
HETATM    9  N   UNL     1     -45.775  58.212 -55.427  1.00  0.00    -0.327 N 
HETATM   10  H   UNL     1     -46.738  58.269 -55.107  1.00  0.00     0.169 HD
HETATM   11  O   UNL     1     -46.904  58.214 -57.308  1.00  0.00    -0.273 OA
BRANCH   9  12
HETATM   12  C   UNL     1     -44.807  58.232 -54.410  1.00  0.00     0.034 A 
HETATM   13  C   UNL     1     -44.176  57.135 -53.835  1.00  0.00     0.032 A 
HETATM   14  C   UNL     1     -43.143  57.305 -52.896  1.00  0.00     0.032 A 
HETATM   15  C   UNL     1     -42.746  58.577 -52.489  1.00  0.00     0.034 A 
HETATM   16  C   UNL     1     -43.434  59.679 -52.997  1.00  0.00     0.032 A 
HETATM   17  C   UNL     1     -44.450  59.506 -53.944  1.00  0.00     0.032 A 
BRANCH  15  18
HETATM   18  N   UNL     1     -41.683  58.832 -51.600  1.00  0.00    -0.328 N 
HETATM   19  C   UNL     1     -40.365  59.099 -51.924  1.00  0.00     0.218 C 
HETATM   20  C   UNL     1     -39.518  59.404 -50.712  1.00  0.00     0.117 C 
HETATM   21  O   UNL     1     -39.878  59.140 -53.048  1.00  0.00    -0.274 OA
HETATM   22  H   UNL     1     -41.931  58.889 -50.620  1.00  0.00     0.169 HD
ENDBRANCH  15  18
ENDBRANCH   9  12
ENDBRANCH   1   8
BRANCH   2  23
HETATM   23  C   UNL     1     -45.789  58.180 -59.952  1.00  0.00    -0.001 A 
HETATM   24  C   UNL     1     -46.730  59.038 -60.574  1.00  0.00     0.076 A 
HETATM   25  C   UNL     1     -47.779  58.501 -61.335  1.00  0.00     0.037 A 
HETATM   26  C   UNL     1     -47.898  57.123 -61.512  1.00  0.00     0.003 A 
HETATM   27  C   UNL     1     -46.963  56.272 -60.940  1.00  0.00     0.001 A 
HETATM   28  C   UNL     1     -45.917  56.795 -60.176  1.00  0.00     0.012 A 
BRANCH  24  29
HETATM   29  O   UNL     1     -46.563  60.386 -60.367  1.00  0.00    -0.355 OA
HETATM   30  C   UNL     1     -46.693  61.241 -61.496  1.00  0.00     0.210 C 
ENDBRANCH  24  29
ENDBRANCH   2  23
BRANCH   3  31
HETATM   31  C   UNL     1     -42.819  59.911 -60.318  1.00  0.00     0.038 A 
HETATM   32  C   UNL     1     -43.093  60.284 -61.637  1.00  0.00     0.032 A 
HETATM   33  C   UNL     1     -42.441  61.374 -62.229  1.00  0.00     0.039 A 
HETATM   34  C   UNL     1     -41.479  62.093 -61.524  1.00  0.00     0.068 A 
HETATM   35  C   UNL     1     -41.221  61.759 -60.198  1.00  0.00     0.039 A 
HETATM   36  C   UNL     1     -41.890  60.681 -59.600  1.00  0.00     0.032 A 
BRANCH  34  37
HETATM   37  O   UNL     1     -40.867  63.097 -62.221  1.00  0.00    -0.356 OA
HETATM   38  C   UNL     1     -39.459  62.964 -62.390  1.00  0.00     0.210 C 
ENDBRANCH  34  37
ENDBRANCH   3  31
TORSDOF 7
ENDMDL
MODEL 5
REMARK VINA RESULT:      -6.8      2.376      3.695
REMARK  7 active torsions:
REMARK  status: ('A' for Active; 'I' for Inactive)
REMARK       I    between atoms: C_2  and  N_3 
REMARK    1  A    between atoms: N_3  and  C_4 
REMARK    2  A    between atoms: C_7  and  N_8 
REMARK       I    between atoms: N_8  and  C_9 
REMARK    3  A    between atoms: C_9  and  C_10 
REMARK    4  A    between atoms: C_11  and  C_12 
REMARK    5  A    between atoms: C_13  and  O_14 
REMARK    6  A    between atoms: N_20  and  C_21 
REMARK    7  A    between atoms: C_24  and  O_25 
ROOT
HETATM    1  C   UNL     1     -43.006  57.162 -54.619  1.00  0.00     0.106 C 
HETATM    2  C   UNL     1     -43.802  58.312 -55.265  1.00  0.00     0.142 C 
HETATM    3  N   UNL     1     -43.708  59.516 -54.393  1.00  0.00    -0.308 N 
HETATM    4  C   UNL     1     -42.467  59.961 -53.930  1.00  0.00     0.225 C 
HETATM    5  O   UNL     1     -42.202  61.112 -53.579  1.00  0.00    -0.273 OA
HETATM    6  C   UNL     1     -41.443  58.871 -53.633  1.00  0.00     0.104 C 
HETATM    7  C   UNL     1     -41.557  57.557 -54.382  1.00  0.00     0.026 C 
ENDROOT
BRANCH   1   8
HETATM    8  C   UNL     1     -43.051  55.849 -55.378  1.00  0.00     0.228 C 
HETATM    9  N   UNL     1     -42.571  54.678 -54.874  1.00  0.00    -0.327 N 
HETATM   10  H   UNL     1     -42.744  53.948 -55.558  1.00  0.00     0.169 HD
HETATM   11  O   UNL     1     -43.473  55.788 -56.537  1.00  0.00    -0.273 OA
BRANCH   9  12
HETATM   12  C   UNL     1     -42.018  54.237 -53.660  1.00  0.00     0.034 A 
HETATM   13  C   UNL     1     -40.716  53.802 -53.444  1.00  0.00     0.032 A 
HETATM   14  C   UNL     1     -40.264  53.489 -52.150  1.00  0.00     0.032 A 
HETATM   15  C   UNL     1     -41.117  53.572 -51.051  1.00  0.00     0.034 A 
HETATM   16  C   UNL     1     -42.448  53.925 -51.274  1.00  0.00     0.032 A 
HETATM   17  C   UNL     1     -42.890  54.253 -52.561  1.00  0.00     0.032 A 
BRANCH  15  18
HETATM   18  N   UNL     1     -40.725  53.334 -49.719  1.00  0.00    -0.328 N 
HETATM   19  C   UNL     1     -40.712  54.239 -48.674  1.00  0.00     0.218 C 
HETATM   20  C   UNL     1     -40.309  53.609 -47.363  1.00  0.00     0.117 C 
HETATM   21  O   UNL     1     -41.023  55.425 -48.724  1.00  0.00    -0.274 OA
HETATM   22  H   UNL     1     -40.489  52.376 -49.494  1.00  0.00     0.169 HD
ENDBRANCH  15  18
ENDBRANCH   9  12
ENDBRANCH   1   8
BRANCH   2  23
HETATM   23  C   UNL     1     -43.512  58.669 -56.734  1.00  0.00    -0.001 A 
HETATM   24  C   UNL     1     -44.542  58.603 -57.705  1.00  0.00     0.076 A 
HETATM   25  C   UNL     1     -44.259  58.867 -59.053  1.00  0.00     0.037 A 
HETATM   26  C   UNL     1     -42.972  59.219 -59.455  1.00  0.00     0.003 A 
HETATM   27  C   UNL     1     -41.960  59.324 -58.511  1.00  0.00     0.001 A 
HETATM   28  C   UNL     1     -42.229  59.059 -57.167  1.00  0.00     0.012 A 
BRANCH  24  29
HETATM   29  O   UNL     1     -45.791  58.253 -57.252  1.00  0.00    -0.355 OA
HETATM   30  C   UNL     1     -46.912  58.763 -57.964  1.00  0.00     0.210 C 
ENDBRANCH  24  29
ENDBRANCH   2  23
BRANCH   3  31
HETATM   31  C   UNL     1     -44.911  60.155 -53.943  1.00  0.00     0.038 A 
HETATM   32  C   UNL     1     -45.522  61.174 -54.679  1.00  0.00     0.032 A 
HETATM   33  C   UNL     1     -46.607  61.889 -54.156  1.00  0.00     0.039 A 
HETATM   34  C   UNL     1     -47.083  61.621 -52.875  1.00  0.00     0.068 A 
HETATM   35  C   UNL     1     -46.510  60.586 -52.144  1.00  0.00     0.039 A 
HETATM   36  C   UNL     1     -45.438  59.856 -52.677  1.00  0.00     0.032 A 
BRANCH  34  37
HETATM   37  O   UNL     1     -48.106  62.421 -52.448  1.00  0.00    -0.356 OA
HETATM   38  C   UNL     1     -49.391  62.123 -52.985  1.00  0.00     0.210 C 
ENDBRANCH  34  37
ENDBRANCH   3  31
TORSDOF 7
ENDMDL
MODEL 6
REMARK VINA RESULT:      -6.7      2.380      5.875
REMARK  7 active torsions:
REMARK  status: ('A' for Active; 'I' for Inactive)
REMARK       I    between atoms: C_2  and  N_3 
REMARK    1  A    between atoms: N_3  and  C_4 
REMARK    2  A    between atoms: C_7  and  N_8 
REMARK       I    between atoms: N_8  and  C_9 
REMARK    3  A    between atoms: C_9  and  C_10 
REMARK    4  A    between atoms: C_11  and  C_12 
REMARK    5  A    between atoms: C_13  and  O_14 
REMARK    6  A    between atoms: N_20  and  C_21 
REMARK    7  A    between atoms: C_24  and  O_25 
ROOT
HETATM    1  C   UNL     1     -44.997  58.688 -52.414  1.00  0.00     0.106 C 
HETATM    2  C   UNL     1     -43.583  58.704 -53.027  1.00  0.00     0.142 C 
HETATM    3  N   UNL     1     -43.611  59.493 -54.290  1.00  0.00    -0.308 N 
HETATM    4  C   UNL     1     -44.186  60.767 -54.318  1.00  0.00     0.225 C 
HETATM    5  O   UNL     1     -43.919  61.658 -55.126  1.00  0.00    -0.273 OA
HETATM    6  C   UNL     1     -45.393  60.967 -53.408  1.00  0.00     0.104 C 
HETATM    7  C   UNL     1     -45.510  60.099 -52.170  1.00  0.00     0.026 C 
ENDROOT
BRANCH   1   8
HETATM    8  C   UNL     1     -45.132  57.876 -51.141  1.00  0.00     0.228 C 
HETATM    9  N   UNL     1     -44.699  56.589 -51.025  1.00  0.00    -0.327 N 
HETATM   10  H   UNL     1     -44.878  56.282 -50.073  1.00  0.00     0.169 HD
HETATM   11  O   UNL     1     -45.712  58.326 -50.147  1.00  0.00    -0.273 OA
BRANCH   9  12
HETATM   12  C   UNL     1     -44.008  55.667 -51.828  1.00  0.00     0.034 A 
HETATM   13  C   UNL     1     -44.112  55.515 -53.206  1.00  0.00     0.032 A 
HETATM   14  C   UNL     1     -43.279  54.620 -53.900  1.00  0.00     0.032 A 
HETATM   15  C   UNL     1     -42.348  53.834 -53.223  1.00  0.00     0.034 A 
HETATM   16  C   UNL     1     -42.299  53.919 -51.832  1.00  0.00     0.032 A 
HETATM   17  C   UNL     1     -43.118  54.824 -51.146  1.00  0.00     0.032 A 
BRANCH  15  18
HETATM   18  N   UNL     1     -41.439  52.961 -53.850  1.00  0.00    -0.328 N 
HETATM   19  C   UNL     1     -40.325  52.364 -53.288  1.00  0.00     0.218 C 
HETATM   20  C   UNL     1     -39.627  51.421 -54.238  1.00  0.00     0.117 C 
HETATM   21  O   UNL     1     -39.915  52.507 -52.141  1.00  0.00    -0.274 OA
HETATM   22  H   UNL     1     -41.667  52.693 -54.799  1.00  0.00     0.169 HD
ENDBRANCH  15  18
ENDBRANCH   9  12
ENDBRANCH   1   8
BRANCH   2  23
HETATM   23  C   UNL     1     -42.403  59.129 -52.134  1.00  0.00    -0.001 A 
HETATM   24  C   UNL     1     -41.250  58.311 -52.034  1.00  0.00     0.076 A 
HETATM   25  C   UNL     1     -40.205  58.670 -51.170  1.00  0.00     0.037 A 
HETATM   26  C   UNL     1     -40.272  59.842 -50.419  1.00  0.00     0.003 A 
HETATM   27  C   UNL     1     -41.378  60.672 -50.535  1.00  0.00     0.001 A 
HETATM   28  C   UNL     1     -42.427  60.323 -51.387  1.00  0.00     0.012 A 
BRANCH  24  29
HETATM   29  O   UNL     1     -41.238  57.169 -52.798  1.00  0.00    -0.355 OA
HETATM   30  C   UNL     1     -40.409  57.165 -53.953  1.00  0.00     0.210 C 
ENDBRANCH  24  29
ENDBRANCH   2  23
BRANCH   3  31
HETATM   31  C   UNL     1     -43.140  58.895 -55.505  1.00  0.00     0.038 A 
HETATM   32  C   UNL     1     -42.145  59.495 -56.283  1.00  0.00     0.032 A 
HETATM   33  C   UNL     1     -41.802  58.978 -57.539  1.00  0.00     0.039 A 
HETATM   34  C   UNL     1     -42.468  57.870 -58.056  1.00  0.00     0.068 A 
HETATM   35  C   UNL     1     -43.435  57.238 -57.280  1.00  0.00     0.039 A 
HETATM   36  C   UNL     1     -43.762  57.744 -56.013  1.00  0.00     0.032 A 
BRANCH  34  37
HETATM   37  O   UNL     1     -42.091  57.490 -59.314  1.00  0.00    -0.356 OA
HETATM   38  C   UNL     1     -42.537  56.204 -59.732  1.00  0.00     0.210 C 
ENDBRANCH  34  37
ENDBRANCH   3  31
TORSDOF 7
ENDMDL
MODEL 7
REMARK VINA RESULT:      -6.6      2.707      3.901
REMARK  7 active torsions:
REMARK  status: ('A' for Active; 'I' for Inactive)
REMARK       I    between atoms: C_2  and  N_3 
REMARK    1  A    between atoms: N_3  and  C_4 
REMARK    2  A    between atoms: C_7  and  N_8 
REMARK       I    between atoms: N_8  and  C_9 
REMARK    3  A    between atoms: C_9  and  C_10 
REMARK    4  A    between atoms: C_11  and  C_12 
REMARK    5  A    between atoms: C_13  and  O_14 
REMARK    6  A    between atoms: N_20  and  C_21 
REMARK    7  A    between atoms: C_24  and  O_25 
ROOT
HETATM    1  C   UNL     1     -42.802  57.776 -55.282  1.00  0.00     0.106 C 
HETATM    2  C   UNL     1     -43.557  59.069 -55.648  1.00  0.00     0.142 C 
HETATM    3  N   UNL     1     -43.588  59.964 -54.458  1.00  0.00    -0.308 N 
HETATM    4  C   UNL     1     -42.415  60.249 -53.753  1.00  0.00     0.225 C 
HETATM    5  O   UNL     1     -42.220  61.245 -53.055  1.00  0.00    -0.273 OA
HETATM    6  C   UNL     1     -41.399  59.115 -53.677  1.00  0.00     0.104 C 
HETATM    7  C   UNL     1     -41.397  58.078 -54.784  1.00  0.00     0.026 C 
ENDROOT
BRANCH   1   8
HETATM    8  C   UNL     1     -42.731  56.743 -56.390  1.00  0.00     0.228 C 
HETATM    9  N   UNL     1     -42.248  55.483 -56.207  1.00  0.00    -0.327 N 
HETATM   10  H   UNL     1     -42.334  54.982 -57.087  1.00  0.00     0.169 HD
HETATM   11  O   UNL     1     -43.051  57.019 -57.551  1.00  0.00    -0.273 OA
BRANCH   9  12
HETATM   12  C   UNL     1     -41.781  54.713 -55.128  1.00  0.00     0.034 A 
HETATM   13  C   UNL     1     -42.451  54.449 -53.939  1.00  0.00     0.032 A 
HETATM   14  C   UNL     1     -41.909  53.571 -52.984  1.00  0.00     0.032 A 
HETATM   15  C   UNL     1     -40.669  52.967 -53.186  1.00  0.00     0.034 A 
HETATM   16  C   UNL     1     -39.954  53.296 -54.337  1.00  0.00     0.032 A 
HETATM   17  C   UNL     1     -40.504  54.157 -55.294  1.00  0.00     0.032 A 
BRANCH  15  18
HETATM   18  N   UNL     1     -40.086  52.033 -52.307  1.00  0.00    -0.328 N 
HETATM   19  C   UNL     1     -39.829  50.696 -52.554  1.00  0.00     0.218 C 
HETATM   20  C   UNL     1     -39.119  50.018 -51.407  1.00  0.00     0.117 C 
HETATM   21  O   UNL     1     -40.081  50.077 -53.582  1.00  0.00    -0.274 OA
HETATM   22  H   UNL     1     -39.765  52.401 -51.421  1.00  0.00     0.169 HD
ENDBRANCH  15  18
ENDBRANCH   9  12
ENDBRANCH   1   8
BRANCH   2  23
HETATM   23  C   UNL     1     -43.123  59.839 -56.909  1.00  0.00    -0.001 A 
HETATM   24  C   UNL     1     -44.068  60.152 -57.917  1.00  0.00     0.076 A 
HETATM   25  C   UNL     1     -43.656  60.796 -59.093  1.00  0.00     0.037 A 
HETATM   26  C   UNL     1     -42.323  61.159 -59.278  1.00  0.00     0.003 A 
HETATM   27  C   UNL     1     -41.392  60.892 -58.283  1.00  0.00     0.001 A 
HETATM   28  C   UNL     1     -41.789  60.247 -57.110  1.00  0.00     0.012 A 
BRANCH  24  29
HETATM   29  O   UNL     1     -45.367  59.773 -57.681  1.00  0.00    -0.355 OA
HETATM   30  C   UNL     1     -45.948  58.835 -58.578  1.00  0.00     0.210 C 
ENDBRANCH  24  29
ENDBRANCH   2  23
BRANCH   3  31
HETATM   31  C   UNL     1     -44.848  60.449 -53.975  1.00  0.00     0.038 A 
HETATM   32  C   UNL     1     -45.525  61.495 -54.608  1.00  0.00     0.032 A 
HETATM   33  C   UNL     1     -46.677  62.057 -54.041  1.00  0.00     0.039 A 
HETATM   34  C   UNL     1     -47.156  61.605 -52.813  1.00  0.00     0.068 A 
HETATM   35  C   UNL     1     -46.515  60.541 -52.187  1.00  0.00     0.039 A 
HETATM   36  C   UNL     1     -45.375  59.965 -52.768  1.00  0.00     0.032 A 
BRANCH  34  37
HETATM   37  O   UNL     1     -48.250  62.267 -52.329  1.00  0.00    -0.356 OA
HETATM   38  C   UNL     1     -49.345  62.395 -53.231  1.00  0.00     0.210 C 
ENDBRANCH  34  37
ENDBRANCH   3  31
TORSDOF 7
ENDMDL
MODEL 8
REMARK VINA RESULT:      -6.6      2.715      4.998
REMARK  7 active torsions:
REMARK  status: ('A' for Active; 'I' for Inactive)
REMARK       I    between atoms: C_2  and  N_3 
REMARK    1  A    between atoms: N_3  and  C_4 
REMARK    2  A    between atoms: C_7  and  N_8 
REMARK       I    between atoms: N_8  and  C_9 
REMARK    3  A    between atoms: C_9  and  C_10 
REMARK    4  A    between atoms: C_11  and  C_12 
REMARK    5  A    between atoms: C_13  and  O_14 
REMARK    6  A    between atoms: N_20  and  C_21 
REMARK    7  A    between atoms: C_24  and  O_25 
ROOT
HETATM    1  C   UNL     1     -43.931  57.816 -57.302  1.00  0.00     0.106 C 
HETATM    2  C   UNL     1     -44.195  58.546 -58.633  1.00  0.00     0.142 C 
HETATM    3  N   UNL     1     -42.937  58.570 -59.430  1.00  0.00    -0.308 N 
HETATM    4  C   UNL     1     -42.204  57.399 -59.635  1.00  0.00     0.225 C 
HETATM    5  O   UNL     1     -41.427  57.191 -60.568  1.00  0.00    -0.273 OA
HETATM    6  C   UNL     1     -42.214  56.403 -58.481  1.00  0.00     0.104 C 
HETATM    7  C   UNL     1     -43.402  56.410 -57.537  1.00  0.00     0.026 C 
ENDROOT
BRANCH   1   8
HETATM    8  C   UNL     1     -45.119  57.755 -56.361  1.00  0.00     0.228 C 
HETATM    9  N   UNL     1     -45.063  57.187 -55.124  1.00  0.00    -0.327 N 
HETATM   10  H   UNL     1     -45.974  57.299 -54.686  1.00  0.00     0.169 HD
HETATM   11  O   UNL     1     -46.233  58.164 -56.701  1.00  0.00    -0.273 OA
BRANCH   9  12
HETATM   12  C   UNL     1     -44.078  56.608 -54.307  1.00  0.00     0.034 A 
HETATM   13  C   UNL     1     -43.121  57.276 -53.551  1.00  0.00     0.032 A 
HETATM   14  C   UNL     1     -42.259  56.573 -52.692  1.00  0.00     0.032 A 
HETATM   15  C   UNL     1     -42.315  55.183 -52.598  1.00  0.00     0.034 A 
HETATM   16  C   UNL     1     -43.214  54.502 -53.418  1.00  0.00     0.032 A 
HETATM   17  C   UNL     1     -44.082  55.206 -54.260  1.00  0.00     0.032 A 
BRANCH  15  18
HETATM   18  N   UNL     1     -41.529  54.413 -51.719  1.00  0.00    -0.328 N 
HETATM   19  C   UNL     1     -40.563  53.482 -52.055  1.00  0.00     0.218 C 
HETATM   20  C   UNL     1     -39.864  52.906 -50.846  1.00  0.00     0.117 C 
HETATM   21  O   UNL     1     -40.230  53.143 -53.185  1.00  0.00    -0.274 OA
HETATM   22  H   UNL     1     -41.644  54.613 -50.733  1.00  0.00     0.169 HD
ENDBRANCH  15  18
ENDBRANCH   9  12
ENDBRANCH   1   8
BRANCH   2  23
HETATM   23  C   UNL     1     -45.387  58.090 -59.495  1.00  0.00    -0.001 A 
HETATM   24  C   UNL     1     -46.265  59.044 -60.065  1.00  0.00     0.076 A 
HETATM   25  C   UNL     1     -47.386  58.622 -60.795  1.00  0.00     0.037 A 
HETATM   26  C   UNL     1     -47.640  57.266 -60.992  1.00  0.00     0.003 A 
HETATM   27  C   UNL     1     -46.768  56.319 -60.470  1.00  0.00     0.001 A 
HETATM   28  C   UNL     1     -45.652  56.727 -59.738  1.00  0.00     0.012 A 
BRANCH  24  29
HETATM   29  O   UNL     1     -45.965  60.366 -59.842  1.00  0.00    -0.355 OA
HETATM   30  C   UNL     1     -46.021  61.246 -60.957  1.00  0.00     0.210 C 
ENDBRANCH  24  29
ENDBRANCH   2  23
BRANCH   3  31
HETATM   31  C   UNL     1     -42.424  59.826 -59.896  1.00  0.00     0.038 A 
HETATM   32  C   UNL     1     -42.468  60.183 -61.247  1.00  0.00     0.032 A 
HETATM   33  C   UNL     1     -41.831  61.341 -61.708  1.00  0.00     0.039 A 
HETATM   34  C   UNL     1     -41.109  62.150 -60.834  1.00  0.00     0.068 A 
HETATM   35  C   UNL     1     -41.085  61.829 -59.480  1.00  0.00     0.039 A 
HETATM   36  C   UNL     1     -41.742  60.681 -59.016  1.00  0.00     0.032 A 
BRANCH  34  37
HETATM   37  O   UNL     1     -40.480  63.220 -61.406  1.00  0.00    -0.356 OA
HETATM   38  C   UNL     1     -39.480  62.907 -62.371  1.00  0.00     0.210 C 
ENDBRANCH  34  37
ENDBRANCH   3  31
TORSDOF 7
ENDMDL
MODEL 9
REMARK VINA RESULT:      -6.5     17.334     20.494
REMARK  7 active torsions:
REMARK  status: ('A' for Active; 'I' for Inactive)
REMARK       I    between atoms: C_2  and  N_3 
REMARK    1  A    between atoms: N_3  and  C_4 
REMARK    2  A    between atoms: C_7  and  N_8 
REMARK       I    between atoms: N_8  and  C_9 
REMARK    3  A    between atoms: C_9  and  C_10 
REMARK    4  A    between atoms: C_11  and  C_12 
REMARK    5  A    between atoms: C_13  and  O_14 
REMARK    6  A    between atoms: N_20  and  C_21 
REMARK    7  A    between atoms: C_24  and  O_25 
ROOT
HETATM    1  C   UNL     1     -36.481  38.919 -52.119  1.00  0.00     0.106 C 
HETATM    2  C   UNL     1     -35.603  39.369 -53.303  1.00  0.00     0.142 C 
HETATM    3  N   UNL     1     -35.768  40.836 -53.498  1.00  0.00    -0.308 N 
HETATM    4  C   UNL     1     -35.644  41.714 -52.418  1.00  0.00     0.225 C 
HETATM    5  O   UNL     1     -35.347  42.908 -52.493  1.00  0.00    -0.273 OA
HETATM    6  C   UNL     1     -36.140  41.186 -51.077  1.00  0.00     0.104 C 
HETATM    7  C   UNL     1     -36.135  39.685 -50.851  1.00  0.00     0.026 C 
ENDROOT
BRANCH   1   8
HETATM    8  C   UNL     1     -36.450  37.431 -51.830  1.00  0.00     0.228 C 
HETATM    9  N   UNL     1     -37.232  36.836 -50.886  1.00  0.00    -0.327 N 
HETATM   10  H   UNL     1     -37.046  35.838 -50.908  1.00  0.00     0.169 HD
HETATM   11  O   UNL     1     -35.653  36.679 -52.401  1.00  0.00    -0.273 OA
BRANCH   9  12
HETATM   12  C   UNL     1     -38.255  37.232 -50.008  1.00  0.00     0.034 A 
HETATM   13  C   UNL     1     -39.479  37.796 -50.351  1.00  0.00     0.032 A 
HETATM   14  C   UNL     1     -40.457  38.047 -49.374  1.00  0.00     0.032 A 
HETATM   15  C   UNL     1     -40.218  37.770 -48.029  1.00  0.00     0.034 A 
HETATM   16  C   UNL     1     -38.961  37.284 -47.669  1.00  0.00     0.032 A 
HETATM   17  C   UNL     1     -37.994  37.020 -48.646  1.00  0.00     0.032 A 
BRANCH  15  18
HETATM   18  N   UNL     1     -41.166  37.936 -47.001  1.00  0.00    -0.328 N 
HETATM   19  C   UNL     1     -41.306  39.023 -46.157  1.00  0.00     0.218 C 
HETATM   20  C   UNL     1     -42.487  38.889 -45.226  1.00  0.00     0.117 C 
HETATM   21  O   UNL     1     -40.612  40.034 -46.139  1.00  0.00    -0.274 OA
HETATM   22  H   UNL     1     -41.859  37.203 -46.917  1.00  0.00     0.169 HD
ENDBRANCH  15  18
ENDBRANCH   9  12
ENDBRANCH   1   8
BRANCH   2  23
HETATM   23  C   UNL     1     -34.115  38.975 -53.302  1.00  0.00    -0.001 A 
HETATM   24  C   UNL     1     -33.523  38.408 -54.458  1.00  0.00     0.076 A 
HETATM   25  C   UNL     1     -32.185  37.991 -54.433  1.00  0.00     0.037 A 
HETATM   26  C   UNL     1     -31.411  38.148 -53.285  1.00  0.00     0.003 A 
HETATM   27  C   UNL     1     -31.965  38.736 -52.156  1.00  0.00     0.001 A 
HETATM   28  C   UNL     1     -33.298  39.150 -52.167  1.00  0.00     0.012 A 
BRANCH  24  29
HETATM   29  O   UNL     1     -34.332  38.279 -55.562  1.00  0.00    -0.355 OA
HETATM   30  C   UNL     1     -33.776  38.625 -56.824  1.00  0.00     0.210 C 
ENDBRANCH  24  29
ENDBRANCH   2  23
BRANCH   3  31
HETATM   31  C   UNL     1     -36.161  41.335 -54.784  1.00  0.00     0.038 A 
HETATM   32  C   UNL     1     -37.481  41.243 -55.237  1.00  0.00     0.032 A 
HETATM   33  C   UNL     1     -37.819  41.597 -56.549  1.00  0.00     0.039 A 
HETATM   34  C   UNL     1     -36.840  42.020 -57.445  1.00  0.00     0.068 A 
HETATM   35  C   UNL     1     -35.528  42.152 -57.000  1.00  0.00     0.039 A 
HETATM   36  C   UNL     1     -35.195  41.819 -55.679  1.00  0.00     0.032 A 
BRANCH  34  37
HETATM   37  O   UNL     1     -37.276  42.281 -58.714  1.00  0.00    -0.356 OA
HETATM   38  C   UNL     1     -37.238  41.182 -59.620  1.00  0.00     0.210 C 
ENDBRANCH  34  37
ENDBRANCH   3  31
TORSDOF 7
ENDMDL
MODEL 10
REMARK VINA RESULT:      -6.4      2.490      5.231
REMARK  7 active torsions:
REMARK  status: ('A' for Active; 'I' for Inactive)
REMARK       I    between atoms: C_2  and  N_3 
REMARK    1  A    between atoms: N_3  and  C_4 
REMARK    2  A    between atoms: C_7  and  N_8 
REMARK       I    between atoms: N_8  and  C_9 
REMARK    3  A    between atoms: C_9  and  C_10 
REMARK    4  A    between atoms: C_11  and  C_12 
REMARK    5  A    between atoms: C_13  and  O_14 
REMARK    6  A    between atoms: N_20  and  C_21 
REMARK    7  A    between atoms: C_24  and  O_25 
ROOT
HETATM    1  C   UNL     1     -43.229  58.441 -53.529  1.00  0.00     0.106 C 
HETATM    2  C   UNL     1     -43.586  59.857 -54.021  1.00  0.00     0.142 C 
HETATM    3  N   UNL     1     -44.008  59.783 -55.448  1.00  0.00    -0.308 N 
HETATM    4  C   UNL     1     -44.966  58.852 -55.857  1.00  0.00     0.225 C 
HETATM    5  O   UNL     1     -45.684  58.950 -56.853  1.00  0.00    -0.273 OA
HETATM    6  C   UNL     1     -44.944  57.516 -55.123  1.00  0.00     0.104 C 
HETATM    7  C   UNL     1     -44.397  57.483 -53.709  1.00  0.00     0.026 C 
ENDROOT
BRANCH   1   8
HETATM    8  C   UNL     1     -42.735  58.369 -52.098  1.00  0.00     0.228 C 
HETATM    9  N   UNL     1     -42.200  57.242 -51.548  1.00  0.00    -0.327 N 
HETATM   10  H   UNL     1     -41.923  57.459 -50.595  1.00  0.00     0.169 HD
HETATM   11  O   UNL     1     -42.856  59.324 -51.324  1.00  0.00    -0.273 OA
BRANCH   9  12
HETATM   12  C   UNL     1     -41.861  55.952 -51.987  1.00  0.00     0.034 A 
HETATM   13  C   UNL     1     -42.276  54.745 -51.435  1.00  0.00     0.032 A 
HETATM   14  C   UNL     1     -41.945  53.521 -52.042  1.00  0.00     0.032 A 
HETATM   15  C   UNL     1     -41.164  53.479 -53.196  1.00  0.00     0.034 A 
HETATM   16  C   UNL     1     -40.673  54.681 -53.705  1.00  0.00     0.032 A 
HETATM   17  C   UNL     1     -41.018  55.899 -53.108  1.00  0.00     0.032 A 
BRANCH  15  18
HETATM   18  N   UNL     1     -40.841  52.301 -53.896  1.00  0.00    -0.328 N 
HETATM   19  C   UNL     1     -39.906  51.344 -53.542  1.00  0.00     0.218 C 
HETATM   20  C   UNL     1     -39.886  50.170 -54.491  1.00  0.00     0.117 C 
HETATM   21  O   UNL     1     -39.172  51.362 -52.559  1.00  0.00    -0.274 OA
HETATM   22  H   UNL     1     -41.403  52.105 -54.715  1.00  0.00     0.169 HD
ENDBRANCH  15  18
ENDBRANCH   9  12
ENDBRANCH   1   8
BRANCH   2  23
HETATM   23  C   UNL     1     -44.581  60.691 -53.193  1.00  0.00    -0.001 A 
HETATM   24  C   UNL     1     -44.284  62.036 -52.859  1.00  0.00     0.076 A 
HETATM   25  C   UNL     1     -45.163  62.772 -52.050  1.00  0.00     0.037 A 
HETATM   26  C   UNL     1     -46.348  62.204 -51.585  1.00  0.00     0.003 A 
HETATM   27  C   UNL     1     -46.671  60.900 -51.935  1.00  0.00     0.001 A 
HETATM   28  C   UNL     1     -45.801  60.156 -52.735  1.00  0.00     0.012 A 
BRANCH  24  29
HETATM   29  O   UNL     1     -43.104  62.544 -53.346  1.00  0.00    -0.355 OA
HETATM   30  C   UNL     1     -42.929  63.954 -53.294  1.00  0.00     0.210 C 
ENDBRANCH  24  29
ENDBRANCH   2  23
BRANCH   3  31
HETATM   31  C   UNL     1     -43.345  60.601 -56.421  1.00  0.00     0.038 A 
HETATM   32  C   UNL     1     -42.187  60.173 -57.077  1.00  0.00     0.032 A 
HETATM   33  C   UNL     1     -41.469  61.039 -57.912  1.00  0.00     0.039 A 
HETATM   34  C   UNL     1     -41.875  62.360 -58.082  1.00  0.00     0.068 A 
HETATM   35  C   UNL     1     -43.045  62.793 -57.465  1.00  0.00     0.039 A 
HETATM   36  C   UNL     1     -43.775  61.918 -56.648  1.00  0.00     0.032 A 
BRANCH  34  37
HETATM   37  O   UNL     1     -41.064  63.128 -58.870  1.00  0.00    -0.356 OA
HETATM   38  C   UNL     1     -41.693  64.232 -59.514  1.00  0.00     0.210 C 
ENDBRANCH  34  37
ENDBRANCH   3  31
TORSDOF 7
ENDMDL
