MODEL 1
REMARK VINA RESULT:      -9.7      0.000      0.000
REMARK  3 active torsions:
REMARK  status: ('A' for Active; 'I' for Inactive)
REMARK    1  A    between atoms: C_4  and  N_5 
REMARK    2  A    between atoms: N_5  and  C_6 
REMARK    3  A    between atoms: C_13  and  C_14 
ROOT
HETATM    1  C   UNL     1     -42.369  57.578 -54.970  1.00  0.00     0.741 A 
HETATM    2  N   UNL     1     -43.015  56.503 -54.486  1.00  0.00    -0.066 NA
HETATM    3  C   UNL     1     -42.696  56.057 -53.251  1.00  0.00     0.069 A 
HETATM    4  C   UNL     1     -41.749  56.678 -52.473  1.00  0.00     0.053 A 
HETATM    5  C   UNL     1     -41.420  56.196 -51.126  1.00  0.00     0.163 C 
HETATM    6  O   UNL     1     -40.622  56.819 -50.432  1.00  0.00    -0.292 OA
HETATM    7  C   UNL     1     -42.172  54.989 -50.607  1.00  0.00     0.093 C 
HETATM    8  C   UNL     1     -42.605  54.034 -51.735  1.00  0.00     0.031 C 
HETATM    9  C   UNL     1     -43.427  54.834 -52.765  1.00  0.00     0.070 C 
HETATM   10  C   UNL     1     -41.130  57.767 -53.034  1.00  0.00     0.153 A 
HETATM   11  N   UNL     1     -41.418  58.227 -54.273  1.00  0.00    -0.073 NA
ENDROOT
BRANCH   1  12
HETATM   12  N   UNL     1     -42.630  58.076 -56.226  1.00  0.00    -0.015 N 
HETATM   13  H   UNL     1     -42.064  58.864 -56.481  1.00  0.00     0.203 HD
BRANCH  12  14
HETATM   14  C   UNL     1     -43.559  57.724 -57.182  1.00  0.00     0.742 A 
HETATM   15  N   UNL     1     -44.746  58.344 -57.082  1.00  0.00    -0.066 NA
HETATM   16  C   UNL     1     -45.705  58.029 -57.980  1.00  0.00     0.062 A 
HETATM   17  C   UNL     1     -47.006  58.763 -57.821  1.00  0.00     0.072 C 
HETATM   18  C   UNL     1     -45.511  57.085 -58.994  1.00  0.00     0.018 A 
HETATM   19  C   UNL     1     -44.243  56.499 -59.007  1.00  0.00     0.088 A 
HETATM   20  C   UNL     1     -46.473  56.698 -59.960  1.00  0.00     0.016 A 
HETATM   21  N   UNL     1     -43.291  56.815 -58.125  1.00  0.00    -0.062 NA
HETATM   22  C   UNL     1     -43.960  55.547 -59.978  1.00  0.00     0.033 A 
HETATM   23  C   UNL     1     -44.904  55.160 -60.931  1.00  0.00     0.002 A 
HETATM   24  C   UNL     1     -46.167  55.739 -60.923  1.00  0.00     0.001 A 
ENDBRANCH  12  14
ENDBRANCH   1  12
BRANCH   8  25
HETATM   25  C   UNL     1     -41.435  53.213 -52.279  1.00  0.00    -0.053 A 
HETATM   26  C   UNL     1     -41.346  53.003 -53.668  1.00  0.00     0.007 A 
HETATM   27  C   UNL     1     -40.307  52.253 -54.224  1.00  0.00     0.001 A 
HETATM   28  C   UNL     1     -39.328  51.706 -53.403  1.00  0.00     0.000 A 
HETATM   29  C   UNL     1     -39.383  51.920 -52.029  1.00  0.00     0.001 A 
HETATM   30  C   UNL     1     -40.424  52.670 -51.472  1.00  0.00     0.007 A 
ENDBRANCH   8  25
TORSDOF 3
ENDMDL
MODEL 2
REMARK VINA RESULT:      -9.3      1.970      2.595
REMARK  3 active torsions:
REMARK  status: ('A' for Active; 'I' for Inactive)
REMARK    1  A    between atoms: C_4  and  N_5 
REMARK    2  A    between atoms: N_5  and  C_6 
REMARK    3  A    between atoms: C_13  and  C_14 
ROOT
HETATM    1  C   UNL     1     -42.052  58.376 -53.256  1.00  0.00     0.741 A 
HETATM    2  N   UNL     1     -42.811  57.268 -53.216  1.00  0.00    -0.066 NA
HETATM    3  C   UNL     1     -42.650  56.410 -52.185  1.00  0.00     0.069 A 
HETATM    4  C   UNL     1     -41.751  56.646 -51.172  1.00  0.00     0.053 A 
HETATM    5  C   UNL     1     -41.595  55.716 -50.047  1.00  0.00     0.163 C 
HETATM    6  O   UNL     1     -40.834  55.996 -49.124  1.00  0.00    -0.292 OA
HETATM    7  C   UNL     1     -42.470  54.482 -50.027  1.00  0.00     0.093 C 
HETATM    8  C   UNL     1     -42.844  54.000 -51.441  1.00  0.00     0.031 C 
HETATM    9  C   UNL     1     -43.502  55.169 -52.199  1.00  0.00     0.070 C 
HETATM   10  C   UNL     1     -41.010  57.796 -51.282  1.00  0.00     0.153 A 
HETATM   11  N   UNL     1     -41.139  58.666 -52.311  1.00  0.00    -0.073 NA
ENDROOT
BRANCH   1  12
HETATM   12  N   UNL     1     -42.149  59.285 -54.286  1.00  0.00    -0.015 N 
HETATM   13  H   UNL     1     -42.324  60.226 -53.988  1.00  0.00     0.203 HD
BRANCH  12  14
HETATM   14  C   UNL     1     -42.102  59.133 -55.655  1.00  0.00     0.742 A 
HETATM   15  N   UNL     1     -41.728  60.226 -56.340  1.00  0.00    -0.066 NA
HETATM   16  C   UNL     1     -41.679  60.145 -57.689  1.00  0.00     0.062 A 
HETATM   17  C   UNL     1     -41.245  61.396 -58.396  1.00  0.00     0.072 C 
HETATM   18  C   UNL     1     -42.008  58.979 -58.388  1.00  0.00     0.018 A 
HETATM   19  C   UNL     1     -42.384  57.903 -57.581  1.00  0.00     0.088 A 
HETATM   20  C   UNL     1     -41.989  58.826 -59.797  1.00  0.00     0.016 A 
HETATM   21  N   UNL     1     -42.425  57.978 -56.248  1.00  0.00    -0.062 NA
HETATM   22  C   UNL     1     -42.730  56.703 -58.189  1.00  0.00     0.033 A 
HETATM   23  C   UNL     1     -42.716  56.548 -59.577  1.00  0.00     0.002 A 
HETATM   24  C   UNL     1     -42.343  57.614 -60.385  1.00  0.00     0.001 A 
ENDBRANCH  12  14
ENDBRANCH   1  12
BRANCH   8  25
HETATM   25  C   UNL     1     -41.678  53.299 -52.140  1.00  0.00    -0.053 A 
HETATM   26  C   UNL     1     -41.627  53.314 -53.546  1.00  0.00     0.007 A 
HETATM   27  C   UNL     1     -40.593  52.682 -54.242  1.00  0.00     0.001 A 
HETATM   28  C   UNL     1     -39.582  52.033 -53.546  1.00  0.00     0.000 A 
HETATM   29  C   UNL     1     -39.599  52.024 -52.155  1.00  0.00     0.001 A 
HETATM   30  C   UNL     1     -40.634  52.656 -51.457  1.00  0.00     0.007 A 
ENDBRANCH   8  25
TORSDOF 3
ENDMDL
MODEL 3
REMARK VINA RESULT:      -9.3      2.267      8.384
REMARK  3 active torsions:
REMARK  status: ('A' for Active; 'I' for Inactive)
REMARK    1  A    between atoms: C_4  and  N_5 
REMARK    2  A    between atoms: N_5  and  C_6 
REMARK    3  A    between atoms: C_13  and  C_14 
ROOT
HETATM    1  C   UNL     1     -43.018  56.420 -55.447  1.00  0.00     0.741 A 
HETATM    2  N   UNL     1     -43.044  55.798 -56.637  1.00  0.00    -0.066 NA
HETATM    3  C   UNL     1     -42.790  56.518 -57.751  1.00  0.00     0.069 A 
HETATM    4  C   UNL     1     -42.488  57.858 -57.701  1.00  0.00     0.053 A 
HETATM    5  C   UNL     1     -42.197  58.630 -58.915  1.00  0.00     0.163 C 
HETATM    6  O   UNL     1     -41.861  59.807 -58.825  1.00  0.00    -0.292 OA
HETATM    7  C   UNL     1     -42.227  57.897 -60.239  1.00  0.00     0.093 C 
HETATM    8  C   UNL     1     -43.214  56.715 -60.237  1.00  0.00     0.031 C 
HETATM    9  C   UNL     1     -42.859  55.782 -59.062  1.00  0.00     0.070 C 
HETATM   10  C   UNL     1     -42.482  58.426 -56.451  1.00  0.00     0.153 A 
HETATM   11  N   UNL     1     -42.747  57.733 -55.320  1.00  0.00    -0.073 NA
ENDROOT
BRANCH   1  12
HETATM   12  N   UNL     1     -43.285  55.753 -54.273  1.00  0.00    -0.015 N 
HETATM   13  H   UNL     1     -44.184  55.959 -53.878  1.00  0.00     0.203 HD
BRANCH  12  14
HETATM   14  C   UNL     1     -42.525  54.892 -53.510  1.00  0.00     0.742 A 
HETATM   15  N   UNL     1     -42.569  55.110 -52.185  1.00  0.00    -0.066 NA
HETATM   16  C   UNL     1     -41.832  54.308 -51.385  1.00  0.00     0.062 A 
HETATM   17  C   UNL     1     -41.930  54.596 -49.915  1.00  0.00     0.072 C 
HETATM   18  C   UNL     1     -41.027  53.277 -51.882  1.00  0.00     0.018 A 
HETATM   19  C   UNL     1     -41.054  53.138 -53.272  1.00  0.00     0.088 A 
HETATM   20  C   UNL     1     -40.221  52.408 -51.105  1.00  0.00     0.016 A 
HETATM   21  N   UNL     1     -41.787  53.923 -54.064  1.00  0.00    -0.062 NA
HETATM   22  C   UNL     1     -40.283  52.141 -53.855  1.00  0.00     0.033 A 
HETATM   23  C   UNL     1     -39.485  51.283 -53.094  1.00  0.00     0.002 A 
HETATM   24  C   UNL     1     -39.455  51.417 -51.712  1.00  0.00     0.001 A 
ENDBRANCH  12  14
ENDBRANCH   1  12
BRANCH   8  25
HETATM   25  C   UNL     1     -44.669  57.176 -60.331  1.00  0.00    -0.053 A 
HETATM   26  C   UNL     1     -45.686  56.204 -60.346  1.00  0.00     0.007 A 
HETATM   27  C   UNL     1     -47.033  56.562 -60.441  1.00  0.00     0.001 A 
HETATM   28  C   UNL     1     -47.392  57.903 -60.513  1.00  0.00     0.000 A 
HETATM   29  C   UNL     1     -46.405  58.882 -60.478  1.00  0.00     0.001 A 
HETATM   30  C   UNL     1     -45.056  58.524 -60.383  1.00  0.00     0.007 A 
ENDBRANCH   8  25
TORSDOF 3
ENDMDL
MODEL 4
REMARK VINA RESULT:      -9.2      2.357      8.752
REMARK  3 active torsions:
REMARK  status: ('A' for Active; 'I' for Inactive)
REMARK    1  A    between atoms: C_4  and  N_5 
REMARK    2  A    between atoms: N_5  and  C_6 
REMARK    3  A    between atoms: C_13  and  C_14 
ROOT
HETATM    1  C   UNL     1     -42.943  55.839 -55.624  1.00  0.00     0.741 A 
HETATM    2  N   UNL     1     -42.980  55.435 -56.905  1.00  0.00    -0.066 NA
HETATM    3  C   UNL     1     -42.732  56.341 -57.877  1.00  0.00     0.069 A 
HETATM    4  C   UNL     1     -42.426  57.650 -57.594  1.00  0.00     0.053 A 
HETATM    5  C   UNL     1     -42.142  58.624 -58.655  1.00  0.00     0.163 C 
HETATM    6  O   UNL     1     -41.802  59.766 -58.361  1.00  0.00    -0.292 OA
HETATM    7  C   UNL     1     -42.182  58.135 -60.087  1.00  0.00     0.093 C 
HETATM    8  C   UNL     1     -43.172  56.973 -60.286  1.00  0.00     0.031 C 
HETATM    9  C   UNL     1     -42.811  55.847 -59.297  1.00  0.00     0.070 C 
HETATM   10  C   UNL     1     -42.410  57.990 -56.263  1.00  0.00     0.153 A 
HETATM   11  N   UNL     1     -42.669  57.108 -55.270  1.00  0.00    -0.073 NA
ENDROOT
BRANCH   1  12
HETATM   12  N   UNL     1     -43.204  54.975 -54.584  1.00  0.00    -0.015 N 
HETATM   13  H   UNL     1     -44.139  54.613 -54.575  1.00  0.00     0.203 HD
BRANCH  12  14
HETATM   14  C   UNL     1     -42.433  54.555 -53.522  1.00  0.00     0.742 A 
HETATM   15  N   UNL     1     -41.598  53.538 -53.787  1.00  0.00    -0.066 NA
HETATM   16  C   UNL     1     -40.826  53.069 -52.781  1.00  0.00     0.062 A 
HETATM   17  C   UNL     1     -39.908  51.938 -53.143  1.00  0.00     0.072 C 
HETATM   18  C   UNL     1     -40.874  53.594 -51.485  1.00  0.00     0.018 A 
HETATM   19  C   UNL     1     -41.776  54.647 -51.317  1.00  0.00     0.088 A 
HETATM   20  C   UNL     1     -40.105  53.146 -50.382  1.00  0.00     0.016 A 
HETATM   21  N   UNL     1     -42.533  55.117 -52.312  1.00  0.00    -0.062 NA
HETATM   22  C   UNL     1     -41.893  55.230 -50.062  1.00  0.00     0.033 A 
HETATM   23  C   UNL     1     -41.139  54.791 -48.970  1.00  0.00     0.002 A 
HETATM   24  C   UNL     1     -40.241  53.744 -49.131  1.00  0.00     0.001 A 
ENDBRANCH  12  14
ENDBRANCH   1  12
BRANCH   8  25
HETATM   25  C   UNL     1     -44.627  57.445 -60.287  1.00  0.00    -0.053 A 
HETATM   26  C   UNL     1     -45.649  56.483 -60.186  1.00  0.00     0.007 A 
HETATM   27  C   UNL     1     -46.996  56.852 -60.192  1.00  0.00     0.001 A 
HETATM   28  C   UNL     1     -47.350  58.192 -60.289  1.00  0.00     0.000 A 
HETATM   29  C   UNL     1     -46.356  59.162 -60.368  1.00  0.00     0.001 A 
HETATM   30  C   UNL     1     -45.007  58.794 -60.362  1.00  0.00     0.007 A 
ENDBRANCH   8  25
TORSDOF 3
ENDMDL
MODEL 5
REMARK VINA RESULT:      -8.9      0.613      2.049
REMARK  3 active torsions:
REMARK  status: ('A' for Active; 'I' for Inactive)
REMARK    1  A    between atoms: C_4  and  N_5 
REMARK    2  A    between atoms: N_5  and  C_6 
REMARK    3  A    between atoms: C_13  and  C_14 
ROOT
HETATM    1  C   UNL     1     -42.278  57.633 -55.163  1.00  0.00     0.741 A 
HETATM    2  N   UNL     1     -42.956  56.569 -54.701  1.00  0.00    -0.066 NA
HETATM    3  C   UNL     1     -42.698  56.130 -53.450  1.00  0.00     0.069 A 
HETATM    4  C   UNL     1     -41.780  56.747 -52.634  1.00  0.00     0.053 A 
HETATM    5  C   UNL     1     -41.517  56.272 -51.270  1.00  0.00     0.163 C 
HETATM    6  O   UNL     1     -40.744  56.892 -50.546  1.00  0.00    -0.292 OA
HETATM    7  C   UNL     1     -42.304  55.077 -50.777  1.00  0.00     0.093 C 
HETATM    8  C   UNL     1     -42.697  54.118 -51.916  1.00  0.00     0.031 C 
HETATM    9  C   UNL     1     -43.462  54.918 -52.988  1.00  0.00     0.070 C 
HETATM   10  C   UNL     1     -41.125  57.825 -53.174  1.00  0.00     0.153 A 
HETATM   11  N   UNL     1     -41.352  58.278 -54.429  1.00  0.00    -0.073 NA
ENDROOT
BRANCH   1  12
HETATM   12  N   UNL     1     -42.476  58.124 -56.433  1.00  0.00    -0.015 N 
HETATM   13  H   UNL     1     -41.825  58.837 -56.705  1.00  0.00     0.203 HD
BRANCH  12  14
HETATM   14  C   UNL     1     -43.436  57.854 -57.386  1.00  0.00     0.742 A 
HETATM   15  N   UNL     1     -43.268  56.704 -58.058  1.00  0.00    -0.066 NA
HETATM   16  C   UNL     1     -44.168  56.391 -59.017  1.00  0.00     0.062 A 
HETATM   17  C   UNL     1     -43.930  55.090 -59.727  1.00  0.00     0.072 C 
HETATM   18  C   UNL     1     -45.250  57.218 -59.336  1.00  0.00     0.018 A 
HETATM   19  C   UNL     1     -45.331  58.388 -58.578  1.00  0.00     0.088 A 
HETATM   20  C   UNL     1     -46.223  56.959 -60.334  1.00  0.00     0.016 A 
HETATM   21  N   UNL     1     -44.448  58.695 -57.625  1.00  0.00    -0.062 NA
HETATM   22  C   UNL     1     -46.374  59.271 -58.827  1.00  0.00     0.033 A 
HETATM   23  C   UNL     1     -47.334  59.023 -59.810  1.00  0.00     0.002 A 
HETATM   24  C   UNL     1     -47.259  57.861 -60.567  1.00  0.00     0.001 A 
ENDBRANCH  12  14
ENDBRANCH   1  12
BRANCH   8  25
HETATM   25  C   UNL     1     -41.512  53.281 -52.401  1.00  0.00    -0.053 A 
HETATM   26  C   UNL     1     -40.616  52.764 -51.447  1.00  0.00     0.007 A 
HETATM   27  C   UNL     1     -39.510  52.001 -51.828  1.00  0.00     0.001 A 
HETATM   28  C   UNL     1     -39.282  51.729 -53.171  1.00  0.00     0.000 A 
HETATM   29  C   UNL     1     -40.167  52.211 -54.131  1.00  0.00     0.001 A 
HETATM   30  C   UNL     1     -41.275  52.975 -53.750  1.00  0.00     0.007 A 
ENDBRANCH   8  25
TORSDOF 3
ENDMDL
MODEL 6
REMARK VINA RESULT:      -8.9      3.895      7.731
REMARK  3 active torsions:
REMARK  status: ('A' for Active; 'I' for Inactive)
REMARK    1  A    between atoms: C_4  and  N_5 
REMARK    2  A    between atoms: N_5  and  C_6 
REMARK    3  A    between atoms: C_13  and  C_14 
ROOT
HETATM    1  C   UNL     1     -41.943  56.330 -50.916  1.00  0.00     0.741 A 
HETATM    2  N   UNL     1     -41.504  57.587 -51.095  1.00  0.00    -0.066 NA
HETATM    3  C   UNL     1     -42.413  58.571 -51.274  1.00  0.00     0.069 A 
HETATM    4  C   UNL     1     -43.765  58.328 -51.258  1.00  0.00     0.053 A 
HETATM    5  C   UNL     1     -44.745  59.406 -51.436  1.00  0.00     0.163 C 
HETATM    6  O   UNL     1     -45.945  59.163 -51.345  1.00  0.00    -0.292 OA
HETATM    7  C   UNL     1     -44.218  60.812 -51.627  1.00  0.00     0.093 C 
HETATM    8  C   UNL     1     -42.839  60.837 -52.313  1.00  0.00     0.031 C 
HETATM    9  C   UNL     1     -41.871  59.958 -51.498  1.00  0.00     0.070 C 
HETATM   10  C   UNL     1     -44.139  57.020 -51.072  1.00  0.00     0.153 A 
HETATM   11  N   UNL     1     -43.251  56.012 -50.906  1.00  0.00    -0.073 NA
ENDROOT
BRANCH   1  12
HETATM   12  N   UNL     1     -41.075  55.275 -50.747  1.00  0.00    -0.015 N 
HETATM   13  H   UNL     1     -40.566  55.296 -49.883  1.00  0.00     0.203 HD
BRANCH  12  14
HETATM   14  C   UNL     1     -40.737  54.220 -51.567  1.00  0.00     0.742 A 
HETATM   15  N   UNL     1     -40.758  54.488 -52.883  1.00  0.00    -0.066 NA
HETATM   16  C   UNL     1     -40.452  53.489 -53.740  1.00  0.00     0.062 A 
HETATM   17  C   UNL     1     -40.484  53.853 -55.196  1.00  0.00     0.072 C 
HETATM   18  C   UNL     1     -40.127  52.198 -53.310  1.00  0.00     0.018 A 
HETATM   19  C   UNL     1     -40.137  52.027 -51.924  1.00  0.00     0.088 A 
HETATM   20  C   UNL     1     -39.808  51.101 -54.150  1.00  0.00     0.016 A 
HETATM   21  N   UNL     1     -40.430  53.015 -51.075  1.00  0.00    -0.062 NA
HETATM   22  C   UNL     1     -39.828  50.776 -51.405  1.00  0.00     0.033 A 
HETATM   23  C   UNL     1     -39.515  49.691 -52.229  1.00  0.00     0.002 A 
HETATM   24  C   UNL     1     -39.505  49.855 -53.608  1.00  0.00     0.001 A 
ENDBRANCH  12  14
ENDBRANCH   1  12
BRANCH   8  25
HETATM   25  C   UNL     1     -42.933  60.548 -53.812  1.00  0.00    -0.053 A 
HETATM   26  C   UNL     1     -44.055  61.018 -54.521  1.00  0.00     0.007 A 
HETATM   27  C   UNL     1     -44.203  60.777 -55.888  1.00  0.00     0.001 A 
HETATM   28  C   UNL     1     -43.227  60.069 -56.579  1.00  0.00     0.000 A 
HETATM   29  C   UNL     1     -42.099  59.615 -55.904  1.00  0.00     0.001 A 
HETATM   30  C   UNL     1     -41.950  59.856 -54.534  1.00  0.00     0.007 A 
ENDBRANCH   8  25
TORSDOF 3
ENDMDL
MODEL 7
REMARK VINA RESULT:      -8.9      1.844      2.847
REMARK  3 active torsions:
REMARK  status: ('A' for Active; 'I' for Inactive)
REMARK    1  A    between atoms: C_4  and  N_5 
REMARK    2  A    between atoms: N_5  and  C_6 
REMARK    3  A    between atoms: C_13  and  C_14 
ROOT
HETATM    1  C   UNL     1     -43.393  57.553 -54.350  1.00  0.00     0.741 A 
HETATM    2  N   UNL     1     -43.807  56.489 -53.643  1.00  0.00    -0.066 NA
HETATM    3  C   UNL     1     -43.123  56.145 -52.530  1.00  0.00     0.069 A 
HETATM    4  C   UNL     1     -42.034  56.859 -52.092  1.00  0.00     0.053 A 
HETATM    5  C   UNL     1     -41.307  56.487 -50.872  1.00  0.00     0.163 C 
HETATM    6  O   UNL     1     -40.383  57.191 -50.473  1.00  0.00    -0.292 OA
HETATM    7  C   UNL     1     -41.804  55.289 -50.093  1.00  0.00     0.093 C 
HETATM    8  C   UNL     1     -42.482  54.240 -50.995  1.00  0.00     0.031 C 
HETATM    9  C   UNL     1     -43.609  54.929 -51.787  1.00  0.00     0.070 C 
HETATM   10  C   UNL     1     -41.667  57.931 -52.867  1.00  0.00     0.153 A 
HETATM   11  N   UNL     1     -42.324  58.290 -53.994  1.00  0.00    -0.073 NA
ENDROOT
BRANCH   1  12
HETATM   12  N   UNL     1     -44.030  57.950 -55.504  1.00  0.00    -0.015 N 
HETATM   13  H   UNL     1     -45.017  58.094 -55.401  1.00  0.00     0.203 HD
BRANCH  12  14
HETATM   14  C   UNL     1     -43.571  58.139 -56.791  1.00  0.00     0.742 A 
HETATM   15  N   UNL     1     -43.451  57.021 -57.525  1.00  0.00    -0.066 NA
HETATM   16  C   UNL     1     -42.990  57.139 -58.791  1.00  0.00     0.062 A 
HETATM   17  C   UNL     1     -42.886  55.856 -59.563  1.00  0.00     0.072 C 
HETATM   18  C   UNL     1     -42.630  58.369 -59.352  1.00  0.00     0.018 A 
HETATM   19  C   UNL     1     -42.792  59.466 -58.503  1.00  0.00     0.088 A 
HETATM   20  C   UNL     1     -42.129  58.565 -60.664  1.00  0.00     0.016 A 
HETATM   21  N   UNL     1     -43.255  59.353 -57.255  1.00  0.00    -0.062 NA
HETATM   22  C   UNL     1     -42.457  60.729 -58.975  1.00  0.00     0.033 A 
HETATM   23  C   UNL     1     -41.962  60.927 -60.266  1.00  0.00     0.002 A 
HETATM   24  C   UNL     1     -41.798  59.841 -61.115  1.00  0.00     0.001 A 
ENDBRANCH  12  14
ENDBRANCH   1  12
BRANCH   8  25
HETATM   25  C   UNL     1     -41.467  53.433 -51.806  1.00  0.00    -0.053 A 
HETATM   26  C   UNL     1     -40.473  52.711 -51.118  1.00  0.00     0.007 A 
HETATM   27  C   UNL     1     -39.512  51.964 -51.804  1.00  0.00     0.001 A 
HETATM   28  C   UNL     1     -39.531  51.914 -53.192  1.00  0.00     0.000 A 
HETATM   29  C   UNL     1     -40.518  52.601 -53.892  1.00  0.00     0.001 A 
HETATM   30  C   UNL     1     -41.480  53.349 -53.207  1.00  0.00     0.007 A 
ENDBRANCH   8  25
TORSDOF 3
ENDMDL
MODEL 8
REMARK VINA RESULT:      -8.6      4.702      7.553
REMARK  3 active torsions:
REMARK  status: ('A' for Active; 'I' for Inactive)
REMARK    1  A    between atoms: C_4  and  N_5 
REMARK    2  A    between atoms: N_5  and  C_6 
REMARK    3  A    between atoms: C_13  and  C_14 
ROOT
HETATM    1  C   UNL     1     -42.461  58.743 -51.261  1.00  0.00     0.741 A 
HETATM    2  N   UNL     1     -43.174  57.635 -51.523  1.00  0.00    -0.066 NA
HETATM    3  C   UNL     1     -42.661  56.436 -51.168  1.00  0.00     0.069 A 
HETATM    4  C   UNL     1     -41.448  56.320 -50.534  1.00  0.00     0.053 A 
HETATM    5  C   UNL     1     -40.907  55.014 -50.137  1.00  0.00     0.163 C 
HETATM    6  O   UNL     1     -39.854  54.955 -49.508  1.00  0.00    -0.292 OA
HETATM    7  C   UNL     1     -41.738  53.786 -50.439  1.00  0.00     0.093 C 
HETATM    8  C   UNL     1     -42.617  53.962 -51.691  1.00  0.00     0.031 C 
HETATM    9  C   UNL     1     -43.485  55.223 -51.508  1.00  0.00     0.070 C 
HETATM   10  C   UNL     1     -40.776  57.494 -50.301  1.00  0.00     0.153 A 
HETATM   11  N   UNL     1     -41.258  58.707 -50.659  1.00  0.00    -0.073 NA
ENDROOT
BRANCH   1  12
HETATM   12  N   UNL     1     -42.912  59.996 -51.611  1.00  0.00    -0.015 N 
HETATM   13  H   UNL     1     -42.920  60.169 -52.599  1.00  0.00     0.203 HD
BRANCH  12  14
HETATM   14  C   UNL     1     -43.308  61.077 -50.853  1.00  0.00     0.742 A 
HETATM   15  N   UNL     1     -43.042  62.280 -51.387  1.00  0.00    -0.066 NA
HETATM   16  C   UNL     1     -43.392  63.379 -50.683  1.00  0.00     0.062 A 
HETATM   17  C   UNL     1     -43.076  64.693 -51.338  1.00  0.00     0.072 C 
HETATM   18  C   UNL     1     -44.005  63.310 -49.428  1.00  0.00     0.018 A 
HETATM   19  C   UNL     1     -44.234  62.012 -48.964  1.00  0.00     0.088 A 
HETATM   20  C   UNL     1     -44.387  64.418 -48.630  1.00  0.00     0.016 A 
HETATM   21  N   UNL     1     -43.898  60.924 -49.662  1.00  0.00    -0.062 NA
HETATM   22  C   UNL     1     -44.838  61.845 -47.724  1.00  0.00     0.033 A 
HETATM   23  C   UNL     1     -45.215  62.934 -46.934  1.00  0.00     0.002 A 
HETATM   24  C   UNL     1     -44.988  64.226 -47.389  1.00  0.00     0.001 A 
ENDBRANCH  12  14
ENDBRANCH   1  12
BRANCH   8  25
HETATM   25  C   UNL     1     -41.806  53.869 -52.984  1.00  0.00    -0.053 A 
HETATM   26  C   UNL     1     -42.090  54.772 -54.025  1.00  0.00     0.007 A 
HETATM   27  C   UNL     1     -41.391  54.730 -55.234  1.00  0.00     0.001 A 
HETATM   28  C   UNL     1     -40.385  53.790 -55.423  1.00  0.00     0.000 A 
HETATM   29  C   UNL     1     -40.072  52.901 -54.400  1.00  0.00     0.001 A 
HETATM   30  C   UNL     1     -40.772  52.943 -53.189  1.00  0.00     0.007 A 
ENDBRANCH   8  25
TORSDOF 3
ENDMDL
MODEL 9
REMARK VINA RESULT:      -8.6      4.624      8.205
REMARK  3 active torsions:
REMARK  status: ('A' for Active; 'I' for Inactive)
REMARK    1  A    between atoms: C_4  and  N_5 
REMARK    2  A    between atoms: N_5  and  C_6 
REMARK    3  A    between atoms: C_13  and  C_14 
ROOT
HETATM    1  C   UNL     1     -42.611  57.062 -52.594  1.00  0.00     0.741 A 
HETATM    2  N   UNL     1     -42.110  58.205 -52.095  1.00  0.00    -0.066 NA
HETATM    3  C   UNL     1     -42.939  59.039 -51.430  1.00  0.00     0.069 A 
HETATM    4  C   UNL     1     -44.267  58.746 -51.233  1.00  0.00     0.053 A 
HETATM    5  C   UNL     1     -45.156  59.652 -50.495  1.00  0.00     0.163 C 
HETATM    6  O   UNL     1     -46.319  59.323 -50.277  1.00  0.00    -0.292 OA
HETATM    7  C   UNL     1     -44.559  60.926 -49.939  1.00  0.00     0.093 C 
HETATM    8  C   UNL     1     -43.382  61.445 -50.786  1.00  0.00     0.031 C 
HETATM    9  C   UNL     1     -42.337  60.319 -50.915  1.00  0.00     0.070 C 
HETATM   10  C   UNL     1     -44.708  57.563 -51.773  1.00  0.00     0.153 A 
HETATM   11  N   UNL     1     -43.905  56.716 -52.457  1.00  0.00    -0.073 NA
ENDROOT
BRANCH   1  12
HETATM   12  N   UNL     1     -41.830  56.174 -53.298  1.00  0.00    -0.015 N 
HETATM   13  H   UNL     1     -41.641  56.452 -54.243  1.00  0.00     0.203 HD
BRANCH  12  14
HETATM   14  C   UNL     1     -41.300  54.947 -52.962  1.00  0.00     0.742 A 
HETATM   15  N   UNL     1     -40.923  54.818 -51.680  1.00  0.00    -0.066 NA
HETATM   16  C   UNL     1     -40.380  53.642 -51.292  1.00  0.00     0.062 A 
HETATM   17  C   UNL     1     -39.987  53.557 -49.845  1.00  0.00     0.072 C 
HETATM   18  C   UNL     1     -40.191  52.571 -52.171  1.00  0.00     0.018 A 
HETATM   19  C   UNL     1     -40.616  52.811 -53.480  1.00  0.00     0.088 A 
HETATM   20  C   UNL     1     -39.619  51.317 -51.838  1.00  0.00     0.016 A 
HETATM   21  N   UNL     1     -41.160  53.968 -53.863  1.00  0.00    -0.062 NA
HETATM   22  C   UNL     1     -40.465  51.803 -54.424  1.00  0.00     0.033 A 
HETATM   23  C   UNL     1     -39.901  50.566 -54.101  1.00  0.00     0.002 A 
HETATM   24  C   UNL     1     -39.476  50.322 -52.802  1.00  0.00     0.001 A 
ENDBRANCH  12  14
ENDBRANCH   1  12
BRANCH   8  25
HETATM   25  C   UNL     1     -43.850  62.099 -52.087  1.00  0.00    -0.053 A 
HETATM   26  C   UNL     1     -43.039  61.982 -53.231  1.00  0.00     0.007 A 
HETATM   27  C   UNL     1     -43.407  62.566 -54.445  1.00  0.00     0.001 A 
HETATM   28  C   UNL     1     -44.601  63.270 -54.544  1.00  0.00     0.000 A 
HETATM   29  C   UNL     1     -45.429  63.380 -53.433  1.00  0.00     0.001 A 
HETATM   30  C   UNL     1     -45.061  62.796 -52.216  1.00  0.00     0.007 A 
ENDBRANCH   8  25
TORSDOF 3
ENDMDL
MODEL 10
REMARK VINA RESULT:      -8.5      3.806      7.647
REMARK  3 active torsions:
REMARK  status: ('A' for Active; 'I' for Inactive)
REMARK    1  A    between atoms: C_4  and  N_5 
REMARK    2  A    between atoms: N_5  and  C_6 
REMARK    3  A    between atoms: C_13  and  C_14 
ROOT
HETATM    1  C   UNL     1     -44.073  57.021 -51.093  1.00  0.00     0.741 A 
HETATM    2  N   UNL     1     -43.068  57.899 -51.248  1.00  0.00    -0.066 NA
HETATM    3  C   UNL     1     -43.353  59.220 -51.231  1.00  0.00     0.069 A 
HETATM    4  C   UNL     1     -44.631  59.688 -51.042  1.00  0.00     0.053 A 
HETATM    5  C   UNL     1     -44.930  61.125 -51.009  1.00  0.00     0.163 C 
HETATM    6  O   UNL     1     -46.071  61.507 -50.767  1.00  0.00    -0.292 OA
HETATM    7  C   UNL     1     -43.774  62.088 -51.178  1.00  0.00     0.093 C 
HETATM    8  C   UNL     1     -42.644  61.506 -52.047  1.00  0.00     0.031 C 
HETATM    9  C   UNL     1     -42.199  60.163 -51.437  1.00  0.00     0.070 C 
HETATM   10  C   UNL     1     -45.606  58.733 -50.893  1.00  0.00     0.153 A 
HETATM   11  N   UNL     1     -45.352  57.404 -50.921  1.00  0.00    -0.073 NA
ENDROOT
BRANCH   1  12
HETATM   12  N   UNL     1     -43.859  55.661 -51.117  1.00  0.00    -0.015 N 
HETATM   13  H   UNL     1     -44.370  55.152 -50.421  1.00  0.00     0.203 HD
BRANCH  12  14
HETATM   14  C   UNL     1     -43.033  54.874 -51.890  1.00  0.00     0.742 A 
HETATM   15  N   UNL     1     -43.289  54.894 -53.208  1.00  0.00    -0.066 NA
HETATM   16  C   UNL     1     -42.522  54.129 -54.016  1.00  0.00     0.062 A 
HETATM   17  C   UNL     1     -42.852  54.203 -55.479  1.00  0.00     0.072 C 
HETATM   18  C   UNL     1     -41.490  53.318 -53.533  1.00  0.00     0.018 A 
HETATM   19  C   UNL     1     -41.309  53.370 -52.149  1.00  0.00     0.088 A 
HETATM   20  C   UNL     1     -40.656  52.483 -54.319  1.00  0.00     0.016 A 
HETATM   21  N   UNL     1     -42.059  54.132 -51.350  1.00  0.00    -0.062 NA
HETATM   22  C   UNL     1     -40.307  52.595 -51.580  1.00  0.00     0.033 A 
HETATM   23  C   UNL     1     -39.484  51.769 -52.349  1.00  0.00     0.002 A 
HETATM   24  C   UNL     1     -39.659  51.713 -53.726  1.00  0.00     0.001 A 
ENDBRANCH  12  14
ENDBRANCH   1  12
BRANCH   8  25
HETATM   25  C   UNL     1     -43.002  61.499 -53.534  1.00  0.00    -0.053 A 
HETATM   26  C   UNL     1     -42.384  60.553 -54.373  1.00  0.00     0.007 A 
HETATM   27  C   UNL     1     -42.662  60.504 -55.741  1.00  0.00     0.001 A 
HETATM   28  C   UNL     1     -43.574  61.393 -56.297  1.00  0.00     0.000 A 
HETATM   29  C   UNL     1     -44.214  62.322 -55.484  1.00  0.00     0.001 A 
HETATM   30  C   UNL     1     -43.935  62.372 -54.113  1.00  0.00     0.007 A 
ENDBRANCH   8  25
TORSDOF 3
ENDMDL
