MODEL 1
REMARK VINA RESULT:      -8.1      0.000      0.000
REMARK  6 active torsions:
REMARK  status: ('A' for Active; 'I' for Inactive)
REMARK    1  A    between atoms: C_5  and  C_6 
REMARK    2  A    between atoms: C_6  and  O_7 
REMARK    3  A    between atoms: C_6  and  C_8 
REMARK    4  A    between atoms: C_8  and  N_9 
REMARK       I    between atoms: N_9  and  C_10 
REMARK    5  A    between atoms: C_10  and  C_11 
REMARK    6  A    between atoms: C_11  and  C_12 
ROOT
HETATM    1  N   UNL     1     -42.928  56.544 -54.362  1.00  0.00    -0.358 N 
HETATM    2  C   UNL     1     -41.558  56.465 -54.465  1.00  0.00     0.222 C 
HETATM    3  O   UNL     1     -40.801  57.320 -54.014  1.00  0.00    -0.273 OA
HETATM    4  H   UNL     1     -43.491  55.752 -54.644  1.00  0.00     0.162 HD
ENDROOT
BRANCH   1   5
HETATM    5  C   UNL     1     -43.585  57.609 -53.618  1.00  0.00     0.159 C 
BRANCH   5   6
HETATM    6  C   UNL     1     -44.249  57.193 -52.289  1.00  0.00     0.169 C 
BRANCH   6   7
HETATM    7  C   UNL     1     -43.308  56.484 -51.335  1.00  0.00    -0.028 A 
HETATM    8  C   UNL     1     -43.607  55.191 -50.884  1.00  0.00     0.010 A 
HETATM    9  C   UNL     1     -42.759  54.536 -49.987  1.00  0.00     0.007 A 
HETATM   10  C   UNL     1     -41.599  55.163 -49.520  1.00  0.00    -0.062 A 
HETATM   11  C   UNL     1     -40.679  54.466 -48.563  1.00  0.00     0.048 C 
HETATM   12  C   UNL     1     -41.289  56.447 -49.981  1.00  0.00     0.007 A 
HETATM   13  C   UNL     1     -42.137  57.102 -50.877  1.00  0.00     0.010 A 
ENDBRANCH   6   7
BRANCH   6  14
HETATM   14  O   UNL     1     -44.758  58.367 -51.641  1.00  0.00    -0.389 OA
HETATM   15  H   UNL     1     -44.890  58.128 -50.706  1.00  0.00     0.210 HD
ENDBRANCH   6  14
ENDBRANCH   5   6
ENDBRANCH   1   5
BRANCH   2  16
HETATM   16  C   UNL     1     -41.044  55.219 -55.164  1.00  0.00     0.142 C 
BRANCH  16  17
HETATM   17  C   UNL     1     -40.713  54.079 -54.237  1.00  0.00    -0.031 A 
HETATM   18  C   UNL     1     -40.506  54.256 -52.874  1.00  0.00     0.125 A 
HETATM   19  N   UNL     1     -40.166  53.264 -52.018  1.00  0.00    -0.260 NA
HETATM   20  C   UNL     1     -39.988  52.028 -52.513  1.00  0.00     0.066 A 
HETATM   21  C   UNL     1     -40.147  51.740 -53.884  1.00  0.00    -0.007 A 
HETATM   22  C   UNL     1     -39.626  50.995 -51.660  1.00  0.00     0.032 A 
HETATM   23  C   UNL     1     -40.513  52.791 -54.739  1.00  0.00     0.022 A 
HETATM   24  C   UNL     1     -39.934  50.433 -54.359  1.00  0.00     0.014 A 
HETATM   25  C   UNL     1     -39.568  49.414 -53.480  1.00  0.00     0.001 A 
HETATM   26  C   UNL     1     -39.414  49.696 -52.128  1.00  0.00     0.002 A 
ENDBRANCH  16  17
ENDBRANCH   2  16
TORSDOF 6
ENDMDL
MODEL 2
REMARK VINA RESULT:      -8.0      4.343      6.485
REMARK  6 active torsions:
REMARK  status: ('A' for Active; 'I' for Inactive)
REMARK    1  A    between atoms: C_5  and  C_6 
REMARK    2  A    between atoms: C_6  and  O_7 
REMARK    3  A    between atoms: C_6  and  C_8 
REMARK    4  A    between atoms: C_8  and  N_9 
REMARK       I    between atoms: N_9  and  C_10 
REMARK    5  A    between atoms: C_10  and  C_11 
REMARK    6  A    between atoms: C_11  and  C_12 
ROOT
HETATM    1  N   UNL     1     -42.043  55.663 -56.880  1.00  0.00    -0.358 N 
HETATM    2  C   UNL     1     -42.064  55.144 -55.606  1.00  0.00     0.222 C 
HETATM    3  O   UNL     1     -43.076  54.685 -55.085  1.00  0.00    -0.273 OA
HETATM    4  H   UNL     1     -41.157  55.914 -57.297  1.00  0.00     0.162 HD
ENDROOT
BRANCH   1   5
HETATM    5  C   UNL     1     -43.210  55.618 -57.750  1.00  0.00     0.159 C 
BRANCH   5   6
HETATM    6  C   UNL     1     -43.925  56.964 -57.991  1.00  0.00     0.169 C 
BRANCH   6   7
HETATM    7  C   UNL     1     -45.044  56.884 -59.010  1.00  0.00    -0.028 A 
HETATM    8  C   UNL     1     -45.057  55.853 -59.959  1.00  0.00     0.010 A 
HETATM    9  C   UNL     1     -46.072  55.780 -60.918  1.00  0.00     0.007 A 
HETATM   10  C   UNL     1     -47.088  56.740 -60.949  1.00  0.00    -0.062 A 
HETATM   11  C   UNL     1     -48.185  56.668 -61.970  1.00  0.00     0.048 C 
HETATM   12  C   UNL     1     -47.088  57.761 -59.992  1.00  0.00     0.007 A 
HETATM   13  C   UNL     1     -46.074  57.834 -59.035  1.00  0.00     0.010 A 
ENDBRANCH   6   7
BRANCH   6  14
HETATM   14  O   UNL     1     -44.472  57.424 -56.747  1.00  0.00    -0.389 OA
HETATM   15  H   UNL     1     -45.240  57.977 -56.974  1.00  0.00     0.210 HD
ENDBRANCH   6  14
ENDBRANCH   5   6
ENDBRANCH   1   5
BRANCH   2  16
HETATM   16  C   UNL     1     -40.724  55.160 -54.893  1.00  0.00     0.142 C 
BRANCH  16  17
HETATM   17  C   UNL     1     -40.532  54.036 -53.908  1.00  0.00    -0.031 A 
HETATM   18  C   UNL     1     -40.542  54.233 -52.532  1.00  0.00     0.125 A 
HETATM   19  N   UNL     1     -40.332  53.256 -51.620  1.00  0.00    -0.260 NA
HETATM   20  C   UNL     1     -40.067  52.017 -52.063  1.00  0.00     0.066 A 
HETATM   21  C   UNL     1     -40.006  51.708 -53.437  1.00  0.00    -0.007 A 
HETATM   22  C   UNL     1     -39.834  50.999 -51.148  1.00  0.00     0.032 A 
HETATM   23  C   UNL     1     -40.243  52.743 -54.354  1.00  0.00     0.022 A 
HETATM   24  C   UNL     1     -39.709  50.398 -53.853  1.00  0.00     0.014 A 
HETATM   25  C   UNL     1     -39.475  49.395 -52.913  1.00  0.00     0.001 A 
HETATM   26  C   UNL     1     -39.538  49.696 -51.558  1.00  0.00     0.002 A 
ENDBRANCH  16  17
ENDBRANCH   2  16
TORSDOF 6
ENDMDL
MODEL 3
REMARK VINA RESULT:      -8.0      1.348      1.907
REMARK  6 active torsions:
REMARK  status: ('A' for Active; 'I' for Inactive)
REMARK    1  A    between atoms: C_5  and  C_6 
REMARK    2  A    between atoms: C_6  and  O_7 
REMARK    3  A    between atoms: C_6  and  C_8 
REMARK    4  A    between atoms: C_8  and  N_9 
REMARK       I    between atoms: N_9  and  C_10 
REMARK    5  A    between atoms: C_10  and  C_11 
REMARK    6  A    between atoms: C_11  and  C_12 
ROOT
HETATM    1  N   UNL     1     -41.869  56.312 -54.385  1.00  0.00    -0.358 N 
HETATM    2  C   UNL     1     -41.766  55.010 -54.818  1.00  0.00     0.222 C 
HETATM    3  O   UNL     1     -42.738  54.329 -55.131  1.00  0.00    -0.273 OA
HETATM    4  H   UNL     1     -41.027  56.859 -54.258  1.00  0.00     0.162 HD
ENDROOT
BRANCH   1   5
HETATM    5  C   UNL     1     -43.141  57.018 -54.358  1.00  0.00     0.159 C 
BRANCH   5   6
HETATM    6  C   UNL     1     -43.865  57.054 -52.995  1.00  0.00     0.169 C 
BRANCH   6   7
HETATM    7  C   UNL     1     -43.065  56.433 -51.866  1.00  0.00    -0.028 A 
HETATM    8  C   UNL     1     -43.410  55.167 -51.374  1.00  0.00     0.010 A 
HETATM    9  C   UNL     1     -42.695  54.593 -50.320  1.00  0.00     0.007 A 
HETATM   10  C   UNL     1     -41.625  55.277 -49.734  1.00  0.00    -0.062 A 
HETATM   11  C   UNL     1     -40.846  54.667 -48.606  1.00  0.00     0.048 C 
HETATM   12  C   UNL     1     -41.267  56.533 -50.234  1.00  0.00     0.007 A 
HETATM   13  C   UNL     1     -41.982  57.107 -51.287  1.00  0.00     0.010 A 
ENDBRANCH   6   7
BRANCH   6  14
HETATM   14  O   UNL     1     -44.146  58.419 -52.658  1.00  0.00    -0.389 OA
HETATM   15  H   UNL     1     -44.939  58.668 -53.164  1.00  0.00     0.210 HD
ENDBRANCH   6  14
ENDBRANCH   5   6
ENDBRANCH   1   5
BRANCH   2  16
HETATM   16  C   UNL     1     -40.346  54.479 -54.903  1.00  0.00     0.142 C 
BRANCH  16  17
HETATM   17  C   UNL     1     -40.116  53.201 -54.141  1.00  0.00    -0.031 A 
HETATM   18  C   UNL     1     -39.817  51.997 -54.768  1.00  0.00     0.125 A 
HETATM   19  N   UNL     1     -39.644  50.821 -54.120  1.00  0.00    -0.260 NA
HETATM   20  C   UNL     1     -39.798  50.800 -52.786  1.00  0.00     0.066 A 
HETATM   21  C   UNL     1     -40.126  51.956 -52.051  1.00  0.00    -0.007 A 
HETATM   22  C   UNL     1     -39.640  49.604 -52.099  1.00  0.00     0.032 A 
HETATM   23  C   UNL     1     -40.283  53.161 -52.754  1.00  0.00     0.022 A 
HETATM   24  C   UNL     1     -40.292  51.882 -50.656  1.00  0.00     0.014 A 
HETATM   25  C   UNL     1     -40.131  50.667 -49.990  1.00  0.00     0.001 A 
HETATM   26  C   UNL     1     -39.804  49.526 -50.713  1.00  0.00     0.002 A 
ENDBRANCH  16  17
ENDBRANCH   2  16
TORSDOF 6
ENDMDL
MODEL 4
REMARK VINA RESULT:      -7.7      3.907      6.326
REMARK  6 active torsions:
REMARK  status: ('A' for Active; 'I' for Inactive)
REMARK    1  A    between atoms: C_5  and  C_6 
REMARK    2  A    between atoms: C_6  and  O_7 
REMARK    3  A    between atoms: C_6  and  C_8 
REMARK    4  A    between atoms: C_8  and  N_9 
REMARK       I    between atoms: N_9  and  C_10 
REMARK    5  A    between atoms: C_10  and  C_11 
REMARK    6  A    between atoms: C_11  and  C_12 
ROOT
HETATM    1  N   UNL     1     -42.068  56.720 -55.441  1.00  0.00    -0.358 N 
HETATM    2  C   UNL     1     -42.297  55.947 -54.326  1.00  0.00     0.222 C 
HETATM    3  O   UNL     1     -43.403  55.499 -54.036  1.00  0.00    -0.273 OA
HETATM    4  H   UNL     1     -41.117  56.957 -55.691  1.00  0.00     0.162 HD
ENDROOT
BRANCH   1   5
HETATM    5  C   UNL     1     -43.110  56.986 -56.422  1.00  0.00     0.159 C 
BRANCH   5   6
HETATM    6  C   UNL     1     -42.822  56.507 -57.860  1.00  0.00     0.169 C 
BRANCH   6   7
HETATM    7  C   UNL     1     -44.045  56.502 -58.756  1.00  0.00    -0.028 A 
HETATM    8  C   UNL     1     -45.035  57.481 -58.600  1.00  0.00     0.010 A 
HETATM    9  C   UNL     1     -46.177  57.474 -59.404  1.00  0.00     0.007 A 
HETATM   10  C   UNL     1     -46.355  56.484 -60.376  1.00  0.00    -0.062 A 
HETATM   11  C   UNL     1     -47.574  56.471 -61.249  1.00  0.00     0.048 C 
HETATM   12  C   UNL     1     -45.361  55.514 -60.546  1.00  0.00     0.007 A 
HETATM   13  C   UNL     1     -44.219  55.521 -59.742  1.00  0.00     0.010 A 
ENDBRANCH   6   7
BRANCH   6  14
HETATM   14  O   UNL     1     -41.833  57.368 -58.443  1.00  0.00    -0.389 OA
HETATM   15  H   UNL     1     -41.877  57.222 -59.404  1.00  0.00     0.210 HD
ENDBRANCH   6  14
ENDBRANCH   5   6
ENDBRANCH   1   5
BRANCH   2  16
HETATM   16  C   UNL     1     -41.066  55.666 -53.484  1.00  0.00     0.142 C 
BRANCH  16  17
HETATM   17  C   UNL     1     -40.652  54.219 -53.454  1.00  0.00    -0.031 A 
HETATM   18  C   UNL     1     -40.516  53.452 -54.605  1.00  0.00     0.125 A 
HETATM   19  N   UNL     1     -40.187  52.139 -54.614  1.00  0.00    -0.260 NA
HETATM   20  C   UNL     1     -40.004  51.520 -53.436  1.00  0.00     0.066 A 
HETATM   21  C   UNL     1     -40.140  52.194 -52.206  1.00  0.00    -0.007 A 
HETATM   22  C   UNL     1     -39.679  50.171 -53.416  1.00  0.00     0.032 A 
HETATM   23  C   UNL     1     -40.469  53.558 -52.235  1.00  0.00     0.022 A 
HETATM   24  C   UNL     1     -39.954  51.499 -50.997  1.00  0.00     0.014 A 
HETATM   25  C   UNL     1     -39.631  50.143 -51.005  1.00  0.00     0.001 A 
HETATM   26  C   UNL     1     -39.493  49.477 -52.217  1.00  0.00     0.002 A 
ENDBRANCH  16  17
ENDBRANCH   2  16
TORSDOF 6
ENDMDL
MODEL 5
REMARK VINA RESULT:      -7.7      2.976      5.516
REMARK  6 active torsions:
REMARK  status: ('A' for Active; 'I' for Inactive)
REMARK    1  A    between atoms: C_5  and  C_6 
REMARK    2  A    between atoms: C_6  and  O_7 
REMARK    3  A    between atoms: C_6  and  C_8 
REMARK    4  A    between atoms: C_8  and  N_9 
REMARK       I    between atoms: N_9  and  C_10 
REMARK    5  A    between atoms: C_10  and  C_11 
REMARK    6  A    between atoms: C_11  and  C_12 
ROOT
HETATM    1  N   UNL     1     -42.812  56.096 -53.821  1.00  0.00    -0.358 N 
HETATM    2  C   UNL     1     -41.557  56.286 -53.289  1.00  0.00     0.222 C 
HETATM    3  O   UNL     1     -40.674  56.916 -53.862  1.00  0.00    -0.273 OA
HETATM    4  H   UNL     1     -43.533  55.674 -53.250  1.00  0.00     0.162 HD
ENDROOT
BRANCH   1   5
HETATM    5  C   UNL     1     -43.221  56.717 -55.073  1.00  0.00     0.159 C 
BRANCH   5   6
HETATM    6  C   UNL     1     -42.922  55.912 -56.355  1.00  0.00     0.169 C 
BRANCH   6   7
HETATM    7  C   UNL     1     -42.672  56.780 -57.573  1.00  0.00    -0.028 A 
HETATM    8  C   UNL     1     -42.795  56.237 -58.859  1.00  0.00     0.010 A 
HETATM    9  C   UNL     1     -42.546  57.020 -59.990  1.00  0.00     0.007 A 
HETATM   10  C   UNL     1     -42.164  58.359 -59.855  1.00  0.00    -0.062 A 
HETATM   11  C   UNL     1     -41.901  59.210 -61.062  1.00  0.00     0.048 C 
HETATM   12  C   UNL     1     -42.057  58.908 -58.573  1.00  0.00     0.007 A 
HETATM   13  C   UNL     1     -42.305  58.126 -57.443  1.00  0.00     0.010 A 
ENDBRANCH   6   7
BRANCH   6  14
HETATM   14  O   UNL     1     -41.763  55.098 -56.128  1.00  0.00    -0.389 OA
HETATM   15  H   UNL     1     -41.038  55.710 -55.910  1.00  0.00     0.210 HD
ENDBRANCH   6  14
ENDBRANCH   5   6
ENDBRANCH   1   5
BRANCH   2  16
HETATM   16  C   UNL     1     -41.351  55.671 -51.916  1.00  0.00     0.142 C 
BRANCH  16  17
HETATM   17  C   UNL     1     -40.905  54.233 -51.941  1.00  0.00    -0.031 A 
HETATM   18  C   UNL     1     -40.453  53.567 -50.808  1.00  0.00     0.125 A 
HETATM   19  N   UNL     1     -40.006  52.289 -50.801  1.00  0.00    -0.260 NA
HETATM   20  C   UNL     1     -39.965  51.622 -51.965  1.00  0.00     0.066 A 
HETATM   21  C   UNL     1     -40.375  52.207 -53.180  1.00  0.00    -0.007 A 
HETATM   22  C   UNL     1     -39.498  50.315 -51.988  1.00  0.00     0.032 A 
HETATM   23  C   UNL     1     -40.846  53.529 -53.147  1.00  0.00     0.022 A 
HETATM   24  C   UNL     1     -40.299  51.473 -54.377  1.00  0.00     0.014 A 
HETATM   25  C   UNL     1     -39.822  50.163 -54.373  1.00  0.00     0.001 A 
HETATM   26  C   UNL     1     -39.421  49.582 -53.176  1.00  0.00     0.002 A 
ENDBRANCH  16  17
ENDBRANCH   2  16
TORSDOF 6
ENDMDL
MODEL 6
REMARK VINA RESULT:      -7.7      3.953      6.205
REMARK  6 active torsions:
REMARK  status: ('A' for Active; 'I' for Inactive)
REMARK    1  A    between atoms: C_5  and  C_6 
REMARK    2  A    between atoms: C_6  and  O_7 
REMARK    3  A    between atoms: C_6  and  C_8 
REMARK    4  A    between atoms: C_8  and  N_9 
REMARK       I    between atoms: N_9  and  C_10 
REMARK    5  A    between atoms: C_10  and  C_11 
REMARK    6  A    between atoms: C_11  and  C_12 
ROOT
HETATM    1  N   UNL     1     -42.060  55.918 -56.817  1.00  0.00    -0.358 N 
HETATM    2  C   UNL     1     -42.042  55.166 -55.665  1.00  0.00     0.222 C 
HETATM    3  O   UNL     1     -42.994  54.486 -55.294  1.00  0.00    -0.273 OA
HETATM    4  H   UNL     1     -41.206  56.359 -57.133  1.00  0.00     0.162 HD
ENDROOT
BRANCH   1   5
HETATM    5  C   UNL     1     -43.185  55.889 -57.740  1.00  0.00     0.159 C 
BRANCH   5   6
HETATM    6  C   UNL     1     -43.998  57.195 -57.856  1.00  0.00     0.169 C 
BRANCH   6   7
HETATM    7  C   UNL     1     -43.314  58.266 -58.682  1.00  0.00    -0.028 A 
HETATM    8  C   UNL     1     -43.378  59.608 -58.285  1.00  0.00     0.010 A 
HETATM    9  C   UNL     1     -42.770  60.608 -59.050  1.00  0.00     0.007 A 
HETATM   10  C   UNL     1     -42.091  60.284 -60.229  1.00  0.00    -0.062 A 
HETATM   11  C   UNL     1     -41.429  61.348 -61.054  1.00  0.00     0.048 C 
HETATM   12  C   UNL     1     -42.010  58.943 -60.619  1.00  0.00     0.007 A 
HETATM   13  C   UNL     1     -42.618  57.944 -59.856  1.00  0.00     0.010 A 
ENDBRANCH   6   7
BRANCH   6  14
HETATM   14  O   UNL     1     -45.267  56.897 -58.455  1.00  0.00    -0.389 OA
HETATM   15  H   UNL     1     -45.629  56.139 -57.964  1.00  0.00     0.210 HD
ENDBRANCH   6  14
ENDBRANCH   5   6
ENDBRANCH   1   5
BRANCH   2  16
HETATM   16  C   UNL     1     -40.736  55.220 -54.892  1.00  0.00     0.142 C 
BRANCH  16  17
HETATM   17  C   UNL     1     -40.538  54.079 -53.929  1.00  0.00    -0.031 A 
HETATM   18  C   UNL     1     -40.540  54.252 -52.550  1.00  0.00     0.125 A 
HETATM   19  N   UNL     1     -40.324  53.260 -51.655  1.00  0.00    -0.260 NA
HETATM   20  C   UNL     1     -40.062  52.028 -52.121  1.00  0.00     0.066 A 
HETATM   21  C   UNL     1     -40.011  51.743 -53.500  1.00  0.00    -0.007 A 
HETATM   22  C   UNL     1     -39.824  50.995 -51.226  1.00  0.00     0.032 A 
HETATM   23  C   UNL     1     -40.253  52.794 -54.399  1.00  0.00     0.022 A 
HETATM   24  C   UNL     1     -39.717  50.440 -53.941  1.00  0.00     0.014 A 
HETATM   25  C   UNL     1     -39.478  49.421 -53.020  1.00  0.00     0.001 A 
HETATM   26  C   UNL     1     -39.532  49.699 -51.660  1.00  0.00     0.002 A 
ENDBRANCH  16  17
ENDBRANCH   2  16
TORSDOF 6
ENDMDL
MODEL 7
REMARK VINA RESULT:      -7.6      1.696      3.822
REMARK  6 active torsions:
REMARK  status: ('A' for Active; 'I' for Inactive)
REMARK    1  A    between atoms: C_5  and  C_6 
REMARK    2  A    between atoms: C_6  and  O_7 
REMARK    3  A    between atoms: C_6  and  C_8 
REMARK    4  A    between atoms: C_8  and  N_9 
REMARK       I    between atoms: N_9  and  C_10 
REMARK    5  A    between atoms: C_10  and  C_11 
REMARK    6  A    between atoms: C_11  and  C_12 
ROOT
HETATM    1  N   UNL     1     -42.457  57.889 -50.799  1.00  0.00    -0.358 N 
HETATM    2  C   UNL     1     -41.390  57.081 -50.478  1.00  0.00     0.222 C 
HETATM    3  O   UNL     1     -40.224  57.388 -50.709  1.00  0.00    -0.273 OA
HETATM    4  H   UNL     1     -43.382  57.637 -50.475  1.00  0.00     0.162 HD
ENDROOT
BRANCH   1   5
HETATM    5  C   UNL     1     -42.276  59.222 -51.354  1.00  0.00     0.159 C 
BRANCH   5   6
HETATM    6  C   UNL     1     -42.745  59.417 -52.811  1.00  0.00     0.169 C 
BRANCH   6   7
HETATM    7  C   UNL     1     -42.854  58.122 -53.592  1.00  0.00    -0.028 A 
HETATM    8  C   UNL     1     -41.729  57.596 -54.241  1.00  0.00     0.010 A 
HETATM    9  C   UNL     1     -41.821  56.415 -54.983  1.00  0.00     0.007 A 
HETATM   10  C   UNL     1     -43.042  55.741 -55.094  1.00  0.00    -0.062 A 
HETATM   11  C   UNL     1     -43.150  54.470 -55.881  1.00  0.00     0.048 C 
HETATM   12  C   UNL     1     -44.163  56.254 -54.433  1.00  0.00     0.007 A 
HETATM   13  C   UNL     1     -44.071  57.435 -53.693  1.00  0.00     0.010 A 
ENDBRANCH   6   7
BRANCH   6  14
HETATM   14  O   UNL     1     -44.030  60.054 -52.800  1.00  0.00    -0.389 OA
HETATM   15  H   UNL     1     -44.575  59.580 -53.453  1.00  0.00     0.210 HD
ENDBRANCH   6  14
ENDBRANCH   5   6
ENDBRANCH   1   5
BRANCH   2  16
HETATM   16  C   UNL     1     -41.763  55.780 -49.790  1.00  0.00     0.142 C 
BRANCH  16  17
HETATM   17  C   UNL     1     -41.206  54.547 -50.452  1.00  0.00    -0.031 A 
HETATM   18  C   UNL     1     -40.525  53.561 -49.750  1.00  0.00     0.125 A 
HETATM   19  N   UNL     1     -39.975  52.461 -50.316  1.00  0.00    -0.260 NA
HETATM   20  C   UNL     1     -40.065  52.318 -51.648  1.00  0.00     0.066 A 
HETATM   21  C   UNL     1     -40.712  53.270 -52.462  1.00  0.00    -0.007 A 
HETATM   22  C   UNL     1     -39.499  51.207 -52.257  1.00  0.00     0.032 A 
HETATM   23  C   UNL     1     -41.282  54.390 -51.839  1.00  0.00     0.022 A 
HETATM   24  C   UNL     1     -40.768  53.085 -53.856  1.00  0.00     0.014 A 
HETATM   25  C   UNL     1     -40.187  51.960 -54.442  1.00  0.00     0.001 A 
HETATM   26  C   UNL     1     -39.552  51.019 -53.641  1.00  0.00     0.002 A 
ENDBRANCH  16  17
ENDBRANCH   2  16
TORSDOF 6
ENDMDL
MODEL 8
REMARK VINA RESULT:      -7.5      2.644      6.333
REMARK  6 active torsions:
REMARK  status: ('A' for Active; 'I' for Inactive)
REMARK    1  A    between atoms: C_5  and  C_6 
REMARK    2  A    between atoms: C_6  and  O_7 
REMARK    3  A    between atoms: C_6  and  C_8 
REMARK    4  A    between atoms: C_8  and  N_9 
REMARK       I    between atoms: N_9  and  C_10 
REMARK    5  A    between atoms: C_10  and  C_11 
REMARK    6  A    between atoms: C_11  and  C_12 
ROOT
HETATM    1  N   UNL     1     -43.632  55.619 -52.781  1.00  0.00    -0.358 N 
HETATM    2  C   UNL     1     -43.839  56.974 -52.900  1.00  0.00     0.222 C 
HETATM    3  O   UNL     1     -43.367  57.796 -52.119  1.00  0.00    -0.273 OA
HETATM    4  H   UNL     1     -43.945  55.005 -53.521  1.00  0.00     0.162 HD
ENDROOT
BRANCH   1   5
HETATM    5  C   UNL     1     -42.749  55.060 -51.768  1.00  0.00     0.159 C 
BRANCH   5   6
HETATM    6  C   UNL     1     -41.249  55.018 -52.129  1.00  0.00     0.169 C 
BRANCH   6   7
HETATM    7  C   UNL     1     -40.792  53.679 -52.673  1.00  0.00    -0.028 A 
HETATM    8  C   UNL     1     -40.066  52.799 -51.858  1.00  0.00     0.010 A 
HETATM    9  C   UNL     1     -39.621  51.572 -52.355  1.00  0.00     0.007 A 
HETATM   10  C   UNL     1     -39.887  51.202 -53.677  1.00  0.00    -0.062 A 
HETATM   11  C   UNL     1     -39.419  49.884 -54.218  1.00  0.00     0.048 C 
HETATM   12  C   UNL     1     -40.626  52.070 -54.488  1.00  0.00     0.007 A 
HETATM   13  C   UNL     1     -41.071  53.298 -53.993  1.00  0.00     0.010 A 
ENDBRANCH   6   7
BRANCH   6  14
HETATM   14  O   UNL     1     -40.984  56.026 -53.114  1.00  0.00    -0.389 OA
HETATM   15  H   UNL     1     -40.057  55.906 -53.385  1.00  0.00     0.210 HD
ENDBRANCH   6  14
ENDBRANCH   5   6
ENDBRANCH   1   5
BRANCH   2  16
HETATM   16  C   UNL     1     -44.684  57.385 -54.092  1.00  0.00     0.142 C 
BRANCH  16  17
HETATM   17  C   UNL     1     -43.903  57.605 -55.360  1.00  0.00    -0.031 A 
HETATM   18  C   UNL     1     -43.238  58.793 -55.637  1.00  0.00     0.125 A 
HETATM   19  N   UNL     1     -42.561  59.042 -56.782  1.00  0.00    -0.260 NA
HETATM   20  C   UNL     1     -42.549  58.093 -57.733  1.00  0.00     0.066 A 
HETATM   21  C   UNL     1     -43.211  56.859 -57.570  1.00  0.00    -0.007 A 
HETATM   22  C   UNL     1     -41.874  58.327 -58.924  1.00  0.00     0.032 A 
HETATM   23  C   UNL     1     -43.891  56.632 -56.364  1.00  0.00     0.022 A 
HETATM   24  C   UNL     1     -43.183  55.903 -58.601  1.00  0.00     0.014 A 
HETATM   25  C   UNL     1     -42.501  56.164 -59.789  1.00  0.00     0.001 A 
HETATM   26  C   UNL     1     -41.844  57.379 -59.950  1.00  0.00     0.002 A 
ENDBRANCH  16  17
ENDBRANCH   2  16
TORSDOF 6
ENDMDL
MODEL 9
REMARK VINA RESULT:      -7.4      2.009      2.966
REMARK  6 active torsions:
REMARK  status: ('A' for Active; 'I' for Inactive)
REMARK    1  A    between atoms: C_5  and  C_6 
REMARK    2  A    between atoms: C_6  and  O_7 
REMARK    3  A    between atoms: C_6  and  C_8 
REMARK    4  A    between atoms: C_8  and  N_9 
REMARK       I    between atoms: N_9  and  C_10 
REMARK    5  A    between atoms: C_10  and  C_11 
REMARK    6  A    between atoms: C_11  and  C_12 
ROOT
HETATM    1  N   UNL     1     -43.074  55.993 -53.943  1.00  0.00    -0.358 N 
HETATM    2  C   UNL     1     -41.788  56.351 -54.278  1.00  0.00     0.222 C 
HETATM    3  O   UNL     1     -41.340  57.480 -54.105  1.00  0.00    -0.273 OA
HETATM    4  H   UNL     1     -43.346  55.020 -53.996  1.00  0.00     0.162 HD
ENDROOT
BRANCH   1   5
HETATM    5  C   UNL     1     -43.977  56.909 -53.261  1.00  0.00     0.159 C 
BRANCH   5   6
HETATM    6  C   UNL     1     -43.724  57.109 -51.752  1.00  0.00     0.169 C 
BRANCH   6   7
HETATM    7  C   UNL     1     -43.511  58.558 -51.359  1.00  0.00    -0.028 A 
HETATM    8  C   UNL     1     -44.598  59.441 -51.313  1.00  0.00     0.010 A 
HETATM    9  C   UNL     1     -44.411  60.783 -50.973  1.00  0.00     0.007 A 
HETATM   10  C   UNL     1     -43.133  61.270 -50.678  1.00  0.00    -0.062 A 
HETATM   11  C   UNL     1     -42.923  62.707 -50.306  1.00  0.00     0.048 C 
HETATM   12  C   UNL     1     -42.048  60.387 -50.706  1.00  0.00     0.007 A 
HETATM   13  C   UNL     1     -42.234  59.045 -51.047  1.00  0.00     0.010 A 
ENDBRANCH   6   7
BRANCH   6  14
HETATM   14  O   UNL     1     -44.850  56.599 -51.025  1.00  0.00    -0.389 OA
HETATM   15  H   UNL     1     -44.496  55.947 -50.395  1.00  0.00     0.210 HD
ENDBRANCH   6  14
ENDBRANCH   5   6
ENDBRANCH   1   5
BRANCH   2  16
HETATM   16  C   UNL     1     -40.949  55.229 -54.863  1.00  0.00     0.142 C 
BRANCH  16  17
HETATM   17  C   UNL     1     -40.669  54.100 -53.906  1.00  0.00    -0.031 A 
HETATM   18  C   UNL     1     -40.534  54.293 -52.536  1.00  0.00     0.125 A 
HETATM   19  N   UNL     1     -40.242  53.311 -51.652  1.00  0.00    -0.260 NA
HETATM   20  C   UNL     1     -40.039  52.070 -52.122  1.00  0.00     0.066 A 
HETATM   21  C   UNL     1     -40.125  51.765 -53.496  1.00  0.00    -0.007 A 
HETATM   22  C   UNL     1     -39.724  51.046 -51.239  1.00  0.00     0.032 A 
HETATM   23  C   UNL     1     -40.444  52.806 -54.382  1.00  0.00     0.022 A 
HETATM   24  C   UNL     1     -39.888  50.453 -53.943  1.00  0.00     0.014 A 
HETATM   25  C   UNL     1     -39.570  49.444 -53.035  1.00  0.00     0.001 A 
HETATM   26  C   UNL     1     -39.489  49.741 -51.680  1.00  0.00     0.002 A 
ENDBRANCH  16  17
ENDBRANCH   2  16
TORSDOF 6
ENDMDL
MODEL 10
REMARK VINA RESULT:      -7.4     14.671     16.643
REMARK  6 active torsions:
REMARK  status: ('A' for Active; 'I' for Inactive)
REMARK    1  A    between atoms: C_5  and  C_6 
REMARK    2  A    between atoms: C_6  and  O_7 
REMARK    3  A    between atoms: C_6  and  C_8 
REMARK    4  A    between atoms: C_8  and  N_9 
REMARK       I    between atoms: N_9  and  C_10 
REMARK    5  A    between atoms: C_10  and  C_11 
REMARK    6  A    between atoms: C_11  and  C_12 
ROOT
HETATM    1  N   UNL     1     -32.215  40.718 -53.161  1.00  0.00    -0.358 N 
HETATM    2  C   UNL     1     -31.840  39.604 -53.877  1.00  0.00     0.222 C 
HETATM    3  O   UNL     1     -31.609  38.517 -53.355  1.00  0.00    -0.273 OA
HETATM    4  H   UNL     1     -32.508  41.549 -53.657  1.00  0.00     0.162 HD
ENDROOT
BRANCH   1   5
HETATM    5  C   UNL     1     -32.462  40.665 -51.727  1.00  0.00     0.159 C 
BRANCH   5   6
HETATM    6  C   UNL     1     -33.826  40.083 -51.299  1.00  0.00     0.169 C 
BRANCH   6   7
HETATM    7  C   UNL     1     -34.945  40.371 -52.281  1.00  0.00    -0.028 A 
HETATM    8  C   UNL     1     -35.474  41.664 -52.384  1.00  0.00     0.010 A 
HETATM    9  C   UNL     1     -36.521  41.937 -53.269  1.00  0.00     0.007 A 
HETATM   10  C   UNL     1     -37.061  40.921 -54.064  1.00  0.00    -0.062 A 
HETATM   11  C   UNL     1     -38.179  41.205 -55.022  1.00  0.00     0.048 C 
HETATM   12  C   UNL     1     -36.523  39.632 -53.976  1.00  0.00     0.007 A 
HETATM   13  C   UNL     1     -35.478  39.359 -53.091  1.00  0.00     0.010 A 
ENDBRANCH   6   7
BRANCH   6  14
HETATM   14  O   UNL     1     -33.697  38.662 -51.157  1.00  0.00    -0.389 OA
HETATM   15  H   UNL     1     -33.186  38.514 -50.342  1.00  0.00     0.210 HD
ENDBRANCH   6  14
ENDBRANCH   5   6
ENDBRANCH   1   5
BRANCH   2  16
HETATM   16  C   UNL     1     -31.754  39.814 -55.378  1.00  0.00     0.142 C 
BRANCH  16  17
HETATM   17  C   UNL     1     -33.082  39.782 -56.086  1.00  0.00    -0.031 A 
HETATM   18  C   UNL     1     -33.675  38.602 -56.518  1.00  0.00     0.125 A 
HETATM   19  N   UNL     1     -34.846  38.538 -57.194  1.00  0.00    -0.260 NA
HETATM   20  C   UNL     1     -35.471  39.688 -57.495  1.00  0.00     0.066 A 
HETATM   21  C   UNL     1     -34.948  40.944 -57.129  1.00  0.00    -0.007 A 
HETATM   22  C   UNL     1     -36.667  39.652 -58.199  1.00  0.00     0.032 A 
HETATM   23  C   UNL     1     -33.739  40.971 -56.417  1.00  0.00     0.022 A 
HETATM   24  C   UNL     1     -35.631  42.122 -57.481  1.00  0.00     0.014 A 
HETATM   25  C   UNL     1     -36.829  42.058 -58.192  1.00  0.00     0.001 A 
HETATM   26  C   UNL     1     -37.348  40.820 -58.551  1.00  0.00     0.002 A 
ENDBRANCH  16  17
ENDBRANCH   2  16
TORSDOF 6
ENDMDL
