MODEL 1
REMARK VINA RESULT:      -7.4      0.000      0.000
REMARK  10 active torsions:
REMARK  status: ('A' for Active; 'I' for Inactive)
REMARK    1  A    between atoms: O_2  and  C_3 
REMARK    2  A    between atoms: C_4  and  C_5 
REMARK       I    between atoms: C_5  and  N_6 
REMARK    3  A    between atoms: N_6  and  C_7 
REMARK    4  A    between atoms: C_7  and  N_8 
REMARK    5  A    between atoms: N_8  and  C_9 
REMARK    6  A    between atoms: C_10  and  C_11 
REMARK       I    between atoms: C_11  and  N_12 
REMARK    7  A    between atoms: N_12  and  C_13 
REMARK    8  A    between atoms: C_13  and  C_14 
REMARK    9  A    between atoms: C_14  and  C_15 
REMARK   10  A    between atoms: C_15  and  O_16 
ROOT
HETATM    1  N   UNL     1     -41.842  56.955 -53.332  1.00  0.00    -0.332 N 
HETATM    2  H   UNL     1     -41.013  57.289 -53.818  1.00  0.00     0.168 HD
ENDROOT
BRANCH   1   3
HETATM    3  C   UNL     1     -41.585  56.031 -52.380  1.00  0.00     0.179 C 
HETATM    4  S   UNL     1     -41.266  56.543 -50.820  1.00  0.00    -0.040 SA
BRANCH   3   5
HETATM    5  N   UNL     1     -41.501  54.703 -52.661  1.00  0.00    -0.299 N 
HETATM    6  C   UNL     1     -40.623  54.115 -53.568  1.00  0.00     0.260 C 
HETATM    7  O   UNL     1     -40.125  54.686 -54.534  1.00  0.00    -0.267 OA
HETATM    8  H   UNL     1     -41.655  54.138 -51.832  1.00  0.00     0.171 HD
BRANCH   6   9
HETATM    9  C   UNL     1     -40.298  52.665 -53.336  1.00  0.00     0.065 A 
HETATM   10  C   UNL     1     -39.798  52.153 -52.120  1.00  0.00     0.084 A 
HETATM   11  C   UNL     1     -39.495  50.788 -52.024  1.00  0.00     0.038 A 
HETATM   12  C   UNL     1     -39.672  49.940 -53.120  1.00  0.00     0.003 A 
HETATM   13  C   UNL     1     -40.157  50.443 -54.322  1.00  0.00     0.001 A 
HETATM   14  C   UNL     1     -40.466  51.799 -54.430  1.00  0.00     0.020 A 
BRANCH  10  15
HETATM   15  O   UNL     1     -39.641  53.033 -51.079  1.00  0.00    -0.355 OA
HETATM   16  C   UNL     1     -40.393  52.799 -49.891  1.00  0.00     0.210 C 
ENDBRANCH  10  15
ENDBRANCH   6   9
ENDBRANCH   3   5
ENDBRANCH   1   3
BRANCH   1  17
HETATM   17  C   UNL     1     -43.015  57.708 -53.590  1.00  0.00     0.050 A 
HETATM   18  C   UNL     1     -43.797  57.411 -54.728  1.00  0.00     0.058 A 
HETATM   19  C   UNL     1     -44.866  58.242 -55.093  1.00  0.00     0.019 A 
HETATM   20  C   UNL     1     -45.185  59.353 -54.315  1.00  0.00     0.001 A 
HETATM   21  C   UNL     1     -44.439  59.636 -53.174  1.00  0.00     0.002 A 
HETATM   22  C   UNL     1     -43.358  58.823 -52.814  1.00  0.00     0.030 A 
BRANCH  18  23
HETATM   23  C   UNL     1     -43.559  56.207 -55.574  1.00  0.00     0.253 C 
HETATM   24  N   UNL     1     -43.410  56.454 -56.923  1.00  0.00    -0.357 N 
HETATM   25  H   UNL     1     -43.228  57.420 -57.193  1.00  0.00     0.162 HD
HETATM   26  O   UNL     1     -43.488  55.092 -55.070  1.00  0.00    -0.268 OA
BRANCH  24  27
HETATM   27  C   UNL     1     -43.081  55.405 -57.864  1.00  0.00     0.125 C 
BRANCH  27  28
HETATM   28  C   UNL     1     -43.477  55.810 -59.277  1.00  0.00     0.046 C 
BRANCH  28  29
HETATM   29  C   UNL     1     -42.595  56.930 -59.806  1.00  0.00     0.165 C 
BRANCH  29  30
HETATM   30  O   UNL     1     -41.383  56.388 -60.314  1.00  0.00    -0.401 OA
HETATM   31  H   UNL     1     -40.855  56.085 -59.555  1.00  0.00     0.209 HD
ENDBRANCH  29  30
ENDBRANCH  28  29
ENDBRANCH  27  28
ENDBRANCH  24  27
ENDBRANCH  18  23
ENDBRANCH   1  17
TORSDOF 10
ENDMDL
MODEL 2
REMARK VINA RESULT:      -7.3      2.100      4.233
REMARK  10 active torsions:
REMARK  status: ('A' for Active; 'I' for Inactive)
REMARK    1  A    between atoms: O_2  and  C_3 
REMARK    2  A    between atoms: C_4  and  C_5 
REMARK       I    between atoms: C_5  and  N_6 
REMARK    3  A    between atoms: N_6  and  C_7 
REMARK    4  A    between atoms: C_7  and  N_8 
REMARK    5  A    between atoms: N_8  and  C_9 
REMARK    6  A    between atoms: C_10  and  C_11 
REMARK       I    between atoms: C_11  and  N_12 
REMARK    7  A    between atoms: N_12  and  C_13 
REMARK    8  A    between atoms: C_13  and  C_14 
REMARK    9  A    between atoms: C_14  and  C_15 
REMARK   10  A    between atoms: C_15  and  O_16 
ROOT
HETATM    1  N   UNL     1     -41.137  56.472 -54.081  1.00  0.00    -0.332 N 
HETATM    2  H   UNL     1     -40.247  56.957 -53.994  1.00  0.00     0.168 HD
ENDROOT
BRANCH   1   3
HETATM    3  C   UNL     1     -41.435  55.677 -53.030  1.00  0.00     0.179 C 
HETATM    4  S   UNL     1     -41.820  56.384 -51.563  1.00  0.00    -0.040 SA
BRANCH   3   5
HETATM    5  N   UNL     1     -41.360  54.321 -53.101  1.00  0.00    -0.299 N 
HETATM    6  C   UNL     1     -40.458  53.594 -53.875  1.00  0.00     0.260 C 
HETATM    7  O   UNL     1     -39.920  54.005 -54.899  1.00  0.00    -0.267 OA
HETATM    8  H   UNL     1     -41.550  53.891 -52.201  1.00  0.00     0.171 HD
BRANCH   6   9
HETATM    9  C   UNL     1     -40.162  52.194 -53.412  1.00  0.00     0.065 A 
HETATM   10  C   UNL     1     -39.743  51.867 -52.104  1.00  0.00     0.084 A 
HETATM   11  C   UNL     1     -39.458  50.531 -51.789  1.00  0.00     0.038 A 
HETATM   12  C   UNL     1     -39.574  49.531 -52.758  1.00  0.00     0.003 A 
HETATM   13  C   UNL     1     -39.979  49.851 -54.049  1.00  0.00     0.001 A 
HETATM   14  C   UNL     1     -40.268  51.176 -54.375  1.00  0.00     0.020 A 
BRANCH  10  15
HETATM   15  O   UNL     1     -39.644  52.891 -51.197  1.00  0.00    -0.355 OA
HETATM   16  C   UNL     1     -40.421  52.802 -50.006  1.00  0.00     0.210 C 
ENDBRANCH  10  15
ENDBRANCH   6   9
ENDBRANCH   3   5
ENDBRANCH   1   3
BRANCH   1  17
HETATM   17  C   UNL     1     -41.952  56.932 -55.147  1.00  0.00     0.050 A 
HETATM   18  C   UNL     1     -42.447  58.255 -55.124  1.00  0.00     0.058 A 
HETATM   19  C   UNL     1     -43.382  58.681 -56.077  1.00  0.00     0.019 A 
HETATM   20  C   UNL     1     -43.809  57.809 -57.076  1.00  0.00     0.001 A 
HETATM   21  C   UNL     1     -43.303  56.512 -57.125  1.00  0.00     0.002 A 
HETATM   22  C   UNL     1     -42.384  56.073 -56.165  1.00  0.00     0.030 A 
BRANCH  18  23
HETATM   23  C   UNL     1     -41.991  59.265 -54.127  1.00  0.00     0.253 C 
HETATM   24  N   UNL     1     -42.989  59.820 -53.351  1.00  0.00    -0.357 N 
HETATM   25  H   UNL     1     -43.885  59.334 -53.344  1.00  0.00     0.162 HD
HETATM   26  O   UNL     1     -40.804  59.546 -54.017  1.00  0.00    -0.268 OA
BRANCH  24  27
HETATM   27  C   UNL     1     -42.701  60.745 -52.276  1.00  0.00     0.125 C 
BRANCH  27  28
HETATM   28  C   UNL     1     -42.684  60.020 -50.938  1.00  0.00     0.046 C 
BRANCH  28  29
HETATM   29  C   UNL     1     -41.300  60.042 -50.308  1.00  0.00     0.165 C 
BRANCH  29  30
HETATM   30  O   UNL     1     -40.320  59.732 -51.290  1.00  0.00    -0.401 OA
HETATM   31  H   UNL     1     -39.814  60.543 -51.469  1.00  0.00     0.209 HD
ENDBRANCH  29  30
ENDBRANCH  28  29
ENDBRANCH  27  28
ENDBRANCH  24  27
ENDBRANCH  18  23
ENDBRANCH   1  17
TORSDOF 10
ENDMDL
MODEL 3
REMARK VINA RESULT:      -7.2      2.079      2.384
REMARK  10 active torsions:
REMARK  status: ('A' for Active; 'I' for Inactive)
REMARK    1  A    between atoms: O_2  and  C_3 
REMARK    2  A    between atoms: C_4  and  C_5 
REMARK       I    between atoms: C_5  and  N_6 
REMARK    3  A    between atoms: N_6  and  C_7 
REMARK    4  A    between atoms: C_7  and  N_8 
REMARK    5  A    between atoms: N_8  and  C_9 
REMARK    6  A    between atoms: C_10  and  C_11 
REMARK       I    between atoms: C_11  and  N_12 
REMARK    7  A    between atoms: N_12  and  C_13 
REMARK    8  A    between atoms: C_13  and  C_14 
REMARK    9  A    between atoms: C_14  and  C_15 
REMARK   10  A    between atoms: C_15  and  O_16 
ROOT
HETATM    1  N   UNL     1     -43.919  56.687 -54.654  1.00  0.00    -0.332 N 
HETATM    2  H   UNL     1     -44.769  56.245 -54.996  1.00  0.00     0.168 HD
ENDROOT
BRANCH   1   3
HETATM    3  C   UNL     1     -43.384  56.085 -53.570  1.00  0.00     0.179 C 
HETATM    4  S   UNL     1     -43.508  56.837 -52.081  1.00  0.00    -0.040 SA
BRANCH   3   5
HETATM    5  N   UNL     1     -42.682  54.923 -53.658  1.00  0.00    -0.299 N 
HETATM    6  C   UNL     1     -41.299  54.814 -53.779  1.00  0.00     0.260 C 
HETATM    7  O   UNL     1     -40.564  55.677 -54.252  1.00  0.00    -0.267 OA
HETATM    8  H   UNL     1     -43.090  54.198 -53.076  1.00  0.00     0.171 HD
BRANCH   6   9
HETATM    9  C   UNL     1     -40.690  53.521 -53.310  1.00  0.00     0.065 A 
HETATM   10  C   UNL     1     -40.389  53.234 -51.961  1.00  0.00     0.084 A 
HETATM   11  C   UNL     1     -39.788  52.009 -51.638  1.00  0.00     0.038 A 
HETATM   12  C   UNL     1     -39.477  51.084 -52.637  1.00  0.00     0.003 A 
HETATM   13  C   UNL     1     -39.765  51.367 -53.968  1.00  0.00     0.001 A 
HETATM   14  C   UNL     1     -40.365  52.580 -54.302  1.00  0.00     0.020 A 
BRANCH  10  15
HETATM   15  O   UNL     1     -40.713  54.182 -51.024  1.00  0.00    -0.355 OA
HETATM   16  C   UNL     1     -39.901  54.268 -49.857  1.00  0.00     0.210 C 
ENDBRANCH  10  15
ENDBRANCH   6   9
ENDBRANCH   3   5
ENDBRANCH   1   3
BRANCH   1  17
HETATM   17  C   UNL     1     -43.372  57.658 -55.531  1.00  0.00     0.050 A 
HETATM   18  C   UNL     1     -42.943  57.269 -56.819  1.00  0.00     0.058 A 
HETATM   19  C   UNL     1     -42.252  58.172 -57.641  1.00  0.00     0.019 A 
HETATM   20  C   UNL     1     -42.011  59.472 -57.203  1.00  0.00     0.001 A 
HETATM   21  C   UNL     1     -42.457  59.873 -55.947  1.00  0.00     0.002 A 
HETATM   22  C   UNL     1     -43.129  58.973 -55.113  1.00  0.00     0.030 A 
BRANCH  18  23
HETATM   23  C   UNL     1     -43.220  55.918 -57.384  1.00  0.00     0.253 C 
HETATM   24  N   UNL     1     -43.919  55.909 -58.574  1.00  0.00    -0.357 N 
HETATM   25  H   UNL     1     -43.968  56.791 -59.082  1.00  0.00     0.162 HD
HETATM   26  O   UNL     1     -42.824  54.908 -56.816  1.00  0.00    -0.268 OA
BRANCH  24  27
HETATM   27  C   UNL     1     -44.186  54.684 -59.298  1.00  0.00     0.125 C 
BRANCH  27  28
HETATM   28  C   UNL     1     -45.079  54.957 -60.499  1.00  0.00     0.046 C 
BRANCH  28  29
HETATM   29  C   UNL     1     -45.803  56.288 -60.367  1.00  0.00     0.165 C 
BRANCH  29  30
HETATM   30  O   UNL     1     -46.906  56.150 -59.481  1.00  0.00    -0.401 OA
HETATM   31  H   UNL     1     -47.439  55.397 -59.790  1.00  0.00     0.209 HD
ENDBRANCH  29  30
ENDBRANCH  28  29
ENDBRANCH  27  28
ENDBRANCH  24  27
ENDBRANCH  18  23
ENDBRANCH   1  17
TORSDOF 10
ENDMDL
MODEL 4
REMARK VINA RESULT:      -7.1      2.149      6.953
REMARK  10 active torsions:
REMARK  status: ('A' for Active; 'I' for Inactive)
REMARK    1  A    between atoms: O_2  and  C_3 
REMARK    2  A    between atoms: C_4  and  C_5 
REMARK       I    between atoms: C_5  and  N_6 
REMARK    3  A    between atoms: N_6  and  C_7 
REMARK    4  A    between atoms: C_7  and  N_8 
REMARK    5  A    between atoms: N_8  and  C_9 
REMARK    6  A    between atoms: C_10  and  C_11 
REMARK       I    between atoms: C_11  and  N_12 
REMARK    7  A    between atoms: N_12  and  C_13 
REMARK    8  A    between atoms: C_13  and  C_14 
REMARK    9  A    between atoms: C_14  and  C_15 
REMARK   10  A    between atoms: C_15  and  O_16 
ROOT
HETATM    1  N   UNL     1     -42.192  56.194 -52.658  1.00  0.00    -0.332 N 
HETATM    2  H   UNL     1     -43.202  56.320 -52.633  1.00  0.00     0.168 HD
ENDROOT
BRANCH   1   3
HETATM    3  C   UNL     1     -41.568  56.942 -53.593  1.00  0.00     0.179 C 
HETATM    4  S   UNL     1     -40.733  58.309 -53.112  1.00  0.00    -0.040 SA
BRANCH   3   5
HETATM    5  N   UNL     1     -41.657  56.666 -54.922  1.00  0.00    -0.299 N 
HETATM    6  C   UNL     1     -42.833  56.611 -55.667  1.00  0.00     0.260 C 
HETATM    7  O   UNL     1     -43.945  56.368 -55.207  1.00  0.00    -0.267 OA
HETATM    8  H   UNL     1     -40.877  57.063 -55.437  1.00  0.00     0.171 HD
BRANCH   6   9
HETATM    9  C   UNL     1     -42.696  56.847 -57.146  1.00  0.00     0.065 A 
HETATM   10  C   UNL     1     -42.274  58.068 -57.715  1.00  0.00     0.084 A 
HETATM   11  C   UNL     1     -42.216  58.191 -59.110  1.00  0.00     0.038 A 
HETATM   12  C   UNL     1     -42.581  57.124 -59.934  1.00  0.00     0.003 A 
HETATM   13  C   UNL     1     -43.005  55.922 -59.377  1.00  0.00     0.001 A 
HETATM   14  C   UNL     1     -43.064  55.786 -57.990  1.00  0.00     0.020 A 
BRANCH  10  15
HETATM   15  O   UNL     1     -41.932  59.082 -56.856  1.00  0.00    -0.355 OA
HETATM   16  C   UNL     1     -42.159  60.422 -57.285  1.00  0.00     0.210 C 
ENDBRANCH  10  15
ENDBRANCH   6   9
ENDBRANCH   3   5
ENDBRANCH   1   3
BRANCH   1  17
HETATM   17  C   UNL     1     -41.667  55.468 -51.558  1.00  0.00     0.050 A 
HETATM   18  C   UNL     1     -41.373  54.095 -51.707  1.00  0.00     0.058 A 
HETATM   19  C   UNL     1     -41.009  53.321 -50.596  1.00  0.00     0.019 A 
HETATM   20  C   UNL     1     -40.902  53.911 -49.338  1.00  0.00     0.001 A 
HETATM   21  C   UNL     1     -41.160  55.271 -49.188  1.00  0.00     0.002 A 
HETATM   22  C   UNL     1     -41.544  56.046 -50.288  1.00  0.00     0.030 A 
BRANCH  18  23
HETATM   23  C   UNL     1     -41.401  53.406 -53.029  1.00  0.00     0.253 C 
HETATM   24  N   UNL     1     -40.375  52.510 -53.248  1.00  0.00    -0.357 N 
HETATM   25  H   UNL     1     -39.846  52.212 -52.430  1.00  0.00     0.162 HD
HETATM   26  O   UNL     1     -42.298  53.630 -53.833  1.00  0.00    -0.268 OA
BRANCH  24  27
HETATM   27  C   UNL     1     -40.311  51.692 -54.441  1.00  0.00     0.125 C 
BRANCH  27  28
HETATM   28  C   UNL     1     -39.797  50.299 -54.107  1.00  0.00     0.046 C 
BRANCH  28  29
HETATM   29  C   UNL     1     -39.527  50.144 -52.619  1.00  0.00     0.165 C 
BRANCH  29  30
HETATM   30  O   UNL     1     -39.312  48.773 -52.310  1.00  0.00    -0.401 OA
HETATM   31  H   UNL     1     -39.553  48.641 -51.376  1.00  0.00     0.209 HD
ENDBRANCH  29  30
ENDBRANCH  28  29
ENDBRANCH  27  28
ENDBRANCH  24  27
ENDBRANCH  18  23
ENDBRANCH   1  17
TORSDOF 10
ENDMDL
MODEL 5
REMARK VINA RESULT:      -6.9      3.597      6.105
REMARK  10 active torsions:
REMARK  status: ('A' for Active; 'I' for Inactive)
REMARK    1  A    between atoms: O_2  and  C_3 
REMARK    2  A    between atoms: C_4  and  C_5 
REMARK       I    between atoms: C_5  and  N_6 
REMARK    3  A    between atoms: N_6  and  C_7 
REMARK    4  A    between atoms: C_7  and  N_8 
REMARK    5  A    between atoms: N_8  and  C_9 
REMARK    6  A    between atoms: C_10  and  C_11 
REMARK       I    between atoms: C_11  and  N_12 
REMARK    7  A    between atoms: N_12  and  C_13 
REMARK    8  A    between atoms: C_13  and  C_14 
REMARK    9  A    between atoms: C_14  and  C_15 
REMARK   10  A    between atoms: C_15  and  O_16 
ROOT
HETATM    1  N   UNL     1     -43.203  57.268 -51.753  1.00  0.00    -0.332 N 
HETATM    2  H   UNL     1     -44.083  57.294 -51.242  1.00  0.00     0.168 HD
ENDROOT
BRANCH   1   3
HETATM    3  C   UNL     1     -43.271  56.610 -52.931  1.00  0.00     0.179 C 
HETATM    4  S   UNL     1     -44.147  57.284 -54.186  1.00  0.00    -0.040 SA
BRANCH   3   5
HETATM    5  N   UNL     1     -42.715  55.381 -53.109  1.00  0.00    -0.299 N 
HETATM    6  C   UNL     1     -41.430  55.129 -53.584  1.00  0.00     0.260 C 
HETATM    7  O   UNL     1     -40.785  55.887 -54.303  1.00  0.00    -0.267 OA
HETATM    8  H   UNL     1     -43.006  54.733 -52.384  1.00  0.00     0.171 HD
BRANCH   6   9
HETATM    9  C   UNL     1     -40.822  53.810 -53.193  1.00  0.00     0.065 A 
HETATM   10  C   UNL     1     -40.456  53.471 -51.872  1.00  0.00     0.084 A 
HETATM   11  C   UNL     1     -39.863  52.226 -51.624  1.00  0.00     0.038 A 
HETATM   12  C   UNL     1     -39.623  51.330 -52.668  1.00  0.00     0.003 A 
HETATM   13  C   UNL     1     -39.976  51.664 -53.971  1.00  0.00     0.001 A 
HETATM   14  C   UNL     1     -40.570  52.899 -54.232  1.00  0.00     0.020 A 
BRANCH  10  15
HETATM   15  O   UNL     1     -40.712  54.392 -50.888  1.00  0.00    -0.355 OA
HETATM   16  C   UNL     1     -39.897  54.360 -49.719  1.00  0.00     0.210 C 
ENDBRANCH  10  15
ENDBRANCH   6   9
ENDBRANCH   3   5
ENDBRANCH   1   3
BRANCH   1  17
HETATM   17  C   UNL     1     -42.201  58.128 -51.236  1.00  0.00     0.050 A 
HETATM   18  C   UNL     1     -42.550  59.433 -50.822  1.00  0.00     0.058 A 
HETATM   19  C   UNL     1     -41.556  60.353 -50.461  1.00  0.00     0.019 A 
HETATM   20  C   UNL     1     -40.215  59.977 -50.479  1.00  0.00     0.001 A 
HETATM   21  C   UNL     1     -39.864  58.683 -50.857  1.00  0.00     0.002 A 
HETATM   22  C   UNL     1     -40.848  57.764 -51.237  1.00  0.00     0.030 A 
BRANCH  18  23
HETATM   23  C   UNL     1     -43.965  59.890 -50.714  1.00  0.00     0.253 C 
HETATM   24  N   UNL     1     -44.318  60.431 -49.495  1.00  0.00    -0.357 N 
HETATM   25  H   UNL     1     -43.554  60.698 -48.875  1.00  0.00     0.162 HD
HETATM   26  O   UNL     1     -44.728  59.794 -51.667  1.00  0.00    -0.268 OA
BRANCH  24  27
HETATM   27  C   UNL     1     -45.625  61.006 -49.260  1.00  0.00     0.125 C 
BRANCH  27  28
HETATM   28  C   UNL     1     -45.714  61.575 -47.851  1.00  0.00     0.046 C 
BRANCH  28  29
HETATM   29  C   UNL     1     -46.072  60.501 -46.836  1.00  0.00     0.165 C 
BRANCH  29  30
HETATM   30  O   UNL     1     -46.260  59.257 -47.498  1.00  0.00    -0.401 OA
HETATM   31  H   UNL     1     -45.536  59.153 -48.140  1.00  0.00     0.209 HD
ENDBRANCH  29  30
ENDBRANCH  28  29
ENDBRANCH  27  28
ENDBRANCH  24  27
ENDBRANCH  18  23
ENDBRANCH   1  17
TORSDOF 10
ENDMDL
MODEL 6
REMARK VINA RESULT:      -6.8      2.629      6.591
REMARK  10 active torsions:
REMARK  status: ('A' for Active; 'I' for Inactive)
REMARK    1  A    between atoms: O_2  and  C_3 
REMARK    2  A    between atoms: C_4  and  C_5 
REMARK       I    between atoms: C_5  and  N_6 
REMARK    3  A    between atoms: N_6  and  C_7 
REMARK    4  A    between atoms: C_7  and  N_8 
REMARK    5  A    between atoms: N_8  and  C_9 
REMARK    6  A    between atoms: C_10  and  C_11 
REMARK       I    between atoms: C_11  and  N_12 
REMARK    7  A    between atoms: N_12  and  C_13 
REMARK    8  A    between atoms: C_13  and  C_14 
REMARK    9  A    between atoms: C_14  and  C_15 
REMARK   10  A    between atoms: C_15  and  O_16 
ROOT
HETATM    1  N   UNL     1     -39.712  53.538 -51.865  1.00  0.00    -0.332 N 
HETATM    2  H   UNL     1     -39.001  54.169 -52.229  1.00  0.00     0.168 HD
ENDROOT
BRANCH   1   3
HETATM    3  C   UNL     1     -40.585  54.125 -51.018  1.00  0.00     0.179 C 
HETATM    4  S   UNL     1     -40.686  53.570 -49.444  1.00  0.00    -0.040 SA
BRANCH   3   5
HETATM    5  N   UNL     1     -41.441  55.103 -51.421  1.00  0.00    -0.299 N 
HETATM    6  C   UNL     1     -42.658  55.419 -50.822  1.00  0.00     0.260 C 
HETATM    7  O   UNL     1     -43.339  54.640 -50.161  1.00  0.00    -0.267 OA
HETATM    8  H   UNL     1     -40.940  55.918 -51.761  1.00  0.00     0.171 HD
BRANCH   6   9
HETATM    9  C   UNL     1     -43.164  56.818 -51.040  1.00  0.00     0.065 A 
HETATM   10  C   UNL     1     -42.337  57.963 -51.055  1.00  0.00     0.084 A 
HETATM   11  C   UNL     1     -42.918  59.226 -51.230  1.00  0.00     0.038 A 
HETATM   12  C   UNL     1     -44.301  59.360 -51.377  1.00  0.00     0.003 A 
HETATM   13  C   UNL     1     -45.119  58.236 -51.354  1.00  0.00     0.001 A 
HETATM   14  C   UNL     1     -44.553  56.972 -51.184  1.00  0.00     0.020 A 
BRANCH  10  15
HETATM   15  O   UNL     1     -40.987  57.771 -50.903  1.00  0.00    -0.355 OA
HETATM   16  C   UNL     1     -40.123  58.867 -51.188  1.00  0.00     0.210 C 
ENDBRANCH  10  15
ENDBRANCH   6   9
ENDBRANCH   3   5
ENDBRANCH   1   3
BRANCH   1  17
HETATM   17  C   UNL     1     -39.766  52.280 -52.517  1.00  0.00     0.050 A 
HETATM   18  C   UNL     1     -40.288  52.196 -53.826  1.00  0.00     0.058 A 
HETATM   19  C   UNL     1     -40.502  50.948 -54.428  1.00  0.00     0.019 A 
HETATM   20  C   UNL     1     -40.172  49.778 -53.747  1.00  0.00     0.001 A 
HETATM   21  C   UNL     1     -39.629  49.852 -52.467  1.00  0.00     0.002 A 
HETATM   22  C   UNL     1     -39.430  51.093 -51.852  1.00  0.00     0.030 A 
BRANCH  18  23
HETATM   23  C   UNL     1     -40.604  53.402 -54.643  1.00  0.00     0.253 C 
HETATM   24  N   UNL     1     -41.947  53.611 -54.889  1.00  0.00    -0.357 N 
HETATM   25  H   UNL     1     -42.603  53.093 -54.308  1.00  0.00     0.162 HD
HETATM   26  O   UNL     1     -39.713  54.145 -55.036  1.00  0.00    -0.268 OA
BRANCH  24  27
HETATM   27  C   UNL     1     -42.425  54.787 -55.585  1.00  0.00     0.125 C 
BRANCH  27  28
HETATM   28  C   UNL     1     -42.916  55.832 -54.595  1.00  0.00     0.046 C 
BRANCH  28  29
HETATM   29  C   UNL     1     -41.963  57.014 -54.511  1.00  0.00     0.165 C 
BRANCH  29  30
HETATM   30  O   UNL     1     -40.769  56.622 -53.846  1.00  0.00    -0.401 OA
HETATM   31  H   UNL     1     -40.279  57.432 -53.619  1.00  0.00     0.209 HD
ENDBRANCH  29  30
ENDBRANCH  28  29
ENDBRANCH  27  28
ENDBRANCH  24  27
ENDBRANCH  18  23
ENDBRANCH   1  17
TORSDOF 10
ENDMDL
MODEL 7
REMARK VINA RESULT:      -6.8      2.430      4.625
REMARK  10 active torsions:
REMARK  status: ('A' for Active; 'I' for Inactive)
REMARK    1  A    between atoms: O_2  and  C_3 
REMARK    2  A    between atoms: C_4  and  C_5 
REMARK       I    between atoms: C_5  and  N_6 
REMARK    3  A    between atoms: N_6  and  C_7 
REMARK    4  A    between atoms: C_7  and  N_8 
REMARK    5  A    between atoms: N_8  and  C_9 
REMARK    6  A    between atoms: C_10  and  C_11 
REMARK       I    between atoms: C_11  and  N_12 
REMARK    7  A    between atoms: N_12  and  C_13 
REMARK    8  A    between atoms: C_13  and  C_14 
REMARK    9  A    between atoms: C_14  and  C_15 
REMARK   10  A    between atoms: C_15  and  O_16 
ROOT
HETATM    1  N   UNL     1     -43.796  56.006 -52.277  1.00  0.00    -0.332 N 
HETATM    2  H   UNL     1     -44.628  55.577 -51.881  1.00  0.00     0.168 HD
ENDROOT
BRANCH   1   3
HETATM    3  C   UNL     1     -42.640  55.422 -51.893  1.00  0.00     0.179 C 
HETATM    4  S   UNL     1     -41.617  56.251 -50.860  1.00  0.00    -0.040 SA
BRANCH   3   5
HETATM    5  N   UNL     1     -42.242  54.214 -52.375  1.00  0.00    -0.299 N 
HETATM    6  C   UNL     1     -41.126  53.984 -53.176  1.00  0.00     0.260 C 
HETATM    7  O   UNL     1     -40.604  54.818 -53.911  1.00  0.00    -0.267 OA
HETATM    8  H   UNL     1     -42.410  53.472 -51.704  1.00  0.00     0.171 HD
BRANCH   6   9
HETATM    9  C   UNL     1     -40.554  52.594 -53.138  1.00  0.00     0.065 A 
HETATM   10  C   UNL     1     -39.843  52.063 -52.039  1.00  0.00     0.084 A 
HETATM   11  C   UNL     1     -39.320  50.765 -52.123  1.00  0.00     0.038 A 
HETATM   12  C   UNL     1     -39.487  50.004 -53.282  1.00  0.00     0.003 A 
HETATM   13  C   UNL     1     -40.180  50.527 -54.369  1.00  0.00     0.001 A 
HETATM   14  C   UNL     1     -40.708  51.816 -54.297  1.00  0.00     0.020 A 
BRANCH  10  15
HETATM   15  O   UNL     1     -39.707  52.858 -50.930  1.00  0.00    -0.355 OA
HETATM   16  C   UNL     1     -40.477  52.528 -49.777  1.00  0.00     0.210 C 
ENDBRANCH  10  15
ENDBRANCH   6   9
ENDBRANCH   3   5
ENDBRANCH   1   3
BRANCH   1  17
HETATM   17  C   UNL     1     -44.055  56.937 -53.316  1.00  0.00     0.050 A 
HETATM   18  C   UNL     1     -44.720  58.146 -53.016  1.00  0.00     0.058 A 
HETATM   19  C   UNL     1     -45.131  59.005 -54.046  1.00  0.00     0.019 A 
HETATM   20  C   UNL     1     -44.859  58.685 -55.374  1.00  0.00     0.001 A 
HETATM   21  C   UNL     1     -44.178  57.509 -55.676  1.00  0.00     0.002 A 
HETATM   22  C   UNL     1     -43.781  56.637 -54.656  1.00  0.00     0.030 A 
BRANCH  18  23
HETATM   23  C   UNL     1     -44.989  58.590 -51.619  1.00  0.00     0.253 C 
HETATM   24  N   UNL     1     -44.695  59.913 -51.354  1.00  0.00    -0.357 N 
HETATM   25  H   UNL     1     -44.564  60.522 -52.160  1.00  0.00     0.162 HD
HETATM   26  O   UNL     1     -45.456  57.814 -50.794  1.00  0.00    -0.268 OA
BRANCH  24  27
HETATM   27  C   UNL     1     -44.987  60.522 -50.074  1.00  0.00     0.125 C 
BRANCH  27  28
HETATM   28  C   UNL     1     -43.809  61.359 -49.599  1.00  0.00     0.046 C 
BRANCH  28  29
HETATM   29  C   UNL     1     -42.536  61.014 -50.356  1.00  0.00     0.165 C 
BRANCH  29  30
HETATM   30  O   UNL     1     -42.037  59.759 -49.911  1.00  0.00    -0.401 OA
HETATM   31  H   UNL     1     -42.657  59.416 -49.244  1.00  0.00     0.209 HD
ENDBRANCH  29  30
ENDBRANCH  28  29
ENDBRANCH  27  28
ENDBRANCH  24  27
ENDBRANCH  18  23
ENDBRANCH   1  17
TORSDOF 10
ENDMDL
MODEL 8
REMARK VINA RESULT:      -6.7      2.824      4.475
REMARK  10 active torsions:
REMARK  status: ('A' for Active; 'I' for Inactive)
REMARK    1  A    between atoms: O_2  and  C_3 
REMARK    2  A    between atoms: C_4  and  C_5 
REMARK       I    between atoms: C_5  and  N_6 
REMARK    3  A    between atoms: N_6  and  C_7 
REMARK    4  A    between atoms: C_7  and  N_8 
REMARK    5  A    between atoms: N_8  and  C_9 
REMARK    6  A    between atoms: C_10  and  C_11 
REMARK       I    between atoms: C_11  and  N_12 
REMARK    7  A    between atoms: N_12  and  C_13 
REMARK    8  A    between atoms: C_13  and  C_14 
REMARK    9  A    between atoms: C_14  and  C_15 
REMARK   10  A    between atoms: C_15  and  O_16 
ROOT
HETATM    1  N   UNL     1     -43.343  55.412 -53.911  1.00  0.00    -0.332 N 
HETATM    2  H   UNL     1     -44.023  56.099 -54.229  1.00  0.00     0.168 HD
ENDROOT
BRANCH   1   3
HETATM    3  C   UNL     1     -42.747  54.725 -54.910  1.00  0.00     0.179 C 
HETATM    4  S   UNL     1     -42.884  55.293 -56.478  1.00  0.00    -0.040 SA
BRANCH   3   5
HETATM    5  N   UNL     1     -42.105  53.545 -54.697  1.00  0.00    -0.299 N 
HETATM    6  C   UNL     1     -40.735  53.387 -54.502  1.00  0.00     0.260 C 
HETATM    7  O   UNL     1     -39.873  54.160 -54.910  1.00  0.00    -0.267 OA
HETATM    8  H   UNL     1     -42.664  52.915 -54.131  1.00  0.00     0.171 HD
BRANCH   6   9
HETATM    9  C   UNL     1     -40.307  52.154 -53.753  1.00  0.00     0.065 A 
HETATM   10  C   UNL     1     -39.933  52.147 -52.392  1.00  0.00     0.084 A 
HETATM   11  C   UNL     1     -39.515  50.947 -51.802  1.00  0.00     0.038 A 
HETATM   12  C   UNL     1     -39.458  49.768 -52.550  1.00  0.00     0.003 A 
HETATM   13  C   UNL     1     -39.819  49.773 -53.892  1.00  0.00     0.001 A 
HETATM   14  C   UNL     1     -40.239  50.960 -54.492  1.00  0.00     0.020 A 
BRANCH  10  15
HETATM   15  O   UNL     1     -40.006  53.335 -51.710  1.00  0.00    -0.355 OA
HETATM   16  C   UNL     1     -39.507  53.366 -50.375  1.00  0.00     0.210 C 
ENDBRANCH  10  15
ENDBRANCH   6   9
ENDBRANCH   3   5
ENDBRANCH   1   3
BRANCH   1  17
HETATM   17  C   UNL     1     -43.004  55.518 -52.538  1.00  0.00     0.050 A 
HETATM   18  C   UNL     1     -42.082  56.503 -52.122  1.00  0.00     0.058 A 
HETATM   19  C   UNL     1     -41.610  56.522 -50.802  1.00  0.00     0.019 A 
HETATM   20  C   UNL     1     -42.072  55.585 -49.880  1.00  0.00     0.001 A 
HETATM   21  C   UNL     1     -43.005  54.629 -50.274  1.00  0.00     0.002 A 
HETATM   22  C   UNL     1     -43.466  54.591 -51.594  1.00  0.00     0.030 A 
BRANCH  18  23
HETATM   23  C   UNL     1     -41.590  57.577 -53.030  1.00  0.00     0.253 C 
HETATM   24  N   UNL     1     -42.227  58.795 -52.902  1.00  0.00    -0.357 N 
HETATM   25  H   UNL     1     -42.785  58.932 -52.060  1.00  0.00     0.162 HD
HETATM   26  O   UNL     1     -40.670  57.365 -53.811  1.00  0.00    -0.268 OA
BRANCH  24  27
HETATM   27  C   UNL     1     -41.805  59.964 -53.644  1.00  0.00     0.125 C 
BRANCH  27  28
HETATM   28  C   UNL     1     -42.894  61.027 -53.631  1.00  0.00     0.046 C 
BRANCH  28  29
HETATM   29  C   UNL     1     -43.524  61.165 -52.254  1.00  0.00     0.165 C 
BRANCH  29  30
HETATM   30  O   UNL     1     -42.515  61.094 -51.254  1.00  0.00    -0.401 OA
HETATM   31  H   UNL     1     -42.951  61.183 -50.389  1.00  0.00     0.209 HD
ENDBRANCH  29  30
ENDBRANCH  28  29
ENDBRANCH  27  28
ENDBRANCH  24  27
ENDBRANCH  18  23
ENDBRANCH   1  17
TORSDOF 10
ENDMDL
MODEL 9
REMARK VINA RESULT:      -6.7      2.387      3.446
REMARK  10 active torsions:
REMARK  status: ('A' for Active; 'I' for Inactive)
REMARK    1  A    between atoms: O_2  and  C_3 
REMARK    2  A    between atoms: C_4  and  C_5 
REMARK       I    between atoms: C_5  and  N_6 
REMARK    3  A    between atoms: N_6  and  C_7 
REMARK    4  A    between atoms: C_7  and  N_8 
REMARK    5  A    between atoms: N_8  and  C_9 
REMARK    6  A    between atoms: C_10  and  C_11 
REMARK       I    between atoms: C_11  and  N_12 
REMARK    7  A    between atoms: N_12  and  C_13 
REMARK    8  A    between atoms: C_13  and  C_14 
REMARK    9  A    between atoms: C_14  and  C_15 
REMARK   10  A    between atoms: C_15  and  O_16 
ROOT
HETATM    1  N   UNL     1     -42.906  56.568 -51.833  1.00  0.00    -0.332 N 
HETATM    2  H   UNL     1     -43.742  56.908 -52.303  1.00  0.00     0.168 HD
ENDROOT
BRANCH   1   3
HETATM    3  C   UNL     1     -42.911  55.238 -51.597  1.00  0.00     0.179 C 
HETATM    4  S   UNL     1     -43.916  54.630 -50.406  1.00  0.00    -0.040 SA
BRANCH   3   5
HETATM    5  N   UNL     1     -42.071  54.383 -52.242  1.00  0.00    -0.299 N 
HETATM    6  C   UNL     1     -40.886  53.862 -51.728  1.00  0.00     0.260 C 
HETATM    7  O   UNL     1     -40.206  54.392 -50.854  1.00  0.00    -0.267 OA
HETATM    8  H   UNL     1     -42.585  53.719 -52.813  1.00  0.00     0.171 HD
BRANCH   6   9
HETATM    9  C   UNL     1     -40.417  52.564 -52.325  1.00  0.00     0.065 A 
HETATM   10  C   UNL     1     -40.492  52.254 -53.700  1.00  0.00     0.084 A 
HETATM   11  C   UNL     1     -40.058  50.998 -54.145  1.00  0.00     0.038 A 
HETATM   12  C   UNL     1     -39.565  50.054 -53.241  1.00  0.00     0.003 A 
HETATM   13  C   UNL     1     -39.496  50.353 -51.884  1.00  0.00     0.001 A 
HETATM   14  C   UNL     1     -39.923  51.600 -51.429  1.00  0.00     0.020 A 
BRANCH  10  15
HETATM   15  O   UNL     1     -40.988  53.219 -54.540  1.00  0.00    -0.355 OA
HETATM   16  C   UNL     1     -40.054  54.004 -55.276  1.00  0.00     0.210 C 
ENDBRANCH  10  15
ENDBRANCH   6   9
ENDBRANCH   3   5
ENDBRANCH   1   3
BRANCH   1  17
HETATM   17  C   UNL     1     -41.849  57.511 -51.766  1.00  0.00     0.050 A 
HETATM   18  C   UNL     1     -41.273  57.997 -52.960  1.00  0.00     0.058 A 
HETATM   19  C   UNL     1     -40.125  58.801 -52.920  1.00  0.00     0.019 A 
HETATM   20  C   UNL     1     -39.560  59.152 -51.696  1.00  0.00     0.001 A 
HETATM   21  C   UNL     1     -40.139  58.703 -50.512  1.00  0.00     0.002 A 
HETATM   22  C   UNL     1     -41.273  57.884 -50.544  1.00  0.00     0.030 A 
BRANCH  18  23
HETATM   23  C   UNL     1     -41.855  57.718 -54.303  1.00  0.00     0.253 C 
HETATM   24  N   UNL     1     -42.123  58.833 -55.072  1.00  0.00    -0.357 N 
HETATM   25  H   UNL     1     -41.687  59.706 -54.779  1.00  0.00     0.162 HD
HETATM   26  O   UNL     1     -42.052  56.568 -54.675  1.00  0.00    -0.268 OA
BRANCH  24  27
HETATM   27  C   UNL     1     -42.602  58.729 -56.434  1.00  0.00     0.125 C 
BRANCH  27  28
HETATM   28  C   UNL     1     -44.011  59.292 -56.550  1.00  0.00     0.046 C 
BRANCH  28  29
HETATM   29  C   UNL     1     -45.060  58.196 -56.456  1.00  0.00     0.165 C 
BRANCH  29  30
HETATM   30  O   UNL     1     -44.424  56.927 -56.375  1.00  0.00    -0.401 OA
HETATM   31  H   UNL     1     -43.673  56.934 -56.993  1.00  0.00     0.209 HD
ENDBRANCH  29  30
ENDBRANCH  28  29
ENDBRANCH  27  28
ENDBRANCH  24  27
ENDBRANCH  18  23
ENDBRANCH   1  17
TORSDOF 10
ENDMDL
MODEL 10
REMARK VINA RESULT:      -6.7      2.080      3.909
REMARK  10 active torsions:
REMARK  status: ('A' for Active; 'I' for Inactive)
REMARK    1  A    between atoms: O_2  and  C_3 
REMARK    2  A    between atoms: C_4  and  C_5 
REMARK       I    between atoms: C_5  and  N_6 
REMARK    3  A    between atoms: N_6  and  C_7 
REMARK    4  A    between atoms: C_7  and  N_8 
REMARK    5  A    between atoms: N_8  and  C_9 
REMARK    6  A    between atoms: C_10  and  C_11 
REMARK       I    between atoms: C_11  and  N_12 
REMARK    7  A    between atoms: N_12  and  C_13 
REMARK    8  A    between atoms: C_13  and  C_14 
REMARK    9  A    between atoms: C_14  and  C_15 
REMARK   10  A    between atoms: C_15  and  O_16 
ROOT
HETATM    1  N   UNL     1     -41.645  56.303 -54.634  1.00  0.00    -0.332 N 
HETATM    2  H   UNL     1     -40.827  56.856 -54.389  1.00  0.00     0.168 HD
ENDROOT
BRANCH   1   3
HETATM    3  C   UNL     1     -42.081  55.497 -53.641  1.00  0.00     0.179 C 
HETATM    4  S   UNL     1     -42.917  56.172 -52.358  1.00  0.00    -0.040 SA
BRANCH   3   5
HETATM    5  N   UNL     1     -41.800  54.167 -53.609  1.00  0.00    -0.299 N 
HETATM    6  C   UNL     1     -40.656  53.563 -54.124  1.00  0.00     0.260 C 
HETATM    7  O   UNL     1     -39.968  54.021 -55.033  1.00  0.00    -0.267 OA
HETATM    8  H   UNL     1     -42.121  53.740 -52.745  1.00  0.00     0.171 HD
BRANCH   6   9
HETATM    9  C   UNL     1     -40.272  52.239 -53.522  1.00  0.00     0.065 A 
HETATM   10  C   UNL     1     -39.850  52.073 -52.185  1.00  0.00     0.084 A 
HETATM   11  C   UNL     1     -39.481  50.798 -51.736  1.00  0.00     0.038 A 
HETATM   12  C   UNL     1     -39.517  49.701 -52.600  1.00  0.00     0.003 A 
HETATM   13  C   UNL     1     -39.926  49.862 -53.919  1.00  0.00     0.001 A 
HETATM   14  C   UNL     1     -40.299  51.125 -54.378  1.00  0.00     0.020 A 
BRANCH  10  15
HETATM   15  O   UNL     1     -39.830  53.187 -51.384  1.00  0.00    -0.355 OA
HETATM   16  C   UNL     1     -40.656  53.186 -50.223  1.00  0.00     0.210 C 
ENDBRANCH  10  15
ENDBRANCH   6   9
ENDBRANCH   3   5
ENDBRANCH   1   3
BRANCH   1  17
HETATM   17  C   UNL     1     -42.270  56.689 -55.847  1.00  0.00     0.050 A 
HETATM   18  C   UNL     1     -42.665  58.033 -56.029  1.00  0.00     0.058 A 
HETATM   19  C   UNL     1     -43.426  58.404 -57.146  1.00  0.00     0.019 A 
HETATM   20  C   UNL     1     -43.774  57.453 -58.103  1.00  0.00     0.001 A 
HETATM   21  C   UNL     1     -43.363  56.132 -57.947  1.00  0.00     0.002 A 
HETATM   22  C   UNL     1     -42.620  55.749 -56.825  1.00  0.00     0.030 A 
BRANCH  18  23
HETATM   23  C   UNL     1     -42.277  59.119 -55.085  1.00  0.00     0.253 C 
HETATM   24  N   UNL     1     -43.201  60.135 -54.945  1.00  0.00    -0.357 N 
HETATM   25  H   UNL     1     -44.142  59.946 -55.286  1.00  0.00     0.162 HD
HETATM   26  O   UNL     1     -41.215  59.071 -54.478  1.00  0.00    -0.268 OA
BRANCH  24  27
HETATM   27  C   UNL     1     -43.018  61.213 -53.997  1.00  0.00     0.125 C 
BRANCH  27  28
HETATM   28  C   UNL     1     -44.359  61.814 -53.604  1.00  0.00     0.046 C 
BRANCH  28  29
HETATM   29  C   UNL     1     -45.506  61.167 -54.365  1.00  0.00     0.165 C 
BRANCH  29  30
HETATM   30  O   UNL     1     -45.896  59.964 -53.716  1.00  0.00    -0.401 OA
HETATM   31  H   UNL     1     -45.182  59.715 -53.103  1.00  0.00     0.209 HD
ENDBRANCH  29  30
ENDBRANCH  28  29
ENDBRANCH  27  28
ENDBRANCH  24  27
ENDBRANCH  18  23
ENDBRANCH   1  17
TORSDOF 10
ENDMDL
