MODEL 1
REMARK VINA RESULT:      -8.0      0.000      0.000
REMARK  11 active torsions:
REMARK  status: ('A' for Active; 'I' for Inactive)
REMARK    1  A    between atoms: C_2  and  O_3 
REMARK    2  A    between atoms: O_3  and  C_4 
REMARK    3  A    between atoms: C_5  and  O_6 
REMARK    4  A    between atoms: C_9  and  C_10 
REMARK    5  A    between atoms: N_11  and  C_12 
REMARK    6  A    between atoms: C_12  and  C_13 
REMARK    7  A    between atoms: C_13  and  C_14 
REMARK    8  A    between atoms: C_14  and  N_15 
REMARK    9  A    between atoms: C_27  and  O_28 
REMARK   10  A    between atoms: C_27  and  C_29 
REMARK   11  A    between atoms: C_30  and  C_31 
ROOT
HETATM    1  C   UNL     1     -42.688  57.149 -52.667  1.00  0.00     0.161 C 
HETATM    2  N   UNL     1     -42.615  58.571 -52.317  1.00  0.00    -0.332 N 
HETATM    3  C   UNL     1     -43.603  58.968 -51.446  1.00  0.00     0.295 C 
HETATM    4  O   UNL     1     -43.789  60.096 -51.032  1.00  0.00    -0.264 OA
HETATM    5  C   UNL     1     -43.694  56.577 -51.701  1.00  0.00     0.058 C 
HETATM    6  C   UNL     1     -44.416  57.718 -51.099  1.00  0.00     0.250 C 
HETATM    7  O   UNL     1     -45.430  57.687 -50.440  1.00  0.00    -0.282 OA
HETATM    8  C   UNL     1     -43.842  55.333 -51.219  1.00  0.00     0.078 C 
ENDROOT
BRANCH   1   9
HETATM    9  C   UNL     1     -43.077  56.978 -54.128  1.00  0.00    -0.028 A 
HETATM   10  C   UNL     1     -42.247  56.227 -54.977  1.00  0.00     0.012 A 
HETATM   11  C   UNL     1     -42.561  56.076 -56.327  1.00  0.00     0.040 A 
HETATM   12  C   UNL     1     -43.694  56.690 -56.838  1.00  0.00     0.099 A 
HETATM   13  C   UNL     1     -44.538  57.452 -56.030  1.00  0.00     0.102 A 
HETATM   14  C   UNL     1     -44.244  57.568 -54.669  1.00  0.00     0.049 A 
BRANCH  12  15
HETATM   15  O   UNL     1     -43.962  56.538 -58.170  1.00  0.00    -0.358 OA
HETATM   16  H   UNL     1     -43.248  55.973 -58.525  1.00  0.00     0.218 HD
ENDBRANCH  12  15
BRANCH  13  17
HETATM   17  O   UNL     1     -45.600  58.026 -56.678  1.00  0.00    -0.349 OA
BRANCH  17  18
HETATM   18  C   UNL     1     -45.653  59.451 -56.712  1.00  0.00     0.171 C 
HETATM   19  C   UNL     1     -45.653  59.891 -58.164  1.00  0.00     0.034 C 
ENDBRANCH  17  18
ENDBRANCH  13  17
ENDBRANCH   1   9
BRANCH   2  20
HETATM   20  C   UNL     1     -41.501  59.418 -52.710  1.00  0.00     0.129 C 
BRANCH  20  21
HETATM   21  C   UNL     1     -41.418  59.733 -54.206  1.00  0.00     0.048 C 
BRANCH  21  22
HETATM   22  C   UNL     1     -42.473  60.673 -54.792  1.00  0.00     0.236 C 
BRANCH  22  23
HETATM   23  N   UNL     1     -42.157  61.190 -56.167  1.00  0.00    -0.067 N 
HETATM   24  H   UNL     1     -41.268  61.728 -56.101  1.00  0.00     0.280 HD
HETATM   25  C   UNL     1     -42.019  60.125 -57.242  1.00  0.00     0.261 C 
HETATM   26  C   UNL     1     -41.698  60.781 -58.590  1.00  0.00     0.195 C 
HETATM   27  O   UNL     1     -42.700  61.738 -58.949  1.00  0.00    -0.388 OA
HETATM   28  C   UNL     1     -42.781  62.795 -57.987  1.00  0.00     0.195 C 
HETATM   29  C   UNL     1     -43.176  62.245 -56.613  1.00  0.00     0.261 C 
ENDBRANCH  22  23
ENDBRANCH  21  22
ENDBRANCH  20  21
ENDBRANCH   2  20
BRANCH   8  30
HETATM   30  O   UNL     1     -44.780  55.006 -50.259  1.00  0.00    -0.360 OA
HETATM   31  H   UNL     1     -45.592  55.540 -50.375  1.00  0.00     0.217 HD
ENDBRANCH   8  30
BRANCH   8  32
HETATM   32  C   UNL     1     -42.983  54.228 -51.604  1.00  0.00     0.038 C 
HETATM   33  C   UNL     1     -41.659  54.328 -51.804  1.00  0.00     0.014 C 
BRANCH  33  34
HETATM   34  C   UNL     1     -40.883  53.212 -52.348  1.00  0.00    -0.036 A 
HETATM   35  C   UNL     1     -40.976  52.924 -53.715  1.00  0.00     0.011 A 
HETATM   36  C   UNL     1     -40.270  51.851 -54.260  1.00  0.00     0.001 A 
HETATM   37  C   UNL     1     -39.459  51.065 -53.443  1.00  0.00     0.000 A 
HETATM   38  C   UNL     1     -39.353  51.352 -52.082  1.00  0.00     0.001 A 
HETATM   39  C   UNL     1     -40.064  52.422 -51.534  1.00  0.00     0.011 A 
ENDBRANCH  33  34
ENDBRANCH   8  32
TORSDOF 11
ENDMDL
MODEL 2
REMARK VINA RESULT:      -8.0      2.718      6.977
REMARK  11 active torsions:
REMARK  status: ('A' for Active; 'I' for Inactive)
REMARK    1  A    between atoms: C_2  and  O_3 
REMARK    2  A    between atoms: O_3  and  C_4 
REMARK    3  A    between atoms: C_5  and  O_6 
REMARK    4  A    between atoms: C_9  and  C_10 
REMARK    5  A    between atoms: N_11  and  C_12 
REMARK    6  A    between atoms: C_12  and  C_13 
REMARK    7  A    between atoms: C_13  and  C_14 
REMARK    8  A    between atoms: C_14  and  N_15 
REMARK    9  A    between atoms: C_27  and  O_28 
REMARK   10  A    between atoms: C_27  and  C_29 
REMARK   11  A    between atoms: C_30  and  C_31 
ROOT
HETATM    1  C   UNL     1     -42.795  56.803 -53.485  1.00  0.00     0.161 C 
HETATM    2  N   UNL     1     -42.667  57.239 -52.092  1.00  0.00    -0.332 N 
HETATM    3  C   UNL     1     -41.794  58.290 -51.929  1.00  0.00     0.295 C 
HETATM    4  O   UNL     1     -41.482  58.811 -50.876  1.00  0.00    -0.264 OA
HETATM    5  C   UNL     1     -42.098  57.879 -54.280  1.00  0.00     0.058 C 
HETATM    6  C   UNL     1     -41.299  58.674 -53.325  1.00  0.00     0.250 C 
HETATM    7  O   UNL     1     -40.441  59.489 -53.577  1.00  0.00    -0.282 OA
HETATM    8  C   UNL     1     -42.268  58.285 -55.547  1.00  0.00     0.078 C 
ENDROOT
BRANCH   1   9
HETATM    9  C   UNL     1     -42.190  55.419 -53.669  1.00  0.00    -0.028 A 
HETATM   10  C   UNL     1     -42.636  54.609 -54.728  1.00  0.00     0.012 A 
HETATM   11  C   UNL     1     -42.123  53.325 -54.906  1.00  0.00     0.040 A 
HETATM   12  C   UNL     1     -41.177  52.838 -54.016  1.00  0.00     0.099 A 
HETATM   13  C   UNL     1     -40.716  53.607 -52.947  1.00  0.00     0.102 A 
HETATM   14  C   UNL     1     -41.201  54.908 -52.795  1.00  0.00     0.049 A 
BRANCH  12  15
HETATM   15  O   UNL     1     -40.709  51.567 -54.208  1.00  0.00    -0.358 OA
HETATM   16  H   UNL     1     -40.785  51.120 -53.343  1.00  0.00     0.218 HD
ENDBRANCH  12  15
BRANCH  13  17
HETATM   17  O   UNL     1     -39.808  52.984 -52.132  1.00  0.00    -0.349 OA
BRANCH  17  18
HETATM   18  C   UNL     1     -40.281  52.496 -50.879  1.00  0.00     0.171 C 
HETATM   19  C   UNL     1     -39.942  51.020 -50.786  1.00  0.00     0.034 C 
ENDBRANCH  17  18
ENDBRANCH  13  17
ENDBRANCH   1   9
BRANCH   2  20
HETATM   20  C   UNL     1     -43.520  56.729 -51.031  1.00  0.00     0.129 C 
BRANCH  20  21
HETATM   21  C   UNL     1     -44.914  57.356 -50.956  1.00  0.00     0.048 C 
BRANCH  21  22
HETATM   22  C   UNL     1     -45.068  58.798 -51.446  1.00  0.00     0.236 C 
BRANCH  22  23
HETATM   23  N   UNL     1     -44.527  59.839 -50.506  1.00  0.00    -0.067 N 
HETATM   24  H   UNL     1     -43.754  59.400 -49.966  1.00  0.00     0.280 HD
HETATM   25  C   UNL     1     -44.018  61.106 -51.170  1.00  0.00     0.261 C 
HETATM   26  C   UNL     1     -43.496  62.082 -50.108  1.00  0.00     0.195 C 
HETATM   27  O   UNL     1     -44.513  62.386 -49.146  1.00  0.00    -0.388 OA
HETATM   28  C   UNL     1     -44.942  61.210 -48.450  1.00  0.00     0.195 C 
HETATM   29  C   UNL     1     -45.553  60.200 -49.425  1.00  0.00     0.261 C 
ENDBRANCH  22  23
ENDBRANCH  21  22
ENDBRANCH  20  21
ENDBRANCH   2  20
BRANCH   8  30
HETATM   30  O   UNL     1     -41.591  59.362 -56.088  1.00  0.00    -0.360 OA
HETATM   31  H   UNL     1     -42.157  60.161 -56.083  1.00  0.00     0.217 HD
ENDBRANCH   8  30
BRANCH   8  32
HETATM   32  C   UNL     1     -43.233  57.683 -56.450  1.00  0.00     0.038 C 
HETATM   33  C   UNL     1     -42.913  57.006 -57.564  1.00  0.00     0.014 C 
BRANCH  33  34
HETATM   34  C   UNL     1     -43.939  56.567 -58.513  1.00  0.00    -0.036 A 
HETATM   35  C   UNL     1     -43.782  55.336 -59.159  1.00  0.00     0.011 A 
HETATM   36  C   UNL     1     -44.729  54.900 -60.087  1.00  0.00     0.001 A 
HETATM   37  C   UNL     1     -45.842  55.690 -60.369  1.00  0.00     0.000 A 
HETATM   38  C   UNL     1     -46.009  56.915 -59.721  1.00  0.00     0.001 A 
HETATM   39  C   UNL     1     -45.060  57.354 -58.796  1.00  0.00     0.011 A 
ENDBRANCH  33  34
ENDBRANCH   8  32
TORSDOF 11
ENDMDL
MODEL 3
REMARK VINA RESULT:      -7.9      2.602      5.838
REMARK  11 active torsions:
REMARK  status: ('A' for Active; 'I' for Inactive)
REMARK    1  A    between atoms: C_2  and  O_3 
REMARK    2  A    between atoms: O_3  and  C_4 
REMARK    3  A    between atoms: C_5  and  O_6 
REMARK    4  A    between atoms: C_9  and  C_10 
REMARK    5  A    between atoms: N_11  and  C_12 
REMARK    6  A    between atoms: C_12  and  C_13 
REMARK    7  A    between atoms: C_13  and  C_14 
REMARK    8  A    between atoms: C_14  and  N_15 
REMARK    9  A    between atoms: C_27  and  O_28 
REMARK   10  A    between atoms: C_27  and  C_29 
REMARK   11  A    between atoms: C_30  and  C_31 
ROOT
HETATM    1  C   UNL     1     -43.445  56.791 -54.142  1.00  0.00     0.161 C 
HETATM    2  N   UNL     1     -44.554  57.727 -54.351  1.00  0.00    -0.332 N 
HETATM    3  C   UNL     1     -44.651  58.174 -55.649  1.00  0.00     0.295 C 
HETATM    4  O   UNL     1     -45.455  58.980 -56.076  1.00  0.00    -0.264 OA
HETATM    5  C   UNL     1     -42.972  56.455 -55.534  1.00  0.00     0.058 C 
HETATM    6  C   UNL     1     -43.558  57.458 -56.446  1.00  0.00     0.250 C 
HETATM    7  O   UNL     1     -43.265  57.669 -57.601  1.00  0.00    -0.282 OA
HETATM    8  C   UNL     1     -42.346  55.367 -56.010  1.00  0.00     0.078 C 
ENDROOT
BRANCH   1   9
HETATM    9  C   UNL     1     -42.372  57.423 -53.268  1.00  0.00    -0.028 A 
HETATM   10  C   UNL     1     -41.647  58.523 -53.757  1.00  0.00     0.012 A 
HETATM   11  C   UNL     1     -40.637  59.106 -52.992  1.00  0.00     0.040 A 
HETATM   12  C   UNL     1     -40.334  58.579 -51.745  1.00  0.00     0.099 A 
HETATM   13  C   UNL     1     -41.024  57.482 -51.229  1.00  0.00     0.102 A 
HETATM   14  C   UNL     1     -42.063  56.926 -51.979  1.00  0.00     0.049 A 
BRANCH  12  15
HETATM   15  O   UNL     1     -39.325  59.162 -51.030  1.00  0.00    -0.358 OA
HETATM   16  H   UNL     1     -39.759  59.686 -50.330  1.00  0.00     0.218 HD
ENDBRANCH  12  15
BRANCH  13  17
HETATM   17  O   UNL     1     -40.594  57.051 -50.002  1.00  0.00    -0.349 OA
BRANCH  17  18
HETATM   18  C   UNL     1     -41.180  55.858 -49.486  1.00  0.00     0.171 C 
HETATM   19  C   UNL     1     -40.133  54.760 -49.526  1.00  0.00     0.034 C 
ENDBRANCH  17  18
ENDBRANCH  13  17
ENDBRANCH   1   9
BRANCH   2  20
HETATM   20  C   UNL     1     -45.552  58.000 -53.330  1.00  0.00     0.129 C 
BRANCH  20  21
HETATM   21  C   UNL     1     -45.264  59.215 -52.446  1.00  0.00     0.048 C 
BRANCH  21  22
HETATM   22  C   UNL     1     -44.960  58.961 -50.968  1.00  0.00     0.236 C 
BRANCH  22  23
HETATM   23  N   UNL     1     -44.270  60.097 -50.266  1.00  0.00    -0.067 N 
HETATM   24  H   UNL     1     -43.686  59.687 -49.509  1.00  0.00     0.280 HD
HETATM   25  C   UNL     1     -43.400  60.971 -51.153  1.00  0.00     0.261 C 
HETATM   26  C   UNL     1     -42.757  62.087 -50.320  1.00  0.00     0.195 C 
HETATM   27  O   UNL     1     -43.753  62.871 -49.655  1.00  0.00    -0.388 OA
HETATM   28  C   UNL     1     -44.526  62.075 -48.750  1.00  0.00     0.195 C 
HETATM   29  C   UNL     1     -45.273  60.971 -49.505  1.00  0.00     0.261 C 
ENDBRANCH  22  23
ENDBRANCH  21  22
ENDBRANCH  20  21
ENDBRANCH   2  20
BRANCH   8  30
HETATM   30  O   UNL     1     -42.064  55.190 -57.352  1.00  0.00    -0.360 OA
HETATM   31  H   UNL     1     -41.447  54.441 -57.477  1.00  0.00     0.217 HD
ENDBRANCH   8  30
BRANCH   8  32
HETATM   32  C   UNL     1     -41.974  54.239 -55.177  1.00  0.00     0.038 C 
HETATM   33  C   UNL     1     -40.770  54.081 -54.603  1.00  0.00     0.014 C 
BRANCH  33  34
HETATM   34  C   UNL     1     -40.410  52.842 -53.911  1.00  0.00    -0.036 A 
HETATM   35  C   UNL     1     -40.180  52.878 -52.531  1.00  0.00     0.011 A 
HETATM   36  C   UNL     1     -39.809  51.719 -51.846  1.00  0.00     0.001 A 
HETATM   37  C   UNL     1     -39.676  50.516 -52.537  1.00  0.00     0.000 A 
HETATM   38  C   UNL     1     -39.913  50.470 -53.911  1.00  0.00     0.001 A 
HETATM   39  C   UNL     1     -40.279  51.631 -54.598  1.00  0.00     0.011 A 
ENDBRANCH  33  34
ENDBRANCH   8  32
TORSDOF 11
ENDMDL
MODEL 4
REMARK VINA RESULT:      -7.8      2.111      3.048
REMARK  11 active torsions:
REMARK  status: ('A' for Active; 'I' for Inactive)
REMARK    1  A    between atoms: C_2  and  O_3 
REMARK    2  A    between atoms: O_3  and  C_4 
REMARK    3  A    between atoms: C_5  and  O_6 
REMARK    4  A    between atoms: C_9  and  C_10 
REMARK    5  A    between atoms: N_11  and  C_12 
REMARK    6  A    between atoms: C_12  and  C_13 
REMARK    7  A    between atoms: C_13  and  C_14 
REMARK    8  A    between atoms: C_14  and  N_15 
REMARK    9  A    between atoms: C_27  and  O_28 
REMARK   10  A    between atoms: C_27  and  C_29 
REMARK   11  A    between atoms: C_30  and  C_31 
ROOT
HETATM    1  C   UNL     1     -43.125  57.852 -52.912  1.00  0.00     0.161 C 
HETATM    2  N   UNL     1     -43.075  59.243 -52.451  1.00  0.00    -0.332 N 
HETATM    3  C   UNL     1     -43.966  59.512 -51.439  1.00  0.00     0.295 C 
HETATM    4  O   UNL     1     -44.150  60.592 -50.909  1.00  0.00    -0.264 OA
HETATM    5  C   UNL     1     -43.980  57.149 -51.887  1.00  0.00     0.058 C 
HETATM    6  C   UNL     1     -44.674  58.197 -51.108  1.00  0.00     0.250 C 
HETATM    7  O   UNL     1     -45.598  58.057 -50.340  1.00  0.00    -0.282 OA
HETATM    8  C   UNL     1     -44.013  55.864 -51.501  1.00  0.00     0.078 C 
ENDROOT
BRANCH   1   9
HETATM    9  C   UNL     1     -43.682  57.777 -54.326  1.00  0.00    -0.028 A 
HETATM   10  C   UNL     1     -45.047  58.036 -54.542  1.00  0.00     0.012 A 
HETATM   11  C   UNL     1     -45.594  57.947 -55.821  1.00  0.00     0.040 A 
HETATM   12  C   UNL     1     -44.784  57.581 -56.887  1.00  0.00     0.099 A 
HETATM   13  C   UNL     1     -43.428  57.307 -56.712  1.00  0.00     0.102 A 
HETATM   14  C   UNL     1     -42.873  57.436 -55.436  1.00  0.00     0.049 A 
BRANCH  12  15
HETATM   15  O   UNL     1     -45.357  57.484 -58.124  1.00  0.00    -0.358 OA
HETATM   16  H   UNL     1     -44.628  57.284 -58.743  1.00  0.00     0.218 HD
ENDBRANCH  12  15
BRANCH  13  17
HETATM   17  O   UNL     1     -42.761  56.926 -57.846  1.00  0.00    -0.349 OA
BRANCH  17  18
HETATM   18  C   UNL     1     -41.990  57.920 -58.517  1.00  0.00     0.171 C 
HETATM   19  C   UNL     1     -42.316  57.853 -59.998  1.00  0.00     0.034 C 
ENDBRANCH  17  18
ENDBRANCH  13  17
ENDBRANCH   1   9
BRANCH   2  20
HETATM   20  C   UNL     1     -42.056  60.178 -52.897  1.00  0.00     0.129 C 
BRANCH  20  21
HETATM   21  C   UNL     1     -42.469  61.087 -54.057  1.00  0.00     0.048 C 
BRANCH  21  22
HETATM   22  C   UNL     1     -42.994  62.482 -53.712  1.00  0.00     0.236 C 
BRANCH  22  23
HETATM   23  N   UNL     1     -44.376  62.501 -53.120  1.00  0.00    -0.067 N 
HETATM   24  H   UNL     1     -44.364  61.887 -52.280  1.00  0.00     0.280 HD
HETATM   25  C   UNL     1     -44.893  63.875 -52.729  1.00  0.00     0.261 C 
HETATM   26  C   UNL     1     -46.305  63.756 -52.142  1.00  0.00     0.195 C 
HETATM   27  O   UNL     1     -47.195  63.123 -53.068  1.00  0.00    -0.388 OA
HETATM   28  C   UNL     1     -46.765  61.793 -53.379  1.00  0.00     0.195 C 
HETATM   29  C   UNL     1     -45.387  61.813 -54.046  1.00  0.00     0.261 C 
ENDBRANCH  22  23
ENDBRANCH  21  22
ENDBRANCH  20  21
ENDBRANCH   2  20
BRANCH   8  30
HETATM   30  O   UNL     1     -44.812  55.409 -50.470  1.00  0.00    -0.360 OA
HETATM   31  H   UNL     1     -44.761  56.016 -49.703  1.00  0.00     0.217 HD
ENDBRANCH   8  30
BRANCH   8  32
HETATM   32  C   UNL     1     -43.158  54.842 -52.079  1.00  0.00     0.038 C 
HETATM   33  C   UNL     1     -42.021  54.398 -51.521  1.00  0.00     0.014 C 
BRANCH  33  34
HETATM   34  C   UNL     1     -41.125  53.486 -52.236  1.00  0.00    -0.036 A 
HETATM   35  C   UNL     1     -41.140  53.480 -53.635  1.00  0.00     0.011 A 
HETATM   36  C   UNL     1     -40.317  52.604 -54.346  1.00  0.00     0.001 A 
HETATM   37  C   UNL     1     -39.470  51.735 -53.661  1.00  0.00     0.000 A 
HETATM   38  C   UNL     1     -39.443  51.742 -52.266  1.00  0.00     0.001 A 
HETATM   39  C   UNL     1     -40.270  52.615 -51.553  1.00  0.00     0.011 A 
ENDBRANCH  33  34
ENDBRANCH   8  32
TORSDOF 11
ENDMDL
MODEL 5
REMARK VINA RESULT:      -7.7      1.575      2.380
REMARK  11 active torsions:
REMARK  status: ('A' for Active; 'I' for Inactive)
REMARK    1  A    between atoms: C_2  and  O_3 
REMARK    2  A    between atoms: O_3  and  C_4 
REMARK    3  A    between atoms: C_5  and  O_6 
REMARK    4  A    between atoms: C_9  and  C_10 
REMARK    5  A    between atoms: N_11  and  C_12 
REMARK    6  A    between atoms: C_12  and  C_13 
REMARK    7  A    between atoms: C_13  and  C_14 
REMARK    8  A    between atoms: C_14  and  N_15 
REMARK    9  A    between atoms: C_27  and  O_28 
REMARK   10  A    between atoms: C_27  and  C_29 
REMARK   11  A    between atoms: C_30  and  C_31 
ROOT
HETATM    1  C   UNL     1     -43.401  58.563 -52.962  1.00  0.00     0.161 C 
HETATM    2  N   UNL     1     -43.685  59.961 -52.627  1.00  0.00    -0.332 N 
HETATM    3  C   UNL     1     -44.689  60.104 -51.698  1.00  0.00     0.295 C 
HETATM    4  O   UNL     1     -45.141  61.153 -51.280  1.00  0.00    -0.264 OA
HETATM    5  C   UNL     1     -44.163  57.769 -51.932  1.00  0.00     0.058 C 
HETATM    6  C   UNL     1     -45.123  58.694 -51.293  1.00  0.00     0.250 C 
HETATM    7  O   UNL     1     -46.053  58.413 -50.572  1.00  0.00    -0.282 OA
HETATM    8  C   UNL     1     -43.950  56.541 -51.434  1.00  0.00     0.078 C 
ENDROOT
BRANCH   1   9
HETATM    9  C   UNL     1     -43.817  58.262 -54.395  1.00  0.00    -0.028 A 
HETATM   10  C   UNL     1     -45.180  58.291 -54.735  1.00  0.00     0.012 A 
HETATM   11  C   UNL     1     -45.596  57.991 -56.032  1.00  0.00     0.040 A 
HETATM   12  C   UNL     1     -44.654  57.643 -56.988  1.00  0.00     0.099 A 
HETATM   13  C   UNL     1     -43.293  57.593 -56.687  1.00  0.00     0.102 A 
HETATM   14  C   UNL     1     -42.874  57.934 -55.398  1.00  0.00     0.049 A 
BRANCH  12  15
HETATM   15  O   UNL     1     -45.098  57.335 -58.244  1.00  0.00    -0.358 OA
HETATM   16  H   UNL     1     -45.577  56.488 -58.160  1.00  0.00     0.218 HD
ENDBRANCH  12  15
BRANCH  13  17
HETATM   17  O   UNL     1     -42.483  57.201 -57.721  1.00  0.00    -0.349 OA
BRANCH  17  18
HETATM   18  C   UNL     1     -41.927  58.226 -58.541  1.00  0.00     0.171 C 
HETATM   19  C   UNL     1     -41.815  57.692 -59.957  1.00  0.00     0.034 C 
ENDBRANCH  17  18
ENDBRANCH  13  17
ENDBRANCH   1   9
BRANCH   2  20
HETATM   20  C   UNL     1     -42.858  61.062 -53.094  1.00  0.00     0.129 C 
BRANCH  20  21
HETATM   21  C   UNL     1     -43.487  61.933 -54.184  1.00  0.00     0.048 C 
BRANCH  21  22
HETATM   22  C   UNL     1     -43.053  61.682 -55.630  1.00  0.00     0.236 C 
BRANCH  22  23
HETATM   23  N   UNL     1     -44.156  61.226 -56.544  1.00  0.00    -0.067 N 
HETATM   24  H   UNL     1     -44.238  60.193 -56.442  1.00  0.00     0.280 HD
HETATM   25  C   UNL     1     -45.511  61.864 -56.291  1.00  0.00     0.261 C 
HETATM   26  C   UNL     1     -46.542  61.316 -57.285  1.00  0.00     0.195 C 
HETATM   27  O   UNL     1     -46.121  61.537 -58.636  1.00  0.00    -0.388 OA
HETATM   28  C   UNL     1     -44.886  60.867 -58.914  1.00  0.00     0.195 C 
HETATM   29  C   UNL     1     -43.767  61.405 -58.016  1.00  0.00     0.261 C 
ENDBRANCH  22  23
ENDBRANCH  21  22
ENDBRANCH  20  21
ENDBRANCH   2  20
BRANCH   8  30
HETATM   30  O   UNL     1     -44.710  56.000 -50.415  1.00  0.00    -0.360 OA
HETATM   31  H   UNL     1     -44.628  55.025 -50.405  1.00  0.00     0.217 HD
ENDBRANCH   8  30
BRANCH   8  32
HETATM   32  C   UNL     1     -42.854  55.691 -51.865  1.00  0.00     0.038 C 
HETATM   33  C   UNL     1     -43.002  54.554 -52.562  1.00  0.00     0.014 C 
BRANCH  33  34
HETATM   34  C   UNL     1     -41.868  53.664 -52.821  1.00  0.00    -0.036 A 
HETATM   35  C   UNL     1     -41.667  53.182 -54.120  1.00  0.00     0.011 A 
HETATM   36  C   UNL     1     -40.611  52.311 -54.394  1.00  0.00     0.001 A 
HETATM   37  C   UNL     1     -39.746  51.923 -53.373  1.00  0.00     0.000 A 
HETATM   38  C   UNL     1     -39.934  52.407 -52.077  1.00  0.00     0.001 A 
HETATM   39  C   UNL     1     -40.994  53.275 -51.801  1.00  0.00     0.011 A 
ENDBRANCH  33  34
ENDBRANCH   8  32
TORSDOF 11
ENDMDL
MODEL 6
REMARK VINA RESULT:      -7.5      0.939      1.502
REMARK  11 active torsions:
REMARK  status: ('A' for Active; 'I' for Inactive)
REMARK    1  A    between atoms: C_2  and  O_3 
REMARK    2  A    between atoms: O_3  and  C_4 
REMARK    3  A    between atoms: C_5  and  O_6 
REMARK    4  A    between atoms: C_9  and  C_10 
REMARK    5  A    between atoms: N_11  and  C_12 
REMARK    6  A    between atoms: C_12  and  C_13 
REMARK    7  A    between atoms: C_13  and  C_14 
REMARK    8  A    between atoms: C_14  and  N_15 
REMARK    9  A    between atoms: C_27  and  O_28 
REMARK   10  A    between atoms: C_27  and  C_29 
REMARK   11  A    between atoms: C_30  and  C_31 
ROOT
HETATM    1  C   UNL     1     -43.038  57.913 -53.004  1.00  0.00     0.161 C 
HETATM    2  N   UNL     1     -43.324  59.330 -52.759  1.00  0.00    -0.332 N 
HETATM    3  C   UNL     1     -44.420  59.532 -51.953  1.00  0.00     0.295 C 
HETATM    4  O   UNL     1     -44.890  60.606 -51.631  1.00  0.00    -0.264 OA
HETATM    5  C   UNL     1     -43.927  57.179 -52.032  1.00  0.00     0.058 C 
HETATM    6  C   UNL     1     -44.928  58.149 -51.542  1.00  0.00     0.250 C 
HETATM    7  O   UNL     1     -45.938  57.917 -50.917  1.00  0.00    -0.282 OA
HETATM    8  C   UNL     1     -43.798  55.969 -51.465  1.00  0.00     0.078 C 
ENDROOT
BRANCH   1   9
HETATM    9  C   UNL     1     -43.301  57.559 -54.460  1.00  0.00    -0.028 A 
HETATM   10  C   UNL     1     -42.302  56.903 -55.200  1.00  0.00     0.012 A 
HETATM   11  C   UNL     1     -42.502  56.592 -56.544  1.00  0.00     0.040 A 
HETATM   12  C   UNL     1     -43.691  56.951 -57.160  1.00  0.00     0.099 A 
HETATM   13  C   UNL     1     -44.703  57.613 -56.463  1.00  0.00     0.102 A 
HETATM   14  C   UNL     1     -44.518  57.887 -55.105  1.00  0.00     0.049 A 
BRANCH  12  15
HETATM   15  O   UNL     1     -43.846  56.649 -58.484  1.00  0.00    -0.358 OA
HETATM   16  H   UNL     1     -42.943  56.556 -58.846  1.00  0.00     0.218 HD
ENDBRANCH  12  15
BRANCH  13  17
HETATM   17  O   UNL     1     -45.806  57.935 -57.208  1.00  0.00    -0.349 OA
BRANCH  17  18
HETATM   18  C   UNL     1     -46.078  59.320 -57.409  1.00  0.00     0.171 C 
HETATM   19  C   UNL     1     -47.543  59.468 -57.776  1.00  0.00     0.034 C 
ENDBRANCH  17  18
ENDBRANCH  13  17
ENDBRANCH   1   9
BRANCH   2  20
HETATM   20  C   UNL     1     -42.425  60.394 -53.177  1.00  0.00     0.129 C 
BRANCH  20  21
HETATM   21  C   UNL     1     -42.824  61.116 -54.465  1.00  0.00     0.048 C 
BRANCH  21  22
HETATM   22  C   UNL     1     -42.165  60.658 -55.768  1.00  0.00     0.236 C 
BRANCH  22  23
HETATM   23  N   UNL     1     -42.953  60.966 -57.010  1.00  0.00    -0.067 N 
HETATM   24  H   UNL     1     -43.899  60.547 -56.891  1.00  0.00     0.280 HD
HETATM   25  C   UNL     1     -43.096  62.443 -57.334  1.00  0.00     0.261 C 
HETATM   26  C   UNL     1     -43.917  62.621 -58.618  1.00  0.00     0.195 C 
HETATM   27  O   UNL     1     -43.319  61.916 -59.712  1.00  0.00    -0.388 OA
HETATM   28  C   UNL     1     -43.256  60.509 -59.455  1.00  0.00     0.195 C 
HETATM   29  C   UNL     1     -42.388  60.223 -58.226  1.00  0.00     0.261 C 
ENDBRANCH  22  23
ENDBRANCH  21  22
ENDBRANCH  20  21
ENDBRANCH   2  20
BRANCH   8  30
HETATM   30  O   UNL     1     -44.679  55.488 -50.515  1.00  0.00    -0.360 OA
HETATM   31  H   UNL     1     -44.202  55.249 -49.694  1.00  0.00     0.217 HD
ENDBRANCH   8  30
BRANCH   8  32
HETATM   32  C   UNL     1     -42.683  55.082 -51.737  1.00  0.00     0.038 C 
HETATM   33  C   UNL     1     -42.578  54.302 -52.825  1.00  0.00     0.014 C 
BRANCH  33  34
HETATM   34  C   UNL     1     -41.508  53.311 -52.955  1.00  0.00    -0.036 A 
HETATM   35  C   UNL     1     -40.714  53.020 -51.840  1.00  0.00     0.011 A 
HETATM   36  C   UNL     1     -39.669  52.100 -51.937  1.00  0.00     0.001 A 
HETATM   37  C   UNL     1     -39.417  51.461 -53.150  1.00  0.00     0.000 A 
HETATM   38  C   UNL     1     -40.210  51.739 -54.264  1.00  0.00     0.001 A 
HETATM   39  C   UNL     1     -41.253  52.663 -54.168  1.00  0.00     0.011 A 
ENDBRANCH  33  34
ENDBRANCH   8  32
TORSDOF 11
ENDMDL
MODEL 7
REMARK VINA RESULT:      -7.5      2.618      5.427
REMARK  11 active torsions:
REMARK  status: ('A' for Active; 'I' for Inactive)
REMARK    1  A    between atoms: C_2  and  O_3 
REMARK    2  A    between atoms: O_3  and  C_4 
REMARK    3  A    between atoms: C_5  and  O_6 
REMARK    4  A    between atoms: C_9  and  C_10 
REMARK    5  A    between atoms: N_11  and  C_12 
REMARK    6  A    between atoms: C_12  and  C_13 
REMARK    7  A    between atoms: C_13  and  C_14 
REMARK    8  A    between atoms: C_14  and  N_15 
REMARK    9  A    between atoms: C_27  and  O_28 
REMARK   10  A    between atoms: C_27  and  C_29 
REMARK   11  A    between atoms: C_30  and  C_31 
ROOT
HETATM    1  C   UNL     1     -43.406  56.871 -53.869  1.00  0.00     0.161 C 
HETATM    2  N   UNL     1     -44.514  57.824 -53.984  1.00  0.00    -0.332 N 
HETATM    3  C   UNL     1     -44.627  58.378 -55.238  1.00  0.00     0.295 C 
HETATM    4  O   UNL     1     -45.434  59.219 -55.584  1.00  0.00    -0.264 OA
HETATM    5  C   UNL     1     -42.954  56.650 -55.291  1.00  0.00     0.058 C 
HETATM    6  C   UNL     1     -43.549  57.729 -56.108  1.00  0.00     0.250 C 
HETATM    7  O   UNL     1     -43.271  58.034 -57.246  1.00  0.00    -0.282 OA
HETATM    8  C   UNL     1     -42.340  55.605 -55.866  1.00  0.00     0.078 C 
ENDROOT
BRANCH   1   9
HETATM    9  C   UNL     1     -42.318  57.424 -52.961  1.00  0.00    -0.028 A 
HETATM   10  C   UNL     1     -41.553  58.521 -53.394  1.00  0.00     0.012 A 
HETATM   11  C   UNL     1     -40.529  59.033 -52.598  1.00  0.00     0.040 A 
HETATM   12  C   UNL     1     -40.252  58.439 -51.376  1.00  0.00     0.099 A 
HETATM   13  C   UNL     1     -40.981  57.342 -50.916  1.00  0.00     0.102 A 
HETATM   14  C   UNL     1     -42.034  56.857 -51.696  1.00  0.00     0.049 A 
BRANCH  12  15
HETATM   15  O   UNL     1     -39.228  58.953 -50.630  1.00  0.00    -0.358 OA
HETATM   16  H   UNL     1     -38.808  58.190 -50.189  1.00  0.00     0.218 HD
ENDBRANCH  12  15
BRANCH  13  17
HETATM   17  O   UNL     1     -40.574  56.839 -49.708  1.00  0.00    -0.349 OA
BRANCH  17  18
HETATM   18  C   UNL     1     -41.147  55.604 -49.287  1.00  0.00     0.171 C 
HETATM   19  C   UNL     1     -40.062  54.544 -49.313  1.00  0.00     0.034 C 
ENDBRANCH  17  18
ENDBRANCH  13  17
ENDBRANCH   1   9
BRANCH   2  20
HETATM   20  C   UNL     1     -45.496  58.013 -52.928  1.00  0.00     0.129 C 
BRANCH  20  21
HETATM   21  C   UNL     1     -45.099  59.014 -51.841  1.00  0.00     0.048 C 
BRANCH  21  22
HETATM   22  C   UNL     1     -44.795  60.449 -52.276  1.00  0.00     0.236 C 
BRANCH  22  23
HETATM   23  N   UNL     1     -45.895  61.113 -53.056  1.00  0.00    -0.067 N 
HETATM   24  H   UNL     1     -46.214  60.437 -53.782  1.00  0.00     0.280 HD
HETATM   25  C   UNL     1     -47.089  61.565 -52.233  1.00  0.00     0.261 C 
HETATM   26  C   UNL     1     -48.134  62.222 -53.143  1.00  0.00     0.195 C 
HETATM   27  O   UNL     1     -47.568  63.322 -53.864  1.00  0.00    -0.388 OA
HETATM   28  C   UNL     1     -46.496  62.895 -54.712  1.00  0.00     0.195 C 
HETATM   29  C   UNL     1     -45.360  62.290 -53.880  1.00  0.00     0.261 C 
ENDBRANCH  22  23
ENDBRANCH  21  22
ENDBRANCH  20  21
ENDBRANCH   2  20
BRANCH   8  30
HETATM   30  O   UNL     1     -42.077  55.540 -57.221  1.00  0.00    -0.360 OA
HETATM   31  H   UNL     1     -41.536  54.751 -57.429  1.00  0.00     0.217 HD
ENDBRANCH   8  30
BRANCH   8  32
HETATM   32  C   UNL     1     -41.960  54.410 -55.135  1.00  0.00     0.038 C 
HETATM   33  C   UNL     1     -40.844  54.291 -54.397  1.00  0.00     0.014 C 
BRANCH  33  34
HETATM   34  C   UNL     1     -40.442  53.006 -53.821  1.00  0.00    -0.036 A 
HETATM   35  C   UNL     1     -40.389  51.879 -54.649  1.00  0.00     0.011 A 
HETATM   36  C   UNL     1     -40.034  50.635 -54.126  1.00  0.00     0.001 A 
HETATM   37  C   UNL     1     -39.723  50.512 -52.773  1.00  0.00     0.000 A 
HETATM   38  C   UNL     1     -39.765  51.634 -51.943  1.00  0.00     0.001 A 
HETATM   39  C   UNL     1     -40.124  52.878 -52.465  1.00  0.00     0.011 A 
ENDBRANCH  33  34
ENDBRANCH   8  32
TORSDOF 11
ENDMDL
MODEL 8
REMARK VINA RESULT:      -7.4      2.122      2.808
REMARK  11 active torsions:
REMARK  status: ('A' for Active; 'I' for Inactive)
REMARK    1  A    between atoms: C_2  and  O_3 
REMARK    2  A    between atoms: O_3  and  C_4 
REMARK    3  A    between atoms: C_5  and  O_6 
REMARK    4  A    between atoms: C_9  and  C_10 
REMARK    5  A    between atoms: N_11  and  C_12 
REMARK    6  A    between atoms: C_12  and  C_13 
REMARK    7  A    between atoms: C_13  and  C_14 
REMARK    8  A    between atoms: C_14  and  N_15 
REMARK    9  A    between atoms: C_27  and  O_28 
REMARK   10  A    between atoms: C_27  and  C_29 
REMARK   11  A    between atoms: C_30  and  C_31 
ROOT
HETATM    1  C   UNL     1     -42.850  58.234 -54.990  1.00  0.00     0.161 C 
HETATM    2  N   UNL     1     -43.053  59.675 -55.168  1.00  0.00    -0.332 N 
HETATM    3  C   UNL     1     -44.099  60.172 -54.426  1.00  0.00     0.295 C 
HETATM    4  O   UNL     1     -44.498  61.321 -54.423  1.00  0.00    -0.264 OA
HETATM    5  C   UNL     1     -43.729  57.874 -53.818  1.00  0.00     0.058 C 
HETATM    6  C   UNL     1     -44.656  59.006 -53.608  1.00  0.00     0.250 C 
HETATM    7  O   UNL     1     -45.646  59.031 -52.913  1.00  0.00    -0.282 OA
HETATM    8  C   UNL     1     -43.635  56.880 -52.922  1.00  0.00     0.078 C 
ENDROOT
BRANCH   1   9
HETATM    9  C   UNL     1     -43.199  57.484 -56.268  1.00  0.00    -0.028 A 
HETATM   10  C   UNL     1     -42.499  56.308 -56.588  1.00  0.00     0.012 A 
HETATM   11  C   UNL     1     -42.774  55.614 -57.765  1.00  0.00     0.040 A 
HETATM   12  C   UNL     1     -43.736  56.102 -58.637  1.00  0.00     0.099 A 
HETATM   13  C   UNL     1     -44.446  57.271 -58.360  1.00  0.00     0.102 A 
HETATM   14  C   UNL     1     -44.197  57.943 -57.160  1.00  0.00     0.049 A 
BRANCH  12  15
HETATM   15  O   UNL     1     -43.967  55.408 -59.792  1.00  0.00    -0.358 OA
HETATM   16  H   UNL     1     -43.106  55.353 -60.249  1.00  0.00     0.218 HD
ENDBRANCH  12  15
BRANCH  13  17
HETATM   17  O   UNL     1     -45.340  57.651 -59.326  1.00  0.00    -0.349 OA
BRANCH  17  18
HETATM   18  C   UNL     1     -46.716  57.359 -59.095  1.00  0.00     0.171 C 
HETATM   19  C   UNL     1     -47.219  56.504 -60.244  1.00  0.00     0.034 C 
ENDBRANCH  17  18
ENDBRANCH  13  17
ENDBRANCH   1   9
BRANCH   2  20
HETATM   20  C   UNL     1     -42.122  60.510 -55.909  1.00  0.00     0.129 C 
BRANCH  20  21
HETATM   21  C   UNL     1     -42.637  61.025 -57.255  1.00  0.00     0.048 C 
BRANCH  21  22
HETATM   22  C   UNL     1     -41.888  60.584 -58.515  1.00  0.00     0.236 C 
BRANCH  22  23
HETATM   23  N   UNL     1     -41.422  61.712 -59.392  1.00  0.00    -0.067 N 
HETATM   24  H   UNL     1     -42.138  62.466 -59.338  1.00  0.00     0.280 HD
HETATM   25  C   UNL     1     -40.062  62.287 -59.037  1.00  0.00     0.261 C 
HETATM   26  C   UNL     1     -39.705  63.424 -60.003  1.00  0.00     0.195 C 
HETATM   27  O   UNL     1     -39.725  62.971 -61.361  1.00  0.00    -0.388 OA
HETATM   28  C   UNL     1     -41.027  62.505 -61.736  1.00  0.00     0.195 C 
HETATM   29  C   UNL     1     -41.442  61.311 -60.872  1.00  0.00     0.261 C 
ENDBRANCH  22  23
ENDBRANCH  21  22
ENDBRANCH  20  21
ENDBRANCH   2  20
BRANCH   8  30
HETATM   30  O   UNL     1     -44.493  56.755 -51.846  1.00  0.00    -0.360 OA
HETATM   31  H   UNL     1     -45.392  57.061 -52.086  1.00  0.00     0.217 HD
ENDBRANCH   8  30
BRANCH   8  32
HETATM   32  C   UNL     1     -42.579  55.884 -52.952  1.00  0.00     0.038 C 
HETATM   33  C   UNL     1     -42.740  54.618 -53.367  1.00  0.00     0.014 C 
BRANCH  33  34
HETATM   34  C   UNL     1     -41.675  53.624 -53.216  1.00  0.00    -0.036 A 
HETATM   35  C   UNL     1     -41.335  52.823 -54.312  1.00  0.00     0.011 A 
HETATM   36  C   UNL     1     -40.342  51.849 -54.194  1.00  0.00     0.001 A 
HETATM   37  C   UNL     1     -39.679  51.675 -52.981  1.00  0.00     0.000 A 
HETATM   38  C   UNL     1     -40.006  52.476 -51.886  1.00  0.00     0.001 A 
HETATM   39  C   UNL     1     -41.003  53.448 -52.002  1.00  0.00     0.011 A 
ENDBRANCH  33  34
ENDBRANCH   8  32
TORSDOF 11
ENDMDL
MODEL 9
REMARK VINA RESULT:      -7.2      2.193      3.524
REMARK  11 active torsions:
REMARK  status: ('A' for Active; 'I' for Inactive)
REMARK    1  A    between atoms: C_2  and  O_3 
REMARK    2  A    between atoms: O_3  and  C_4 
REMARK    3  A    between atoms: C_5  and  O_6 
REMARK    4  A    between atoms: C_9  and  C_10 
REMARK    5  A    between atoms: N_11  and  C_12 
REMARK    6  A    between atoms: C_12  and  C_13 
REMARK    7  A    between atoms: C_13  and  C_14 
REMARK    8  A    between atoms: C_14  and  N_15 
REMARK    9  A    between atoms: C_27  and  O_28 
REMARK   10  A    between atoms: C_27  and  C_29 
REMARK   11  A    between atoms: C_30  and  C_31 
ROOT
HETATM    1  C   UNL     1     -43.813  58.959 -55.150  1.00  0.00     0.161 C 
HETATM    2  N   UNL     1     -43.764  60.422 -55.069  1.00  0.00    -0.332 N 
HETATM    3  C   UNL     1     -44.511  60.933 -54.034  1.00  0.00     0.295 C 
HETATM    4  O   UNL     1     -44.668  62.111 -53.772  1.00  0.00    -0.264 OA
HETATM    5  C   UNL     1     -44.475  58.534 -53.864  1.00  0.00     0.058 C 
HETATM    6  C   UNL     1     -45.098  59.740 -53.278  1.00  0.00     0.250 C 
HETATM    7  O   UNL     1     -45.893  59.793 -52.367  1.00  0.00    -0.282 OA
HETATM    8  C   UNL     1     -44.388  57.391 -53.166  1.00  0.00     0.078 C 
ENDROOT
BRANCH   1   9
HETATM    9  C   UNL     1     -44.564  58.518 -56.398  1.00  0.00    -0.028 A 
HETATM   10  C   UNL     1     -45.963  58.651 -56.441  1.00  0.00     0.012 A 
HETATM   11  C   UNL     1     -46.684  58.230 -57.558  1.00  0.00     0.040 A 
HETATM   12  C   UNL     1     -46.013  57.656 -58.627  1.00  0.00     0.099 A 
HETATM   13  C   UNL     1     -44.627  57.497 -58.619  1.00  0.00     0.102 A 
HETATM   14  C   UNL     1     -43.902  57.957 -57.516  1.00  0.00     0.049 A 
BRANCH  12  15
HETATM   15  O   UNL     1     -46.752  57.236 -59.698  1.00  0.00    -0.358 OA
HETATM   16  H   UNL     1     -47.028  58.046 -60.168  1.00  0.00     0.218 HD
ENDBRANCH  12  15
BRANCH  13  17
HETATM   17  O   UNL     1     -44.106  56.885 -59.728  1.00  0.00    -0.349 OA
BRANCH  17  18
HETATM   18  C   UNL     1     -43.439  55.639 -59.535  1.00  0.00     0.171 C 
HETATM   19  C   UNL     1     -44.443  54.524 -59.763  1.00  0.00     0.034 C 
ENDBRANCH  17  18
ENDBRANCH  13  17
ENDBRANCH   1   9
BRANCH   2  20
HETATM   20  C   UNL     1     -42.867  61.221 -55.887  1.00  0.00     0.129 C 
BRANCH  20  21
HETATM   21  C   UNL     1     -43.528  61.945 -57.063  1.00  0.00     0.048 C 
BRANCH  21  22
HETATM   22  C   UNL     1     -42.830  61.872 -58.422  1.00  0.00     0.236 C 
BRANCH  22  23
HETATM   23  N   UNL     1     -43.737  61.543 -59.575  1.00  0.00    -0.067 N 
HETATM   24  H   UNL     1     -43.840  62.406 -60.147  1.00  0.00     0.280 HD
HETATM   25  C   UNL     1     -43.265  60.406 -60.464  1.00  0.00     0.261 C 
HETATM   26  C   UNL     1     -44.275  60.172 -61.595  1.00  0.00     0.195 C 
HETATM   27  O   UNL     1     -45.579  59.899 -61.072  1.00  0.00    -0.388 OA
HETATM   28  C   UNL     1     -46.073  61.000 -60.301  1.00  0.00     0.195 C 
HETATM   29  C   UNL     1     -45.167  61.264 -59.095  1.00  0.00     0.261 C 
ENDBRANCH  22  23
ENDBRANCH  21  22
ENDBRANCH  20  21
ENDBRANCH   2  20
BRANCH   8  30
HETATM   30  O   UNL     1     -45.006  57.209 -51.943  1.00  0.00    -0.360 OA
HETATM   31  H   UNL     1     -45.976  57.301 -52.031  1.00  0.00     0.217 HD
ENDBRANCH   8  30
BRANCH   8  32
HETATM   32  C   UNL     1     -43.578  56.264 -53.590  1.00  0.00     0.038 C 
HETATM   33  C   UNL     1     -42.557  55.752 -52.883  1.00  0.00     0.014 C 
BRANCH  33  34
HETATM   34  C   UNL     1     -41.680  54.722 -53.445  1.00  0.00    -0.036 A 
HETATM   35  C   UNL     1     -41.425  53.567 -52.696  1.00  0.00     0.011 A 
HETATM   36  C   UNL     1     -40.573  52.579 -53.191  1.00  0.00     0.001 A 
HETATM   37  C   UNL     1     -39.978  52.736 -54.441  1.00  0.00     0.000 A 
HETATM   38  C   UNL     1     -40.235  53.880 -55.198  1.00  0.00     0.001 A 
HETATM   39  C   UNL     1     -41.084  54.872 -54.701  1.00  0.00     0.011 A 
ENDBRANCH  33  34
ENDBRANCH   8  32
TORSDOF 11
ENDMDL
MODEL 10
REMARK VINA RESULT:      -6.7      2.643      8.364
REMARK  11 active torsions:
REMARK  status: ('A' for Active; 'I' for Inactive)
REMARK    1  A    between atoms: C_2  and  O_3 
REMARK    2  A    between atoms: O_3  and  C_4 
REMARK    3  A    between atoms: C_5  and  O_6 
REMARK    4  A    between atoms: C_9  and  C_10 
REMARK    5  A    between atoms: N_11  and  C_12 
REMARK    6  A    between atoms: C_12  and  C_13 
REMARK    7  A    between atoms: C_13  and  C_14 
REMARK    8  A    between atoms: C_14  and  N_15 
REMARK    9  A    between atoms: C_27  and  O_28 
REMARK   10  A    between atoms: C_27  and  C_29 
REMARK   11  A    between atoms: C_30  and  C_31 
ROOT
HETATM    1  C   UNL     1     -42.356  57.432 -56.636  1.00  0.00     0.161 C 
HETATM    2  N   UNL     1     -42.325  56.218 -55.815  1.00  0.00    -0.332 N 
HETATM    3  C   UNL     1     -42.852  55.118 -56.451  1.00  0.00     0.295 C 
HETATM    4  O   UNL     1     -42.979  54.004 -55.978  1.00  0.00    -0.264 OA
HETATM    5  C   UNL     1     -42.726  56.942 -58.014  1.00  0.00     0.058 C 
HETATM    6  C   UNL     1     -43.242  55.565 -57.861  1.00  0.00     0.250 C 
HETATM    7  O   UNL     1     -43.831  54.901 -58.683  1.00  0.00    -0.282 OA
HETATM    8  C   UNL     1     -42.470  57.454 -59.227  1.00  0.00     0.078 C 
ENDROOT
BRANCH   1   9
HETATM    9  C   UNL     1     -43.340  58.440 -56.062  1.00  0.00    -0.028 A 
HETATM   10  C   UNL     1     -44.616  58.005 -55.664  1.00  0.00     0.012 A 
HETATM   11  C   UNL     1     -45.551  58.909 -55.161  1.00  0.00     0.040 A 
HETATM   12  C   UNL     1     -45.223  60.253 -55.073  1.00  0.00     0.099 A 
HETATM   13  C   UNL     1     -43.971  60.726 -55.468  1.00  0.00     0.102 A 
HETATM   14  C   UNL     1     -43.021  59.812 -55.932  1.00  0.00     0.049 A 
BRANCH  12  15
HETATM   15  O   UNL     1     -46.170  61.116 -54.594  1.00  0.00    -0.358 OA
HETATM   16  H   UNL     1     -45.748  61.996 -54.578  1.00  0.00     0.218 HD
ENDBRANCH  12  15
BRANCH  13  17
HETATM   17  O   UNL     1     -43.800  62.081 -55.356  1.00  0.00    -0.349 OA
BRANCH  17  18
HETATM   18  C   UNL     1     -43.194  62.756 -56.456  1.00  0.00     0.171 C 
HETATM   19  C   UNL     1     -44.207  62.828 -57.584  1.00  0.00     0.034 C 
ENDBRANCH  17  18
ENDBRANCH  13  17
ENDBRANCH   1   9
BRANCH   2  20
HETATM   20  C   UNL     1     -41.637  56.156 -54.536  1.00  0.00     0.129 C 
BRANCH  20  21
HETATM   21  C   UNL     1     -42.532  55.872 -53.327  1.00  0.00     0.048 C 
BRANCH  21  22
HETATM   22  C   UNL     1     -42.054  56.367 -51.960  1.00  0.00     0.236 C 
BRANCH  22  23
HETATM   23  N   UNL     1     -41.175  55.401 -51.217  1.00  0.00    -0.067 N 
HETATM   24  H   UNL     1     -40.194  55.578 -51.517  1.00  0.00     0.280 HD
HETATM   25  C   UNL     1     -41.259  55.484 -49.703  1.00  0.00     0.261 C 
HETATM   26  C   UNL     1     -40.319  54.452 -49.069  1.00  0.00     0.195 C 
HETATM   27  O   UNL     1     -40.627  53.129 -49.522  1.00  0.00    -0.388 OA
HETATM   28  C   UNL     1     -40.468  53.013 -50.940  1.00  0.00     0.195 C 
HETATM   29  C   UNL     1     -41.428  53.958 -51.670  1.00  0.00     0.261 C 
ENDBRANCH  22  23
ENDBRANCH  21  22
ENDBRANCH  20  21
ENDBRANCH   2  20
BRANCH   8  30
HETATM   30  O   UNL     1     -42.815  56.814 -60.402  1.00  0.00    -0.360 OA
HETATM   31  H   UNL     1     -43.031  57.466 -61.099  1.00  0.00     0.217 HD
ENDBRANCH   8  30
BRANCH   8  32
HETATM   32  C   UNL     1     -41.740  58.693 -59.425  1.00  0.00     0.038 C 
HETATM   33  C   UNL     1     -42.312  59.898 -59.579  1.00  0.00     0.014 C 
BRANCH  33  34
HETATM   34  C   UNL     1     -41.523  61.078 -59.938  1.00  0.00    -0.036 A 
HETATM   35  C   UNL     1     -41.489  61.490 -61.275  1.00  0.00     0.011 A 
HETATM   36  C   UNL     1     -40.726  62.596 -61.654  1.00  0.00     0.001 A 
HETATM   37  C   UNL     1     -39.999  63.300 -60.696  1.00  0.00     0.000 A 
HETATM   38  C   UNL     1     -40.036  62.901 -59.360  1.00  0.00     0.001 A 
HETATM   39  C   UNL     1     -40.795  61.792 -58.980  1.00  0.00     0.011 A 
ENDBRANCH  33  34
ENDBRANCH   8  32
TORSDOF 11
ENDMDL
