MODEL 1
REMARK VINA RESULT:      -8.3      0.000      0.000
REMARK  8 active torsions:
REMARK  status: ('A' for Active; 'I' for Inactive)
REMARK    1  A    between atoms: N_4  and  C_6 
REMARK    2  A    between atoms: C_6  and  C_7 
REMARK       I    between atoms: C_7  and  N_8 
REMARK    3  A    between atoms: N_8  and  C_9 
REMARK    4  A    between atoms: C_15  and  C_16 
REMARK    5  A    between atoms: C_21  and  C_22 
REMARK       I    between atoms: C_22  and  N_23 
REMARK    6  A    between atoms: N_23  and  C_24 
REMARK    7  A    between atoms: C_25  and  O_26 
REMARK    8  A    between atoms: C_29  and  O_30 
ROOT
HETATM    1  C   UNL     1     -42.455  56.587 -56.225  1.00  0.00     0.093 C 
HETATM    2  S   UNL     1     -43.127  56.027 -57.677  1.00  0.00    -0.075 SA
HETATM    3  C   UNL     1     -44.014  57.449 -57.888  1.00  0.00    -0.008 C 
HETATM    4  C   UNL     1     -43.896  58.323 -56.822  1.00  0.00    -0.026 C 
HETATM    5  C   UNL     1     -44.712  59.584 -56.801  1.00  0.00     0.041 C 
HETATM    6  C   UNL     1     -45.753  59.663 -57.923  1.00  0.00     0.010 C 
HETATM    7  C   UNL     1     -45.280  59.129 -59.295  1.00  0.00    -0.002 C 
HETATM    8  C   UNL     1     -44.845  57.652 -59.120  1.00  0.00     0.052 C 
HETATM    9  C   UNL     1     -42.883  57.869 -55.873  1.00  0.00     0.073 C 
ENDROOT
BRANCH   9  10
HETATM   10  C   UNL     1     -42.241  58.560 -54.729  1.00  0.00     0.259 C 
HETATM   11  N   UNL     1     -42.840  58.439 -53.506  1.00  0.00    -0.320 N 
HETATM   12  H   UNL     1     -43.036  59.325 -53.051  1.00  0.00     0.169 HD
HETATM   13  O   UNL     1     -41.402  59.446 -54.921  1.00  0.00    -0.267 OA
BRANCH  11  14
HETATM   14  C   UNL     1     -42.622  57.433 -52.537  1.00  0.00     0.068 A 
HETATM   15  C   UNL     1     -41.644  57.709 -51.559  1.00  0.00     0.097 A 
HETATM   16  C   UNL     1     -41.444  56.823 -50.497  1.00  0.00     0.075 A 
HETATM   17  C   UNL     1     -42.214  55.663 -50.405  1.00  0.00     0.070 A 
HETATM   18  C   UNL     1     -43.145  55.371 -51.408  1.00  0.00     0.039 A 
HETATM   19  C   UNL     1     -43.345  56.244 -52.481  1.00  0.00     0.035 A 
BRANCH  15  20
HETATM   20  O   UNL     1     -40.943  58.880 -51.743  1.00  0.00    -0.354 OA
HETATM   21  C   UNL     1     -39.809  59.079 -50.908  1.00  0.00     0.210 C 
ENDBRANCH  15  20
BRANCH  17  22
HETATM   22  O   UNL     1     -42.154  54.739 -49.397  1.00  0.00    -0.356 OA
HETATM   23  C   UNL     1     -40.960  54.695 -48.624  1.00  0.00     0.210 C 
ENDBRANCH  17  22
ENDBRANCH  11  14
ENDBRANCH   9  10
BRANCH   1  24
HETATM   24  N   UNL     1     -41.460  55.837 -55.604  1.00  0.00    -0.319 N 
HETATM   25  C   UNL     1     -41.588  54.528 -55.199  1.00  0.00     0.248 C 
HETATM   26  O   UNL     1     -42.627  53.896 -55.002  1.00  0.00    -0.271 OA
HETATM   27  H   UNL     1     -40.645  56.384 -55.319  1.00  0.00     0.169 HD
BRANCH  25  28
HETATM   28  C   UNL     1     -40.259  53.787 -55.019  1.00  0.00     0.337 C 
BRANCH  28  29
HETATM   29  N   UNL     1     -40.363  52.826 -53.822  1.00  0.00    -0.062 N 
HETATM   30  C   UNL     1     -39.600  51.537 -54.041  1.00  0.00     0.239 C 
HETATM   31  C   UNL     1     -39.974  50.549 -52.934  1.00  0.00     0.007 C 
HETATM   32  C   UNL     1     -39.231  49.227 -53.117  1.00  0.00     0.011 C 
HETATM   33  C   UNL     1     -39.689  51.149 -51.552  1.00  0.00     0.007 C 
HETATM   34  C   UNL     1     -40.384  52.498 -51.380  1.00  0.00     0.028 C 
HETATM   35  C   UNL     1     -40.048  53.467 -52.506  1.00  0.00     0.235 C 
HETATM   36  H   UNL     1     -41.363  52.554 -53.833  1.00  0.00     0.280 HD
ENDBRANCH  28  29
ENDBRANCH  25  28
ENDBRANCH   1  24
BRANCH   7  37
HETATM   37  C   UNL     1     -44.290  60.055 -60.103  1.00  0.00    -0.047 C 
HETATM   38  C   UNL     1     -43.841  61.331 -59.371  1.00  0.00     0.015 C 
HETATM   39  C   UNL     1     -43.010  59.259 -60.456  1.00  0.00     0.015 C 
HETATM   40  C   UNL     1     -44.940  60.479 -61.440  1.00  0.00     0.015 C 
ENDBRANCH   7  37
TORSDOF 8
ENDMDL
MODEL 2
REMARK VINA RESULT:      -8.2      3.180      6.815
REMARK  8 active torsions:
REMARK  status: ('A' for Active; 'I' for Inactive)
REMARK    1  A    between atoms: N_4  and  C_6 
REMARK    2  A    between atoms: C_6  and  C_7 
REMARK       I    between atoms: C_7  and  N_8 
REMARK    3  A    between atoms: N_8  and  C_9 
REMARK    4  A    between atoms: C_15  and  C_16 
REMARK    5  A    between atoms: C_21  and  C_22 
REMARK       I    between atoms: C_22  and  N_23 
REMARK    6  A    between atoms: N_23  and  C_24 
REMARK    7  A    between atoms: C_25  and  O_26 
REMARK    8  A    between atoms: C_29  and  O_30 
ROOT
HETATM    1  C   UNL     1     -43.579  58.754 -54.721  1.00  0.00     0.093 C 
HETATM    2  S   UNL     1     -45.142  59.411 -54.738  1.00  0.00    -0.075 SA
HETATM    3  C   UNL     1     -45.046  59.844 -53.108  1.00  0.00    -0.008 C 
HETATM    4  C   UNL     1     -43.879  59.412 -52.502  1.00  0.00    -0.026 C 
HETATM    5  C   UNL     1     -43.689  59.615 -51.026  1.00  0.00     0.041 C 
HETATM    6  C   UNL     1     -44.941  60.137 -50.310  1.00  0.00     0.010 C 
HETATM    7  C   UNL     1     -45.748  61.200 -51.090  1.00  0.00    -0.002 C 
HETATM    8  C   UNL     1     -46.168  60.592 -52.452  1.00  0.00     0.052 C 
HETATM    9  C   UNL     1     -42.948  58.855 -53.480  1.00  0.00     0.073 C 
ENDROOT
BRANCH   9  10
HETATM   10  C   UNL     1     -41.515  58.492 -53.363  1.00  0.00     0.259 C 
HETATM   11  N   UNL     1     -41.207  57.394 -52.609  1.00  0.00    -0.320 N 
HETATM   12  H   UNL     1     -40.517  57.569 -51.883  1.00  0.00     0.169 HD
HETATM   13  O   UNL     1     -40.635  59.305 -53.660  1.00  0.00    -0.267 OA
BRANCH  11  14
HETATM   14  C   UNL     1     -41.126  56.049 -53.039  1.00  0.00     0.068 A 
HETATM   15  C   UNL     1     -41.753  55.091 -52.217  1.00  0.00     0.097 A 
HETATM   16  C   UNL     1     -41.824  53.755 -52.623  1.00  0.00     0.075 A 
HETATM   17  C   UNL     1     -41.270  53.371 -53.845  1.00  0.00     0.070 A 
HETATM   18  C   UNL     1     -40.603  54.318 -54.629  1.00  0.00     0.039 A 
HETATM   19  C   UNL     1     -40.517  55.654 -54.227  1.00  0.00     0.035 A 
BRANCH  15  20
HETATM   20  O   UNL     1     -42.268  55.577 -51.035  1.00  0.00    -0.354 OA
HETATM   21  C   UNL     1     -41.784  54.978 -49.839  1.00  0.00     0.210 C 
ENDBRANCH  15  20
BRANCH  17  22
HETATM   22  O   UNL     1     -41.310  52.113 -54.382  1.00  0.00    -0.356 OA
HETATM   23  C   UNL     1     -40.158  51.295 -54.210  1.00  0.00     0.210 C 
ENDBRANCH  17  22
ENDBRANCH  11  14
ENDBRANCH   9  10
BRANCH   1  24
HETATM   24  N   UNL     1     -43.010  58.326 -55.917  1.00  0.00    -0.319 N 
HETATM   25  C   UNL     1     -43.137  57.064 -56.452  1.00  0.00     0.248 C 
HETATM   26  O   UNL     1     -43.465  56.027 -55.872  1.00  0.00    -0.271 OA
HETATM   27  H   UNL     1     -42.340  58.987 -56.318  1.00  0.00     0.169 HD
BRANCH  25  28
HETATM   28  C   UNL     1     -42.869  56.982 -57.957  1.00  0.00     0.337 C 
BRANCH  28  29
HETATM   29  N   UNL     1     -44.093  56.380 -58.667  1.00  0.00    -0.062 N 
HETATM   30  C   UNL     1     -44.945  57.427 -59.353  1.00  0.00     0.239 C 
HETATM   31  C   UNL     1     -46.260  56.782 -59.794  1.00  0.00     0.007 C 
HETATM   32  C   UNL     1     -47.157  57.805 -60.488  1.00  0.00     0.011 C 
HETATM   33  C   UNL     1     -45.994  55.580 -60.709  1.00  0.00     0.007 C 
HETATM   34  C   UNL     1     -45.054  54.576 -60.046  1.00  0.00     0.028 C 
HETATM   35  C   UNL     1     -43.763  55.227 -59.564  1.00  0.00     0.235 C 
HETATM   36  H   UNL     1     -44.670  56.037 -57.877  1.00  0.00     0.280 HD
ENDBRANCH  28  29
ENDBRANCH  25  28
ENDBRANCH   1  24
BRANCH   7  37
HETATM   37  C   UNL     1     -45.129  62.652 -51.138  1.00  0.00    -0.047 C 
HETATM   38  C   UNL     1     -44.328  62.982 -52.409  1.00  0.00     0.015 C 
HETATM   39  C   UNL     1     -46.263  63.700 -51.030  1.00  0.00     0.015 C 
HETATM   40  C   UNL     1     -44.199  62.866 -49.922  1.00  0.00     0.015 C 
ENDBRANCH   7  37
TORSDOF 8
ENDMDL
MODEL 3
REMARK VINA RESULT:      -7.9      2.164      5.195
REMARK  8 active torsions:
REMARK  status: ('A' for Active; 'I' for Inactive)
REMARK    1  A    between atoms: N_4  and  C_6 
REMARK    2  A    between atoms: C_6  and  C_7 
REMARK       I    between atoms: C_7  and  N_8 
REMARK    3  A    between atoms: N_8  and  C_9 
REMARK    4  A    between atoms: C_15  and  C_16 
REMARK    5  A    between atoms: C_21  and  C_22 
REMARK       I    between atoms: C_22  and  N_23 
REMARK    6  A    between atoms: N_23  and  C_24 
REMARK    7  A    between atoms: C_25  and  O_26 
REMARK    8  A    between atoms: C_29  and  O_30 
ROOT
HETATM    1  C   UNL     1     -43.060  58.725 -55.876  1.00  0.00     0.093 C 
HETATM    2  S   UNL     1     -42.930  59.594 -57.326  1.00  0.00    -0.075 SA
HETATM    3  C   UNL     1     -43.533  58.299 -58.229  1.00  0.00    -0.008 C 
HETATM    4  C   UNL     1     -43.746  57.163 -57.468  1.00  0.00    -0.026 C 
HETATM    5  C   UNL     1     -44.172  55.889 -58.139  1.00  0.00     0.041 C 
HETATM    6  C   UNL     1     -44.144  55.960 -59.671  1.00  0.00     0.010 C 
HETATM    7  C   UNL     1     -44.633  57.296 -60.275  1.00  0.00    -0.002 C 
HETATM    8  C   UNL     1     -43.757  58.440 -59.705  1.00  0.00     0.052 C 
HETATM    9  C   UNL     1     -43.570  57.436 -56.044  1.00  0.00     0.073 C 
ENDROOT
BRANCH   9  10
HETATM   10  C   UNL     1     -43.911  56.629 -54.848  1.00  0.00     0.259 C 
HETATM   11  N   UNL     1     -43.681  55.283 -54.913  1.00  0.00    -0.320 N 
HETATM   12  H   UNL     1     -44.490  54.712 -54.687  1.00  0.00     0.169 HD
HETATM   13  O   UNL     1     -44.649  57.088 -53.971  1.00  0.00    -0.267 OA
BRANCH  11  14
HETATM   14  C   UNL     1     -42.492  54.597 -54.574  1.00  0.00     0.068 A 
HETATM   15  C   UNL     1     -42.450  54.017 -53.289  1.00  0.00     0.097 A 
HETATM   16  C   UNL     1     -41.363  53.222 -52.913  1.00  0.00     0.075 A 
HETATM   17  C   UNL     1     -40.318  53.004 -53.811  1.00  0.00     0.070 A 
HETATM   18  C   UNL     1     -40.343  53.626 -55.064  1.00  0.00     0.039 A 
HETATM   19  C   UNL     1     -41.419  54.432 -55.447  1.00  0.00     0.035 A 
BRANCH  15  20
HETATM   20  O   UNL     1     -43.533  54.294 -52.484  1.00  0.00    -0.354 OA
HETATM   21  C   UNL     1     -43.420  53.914 -51.118  1.00  0.00     0.210 C 
ENDBRANCH  15  20
BRANCH  17  22
HETATM   22  O   UNL     1     -39.223  52.214 -53.590  1.00  0.00    -0.356 OA
HETATM   23  C   UNL     1     -39.422  50.805 -53.608  1.00  0.00     0.210 C 
ENDBRANCH  17  22
ENDBRANCH  11  14
ENDBRANCH   9  10
BRANCH   1  24
HETATM   24  N   UNL     1     -42.809  59.375 -54.671  1.00  0.00    -0.319 N 
HETATM   25  C   UNL     1     -43.705  60.174 -53.997  1.00  0.00     0.248 C 
HETATM   26  O   UNL     1     -44.716  60.720 -54.444  1.00  0.00    -0.271 OA
HETATM   27  H   UNL     1     -41.830  59.345 -54.378  1.00  0.00     0.169 HD
BRANCH  25  28
HETATM   28  C   UNL     1     -43.400  60.353 -52.507  1.00  0.00     0.337 C 
BRANCH  28  29
HETATM   29  N   UNL     1     -42.341  59.325 -52.071  1.00  0.00    -0.062 N 
HETATM   30  C   UNL     1     -41.185  59.958 -51.327  1.00  0.00     0.239 C 
HETATM   31  C   UNL     1     -40.070  58.921 -51.173  1.00  0.00     0.007 C 
HETATM   32  C   UNL     1     -38.877  59.517 -50.430  1.00  0.00     0.011 C 
HETATM   33  C   UNL     1     -40.591  57.670 -50.454  1.00  0.00     0.007 C 
HETATM   34  C   UNL     1     -41.818  57.097 -51.158  1.00  0.00     0.028 C 
HETATM   35  C   UNL     1     -42.910  58.141 -51.354  1.00  0.00     0.235 C 
HETATM   36  H   UNL     1     -41.942  59.011 -52.975  1.00  0.00     0.280 HD
ENDBRANCH  28  29
ENDBRANCH  25  28
ENDBRANCH   1  24
BRANCH   7  37
HETATM   37  C   UNL     1     -46.193  57.541 -60.259  1.00  0.00    -0.047 C 
HETATM   38  C   UNL     1     -46.833  57.603 -58.862  1.00  0.00     0.015 C 
HETATM   39  C   UNL     1     -46.512  58.880 -60.966  1.00  0.00     0.015 C 
HETATM   40  C   UNL     1     -46.907  56.428 -61.059  1.00  0.00     0.015 C 
ENDBRANCH   7  37
TORSDOF 8
ENDMDL
MODEL 4
REMARK VINA RESULT:      -7.8      2.865      6.484
REMARK  8 active torsions:
REMARK  status: ('A' for Active; 'I' for Inactive)
REMARK    1  A    between atoms: N_4  and  C_6 
REMARK    2  A    between atoms: C_6  and  C_7 
REMARK       I    between atoms: C_7  and  N_8 
REMARK    3  A    between atoms: N_8  and  C_9 
REMARK    4  A    between atoms: C_15  and  C_16 
REMARK    5  A    between atoms: C_21  and  C_22 
REMARK       I    between atoms: C_22  and  N_23 
REMARK    6  A    between atoms: N_23  and  C_24 
REMARK    7  A    between atoms: C_25  and  O_26 
REMARK    8  A    between atoms: C_29  and  O_30 
ROOT
HETATM    1  C   UNL     1     -44.597  58.908 -55.556  1.00  0.00     0.093 C 
HETATM    2  S   UNL     1     -45.419  60.329 -55.135  1.00  0.00    -0.075 SA
HETATM    3  C   UNL     1     -45.389  59.935 -53.493  1.00  0.00    -0.008 C 
HETATM    4  C   UNL     1     -44.851  58.684 -53.247  1.00  0.00    -0.026 C 
HETATM    5  C   UNL     1     -44.856  58.135 -51.849  1.00  0.00     0.041 C 
HETATM    6  C   UNL     1     -45.653  58.988 -50.855  1.00  0.00     0.010 C 
HETATM    7  C   UNL     1     -45.500  60.516 -51.032  1.00  0.00    -0.002 C 
HETATM    8  C   UNL     1     -45.938  60.886 -52.472  1.00  0.00     0.052 C 
HETATM    9  C   UNL     1     -44.276  58.106 -54.458  1.00  0.00     0.073 C 
ENDROOT
BRANCH   9  10
HETATM   10  C   UNL     1     -43.398  56.927 -54.654  1.00  0.00     0.259 C 
HETATM   11  N   UNL     1     -42.191  56.931 -54.012  1.00  0.00    -0.320 N 
HETATM   12  H   UNL     1     -41.396  56.769 -54.624  1.00  0.00     0.169 HD
HETATM   13  O   UNL     1     -43.602  56.140 -55.583  1.00  0.00    -0.267 OA
BRANCH  11  14
HETATM   14  C   UNL     1     -41.906  56.458 -52.711  1.00  0.00     0.068 A 
HETATM   15  C   UNL     1     -41.086  57.281 -51.911  1.00  0.00     0.097 A 
HETATM   16  C   UNL     1     -40.849  56.949 -50.575  1.00  0.00     0.075 A 
HETATM   17  C   UNL     1     -41.423  55.799 -50.032  1.00  0.00     0.070 A 
HETATM   18  C   UNL     1     -42.190  54.960 -50.847  1.00  0.00     0.039 A 
HETATM   19  C   UNL     1     -42.426  55.276 -52.188  1.00  0.00     0.035 A 
BRANCH  15  20
HETATM   20  O   UNL     1     -40.574  58.392 -52.544  1.00  0.00    -0.354 OA
HETATM   21  C   UNL     1     -39.641  59.170 -51.804  1.00  0.00     0.210 C 
ENDBRANCH  15  20
BRANCH  17  22
HETATM   22  O   UNL     1     -41.311  55.384 -48.732  1.00  0.00    -0.356 OA
HETATM   23  C   UNL     1     -40.534  54.217 -48.486  1.00  0.00     0.210 C 
ENDBRANCH  17  22
ENDBRANCH  11  14
ENDBRANCH   9  10
BRANCH   1  24
HETATM   24  N   UNL     1     -44.187  58.726 -56.874  1.00  0.00    -0.319 N 
HETATM   25  C   UNL     1     -42.908  58.922 -57.343  1.00  0.00     0.248 C 
HETATM   26  O   UNL     1     -42.004  59.576 -56.820  1.00  0.00    -0.271 OA
HETATM   27  H   UNL     1     -44.956  58.576 -57.531  1.00  0.00     0.169 HD
BRANCH  25  28
HETATM   28  C   UNL     1     -42.594  58.195 -58.654  1.00  0.00     0.337 C 
BRANCH  28  29
HETATM   29  N   UNL     1     -43.620  57.070 -58.877  1.00  0.00    -0.062 N 
HETATM   30  C   UNL     1     -44.720  57.465 -59.838  1.00  0.00     0.239 C 
HETATM   31  C   UNL     1     -45.821  56.402 -59.791  1.00  0.00     0.007 C 
HETATM   32  C   UNL     1     -46.959  56.762 -60.744  1.00  0.00     0.011 C 
HETATM   33  C   UNL     1     -45.250  55.017 -60.121  1.00  0.00     0.007 C 
HETATM   34  C   UNL     1     -44.075  54.671 -59.209  1.00  0.00     0.028 C 
HETATM   35  C   UNL     1     -43.000  55.750 -59.219  1.00  0.00     0.235 C 
HETATM   36  H   UNL     1     -44.081  56.995 -57.952  1.00  0.00     0.280 HD
ENDBRANCH  28  29
ENDBRANCH  25  28
ENDBRANCH   1  24
BRANCH   7  37
HETATM   37  C   UNL     1     -44.141  61.146 -50.535  1.00  0.00    -0.047 C 
HETATM   38  C   UNL     1     -42.937  60.188 -50.530  1.00  0.00     0.015 C 
HETATM   39  C   UNL     1     -43.766  62.344 -51.440  1.00  0.00     0.015 C 
HETATM   40  C   UNL     1     -44.312  61.700 -49.102  1.00  0.00     0.015 C 
ENDBRANCH   7  37
TORSDOF 8
ENDMDL
MODEL 5
REMARK VINA RESULT:      -7.8      2.244      7.767
REMARK  8 active torsions:
REMARK  status: ('A' for Active; 'I' for Inactive)
REMARK    1  A    between atoms: N_4  and  C_6 
REMARK    2  A    between atoms: C_6  and  C_7 
REMARK       I    between atoms: C_7  and  N_8 
REMARK    3  A    between atoms: N_8  and  C_9 
REMARK    4  A    between atoms: C_15  and  C_16 
REMARK    5  A    between atoms: C_21  and  C_22 
REMARK       I    between atoms: C_22  and  N_23 
REMARK    6  A    between atoms: N_23  and  C_24 
REMARK    7  A    between atoms: C_25  and  O_26 
REMARK    8  A    between atoms: C_29  and  O_30 
ROOT
HETATM    1  C   UNL     1     -42.716  55.045 -53.997  1.00  0.00     0.093 C 
HETATM    2  S   UNL     1     -41.650  54.563 -55.224  1.00  0.00    -0.075 SA
HETATM    3  C   UNL     1     -40.771  53.586 -54.163  1.00  0.00    -0.008 C 
HETATM    4  C   UNL     1     -41.204  53.685 -52.852  1.00  0.00    -0.026 C 
HETATM    5  C   UNL     1     -40.454  52.968 -51.766  1.00  0.00     0.041 C 
HETATM    6  C   UNL     1     -39.141  52.333 -52.240  1.00  0.00     0.010 C 
HETATM    7  C   UNL     1     -39.198  51.675 -53.638  1.00  0.00    -0.002 C 
HETATM    8  C   UNL     1     -39.632  52.750 -54.666  1.00  0.00     0.052 C 
HETATM    9  C   UNL     1     -42.432  54.469 -52.756  1.00  0.00     0.073 C 
ENDROOT
BRANCH   9  10
HETATM   10  C   UNL     1     -43.385  54.653 -51.636  1.00  0.00     0.259 C 
HETATM   11  N   UNL     1     -43.186  55.727 -50.813  1.00  0.00    -0.320 N 
HETATM   12  H   UNL     1     -43.130  55.490 -49.827  1.00  0.00     0.169 HD
HETATM   13  O   UNL     1     -44.117  53.726 -51.276  1.00  0.00    -0.267 OA
BRANCH  11  14
HETATM   14  C   UNL     1     -43.698  57.036 -50.969  1.00  0.00     0.068 A 
HETATM   15  C   UNL     1     -42.752  58.051 -51.220  1.00  0.00     0.097 A 
HETATM   16  C   UNL     1     -43.177  59.353 -51.501  1.00  0.00     0.075 A 
HETATM   17  C   UNL     1     -44.540  59.647 -51.533  1.00  0.00     0.070 A 
HETATM   18  C   UNL     1     -45.470  58.646 -51.230  1.00  0.00     0.039 A 
HETATM   19  C   UNL     1     -45.056  57.343 -50.936  1.00  0.00     0.035 A 
BRANCH  15  20
HETATM   20  O   UNL     1     -41.435  57.653 -51.167  1.00  0.00    -0.354 OA
HETATM   21  C   UNL     1     -40.472  58.674 -50.932  1.00  0.00     0.210 C 
ENDBRANCH  15  20
BRANCH  17  22
HETATM   22  O   UNL     1     -45.092  60.861 -51.839  1.00  0.00    -0.356 OA
HETATM   23  C   UNL     1     -46.405  60.861 -52.388  1.00  0.00     0.210 C 
ENDBRANCH  17  22
ENDBRANCH  11  14
ENDBRANCH   9  10
BRANCH   1  24
HETATM   24  N   UNL     1     -43.828  55.814 -54.327  1.00  0.00    -0.319 N 
HETATM   25  C   UNL     1     -43.791  57.113 -54.783  1.00  0.00     0.248 C 
HETATM   26  O   UNL     1     -42.868  57.923 -54.680  1.00  0.00    -0.271 OA
HETATM   27  H   UNL     1     -44.720  55.391 -54.058  1.00  0.00     0.169 HD
BRANCH  25  28
HETATM   28  C   UNL     1     -45.048  57.556 -55.537  1.00  0.00     0.337 C 
BRANCH  28  29
HETATM   29  N   UNL     1     -44.693  57.838 -57.008  1.00  0.00    -0.062 N 
HETATM   30  C   UNL     1     -43.917  56.708 -57.648  1.00  0.00     0.239 C 
HETATM   31  C   UNL     1     -43.382  57.181 -59.002  1.00  0.00     0.007 C 
HETATM   32  C   UNL     1     -42.585  56.072 -59.686  1.00  0.00     0.011 C 
HETATM   33  C   UNL     1     -44.530  57.660 -59.899  1.00  0.00     0.007 C 
HETATM   34  C   UNL     1     -45.367  58.731 -59.204  1.00  0.00     0.028 C 
HETATM   35  C   UNL     1     -45.861  58.278 -57.835  1.00  0.00     0.235 C 
HETATM   36  H   UNL     1     -44.019  58.623 -56.934  1.00  0.00     0.280 HD
ENDBRANCH  28  29
ENDBRANCH  25  28
ENDBRANCH   1  24
BRANCH   7  37
HETATM   37  C   UNL     1     -39.941  50.285 -53.728  1.00  0.00    -0.047 C 
HETATM   38  C   UNL     1     -41.383  50.346 -54.261  1.00  0.00     0.015 C 
HETATM   39  C   UNL     1     -39.150  49.336 -54.660  1.00  0.00     0.015 C 
HETATM   40  C   UNL     1     -39.979  49.619 -52.333  1.00  0.00     0.015 C 
ENDBRANCH   7  37
TORSDOF 8
ENDMDL
MODEL 6
REMARK VINA RESULT:      -7.7      2.654      4.131
REMARK  8 active torsions:
REMARK  status: ('A' for Active; 'I' for Inactive)
REMARK    1  A    between atoms: N_4  and  C_6 
REMARK    2  A    between atoms: C_6  and  C_7 
REMARK       I    between atoms: C_7  and  N_8 
REMARK    3  A    between atoms: N_8  and  C_9 
REMARK    4  A    between atoms: C_15  and  C_16 
REMARK    5  A    between atoms: C_21  and  C_22 
REMARK       I    between atoms: C_22  and  N_23 
REMARK    6  A    between atoms: N_23  and  C_24 
REMARK    7  A    between atoms: C_25  and  O_26 
REMARK    8  A    between atoms: C_29  and  O_30 
ROOT
HETATM    1  C   UNL     1     -42.317  55.996 -54.148  1.00  0.00     0.093 C 
HETATM    2  S   UNL     1     -42.056  55.474 -55.740  1.00  0.00    -0.075 SA
HETATM    3  C   UNL     1     -43.208  56.550 -56.349  1.00  0.00    -0.008 C 
HETATM    4  C   UNL     1     -43.875  57.245 -55.356  1.00  0.00    -0.026 C 
HETATM    5  C   UNL     1     -45.010  58.158 -55.723  1.00  0.00     0.041 C 
HETATM    6  C   UNL     1     -45.423  58.065 -57.196  1.00  0.00     0.010 C 
HETATM    7  C   UNL     1     -44.254  57.924 -58.198  1.00  0.00    -0.002 C 
HETATM    8  C   UNL     1     -43.443  56.657 -57.826  1.00  0.00     0.052 C 
HETATM    9  C   UNL     1     -43.279  57.003 -54.045  1.00  0.00     0.073 C 
ENDROOT
BRANCH   9  10
HETATM   10  C   UNL     1     -43.479  57.684 -52.743  1.00  0.00     0.259 C 
HETATM   11  N   UNL     1     -42.746  58.814 -52.507  1.00  0.00    -0.320 N 
HETATM   12  H   UNL     1     -42.217  58.792 -51.640  1.00  0.00     0.169 HD
HETATM   13  O   UNL     1     -44.029  57.097 -51.806  1.00  0.00    -0.267 OA
BRANCH  11  14
HETATM   14  C   UNL     1     -43.092  60.146 -52.831  1.00  0.00     0.068 A 
HETATM   15  C   UNL     1     -43.625  60.926 -51.784  1.00  0.00     0.097 A 
HETATM   16  C   UNL     1     -43.886  62.285 -51.982  1.00  0.00     0.075 A 
HETATM   17  C   UNL     1     -43.619  62.869 -53.221  1.00  0.00     0.070 A 
HETATM   18  C   UNL     1     -43.141  62.077 -54.270  1.00  0.00     0.039 A 
HETATM   19  C   UNL     1     -42.887  60.714 -54.086  1.00  0.00     0.035 A 
BRANCH  15  20
HETATM   20  O   UNL     1     -43.848  60.251 -50.604  1.00  0.00    -0.354 OA
HETATM   21  C   UNL     1     -45.202  60.139 -50.184  1.00  0.00     0.210 C 
ENDBRANCH  15  20
BRANCH  17  22
HETATM   22  O   UNL     1     -43.783  64.191 -53.535  1.00  0.00    -0.356 OA
HETATM   23  C   UNL     1     -42.828  64.775 -54.415  1.00  0.00     0.210 C 
ENDBRANCH  17  22
ENDBRANCH  11  14
ENDBRANCH   9  10
BRANCH   1  24
HETATM   24  N   UNL     1     -41.490  55.521 -53.134  1.00  0.00    -0.319 N 
HETATM   25  C   UNL     1     -41.706  54.375 -52.403  1.00  0.00     0.248 C 
HETATM   26  O   UNL     1     -42.763  53.757 -52.262  1.00  0.00    -0.271 OA
HETATM   27  H   UNL     1     -40.761  56.180 -52.850  1.00  0.00     0.169 HD
BRANCH  25  28
HETATM   28  C   UNL     1     -40.453  53.806 -51.730  1.00  0.00     0.337 C 
BRANCH  28  29
HETATM   29  N   UNL     1     -40.431  52.276 -51.891  1.00  0.00    -0.062 N 
HETATM   30  C   UNL     1     -39.832  51.836 -53.210  1.00  0.00     0.239 C 
HETATM   31  C   UNL     1     -40.094  50.340 -53.396  1.00  0.00     0.007 C 
HETATM   32  C   UNL     1     -39.509  49.851 -54.720  1.00  0.00     0.011 C 
HETATM   33  C   UNL     1     -39.523  49.540 -52.219  1.00  0.00     0.007 C 
HETATM   34  C   UNL     1     -40.059  50.057 -50.886  1.00  0.00     0.028 C 
HETATM   35  C   UNL     1     -39.841  51.555 -50.719  1.00  0.00     0.235 C 
HETATM   36  H   UNL     1     -41.438  52.039 -51.959  1.00  0.00     0.280 HD
ENDBRANCH  28  29
ENDBRANCH  25  28
ENDBRANCH   1  24
BRANCH   7  37
HETATM   37  C   UNL     1     -43.413  59.231 -58.480  1.00  0.00    -0.047 C 
HETATM   38  C   UNL     1     -44.048  60.540 -57.981  1.00  0.00     0.015 C 
HETATM   39  C   UNL     1     -42.027  59.109 -57.802  1.00  0.00     0.015 C 
HETATM   40  C   UNL     1     -43.161  59.374 -59.999  1.00  0.00     0.015 C 
ENDBRANCH   7  37
TORSDOF 8
ENDMDL
MODEL 7
REMARK VINA RESULT:      -7.5      3.050      6.849
REMARK  8 active torsions:
REMARK  status: ('A' for Active; 'I' for Inactive)
REMARK    1  A    between atoms: N_4  and  C_6 
REMARK    2  A    between atoms: C_6  and  C_7 
REMARK       I    between atoms: C_7  and  N_8 
REMARK    3  A    between atoms: N_8  and  C_9 
REMARK    4  A    between atoms: C_15  and  C_16 
REMARK    5  A    between atoms: C_21  and  C_22 
REMARK       I    between atoms: C_22  and  N_23 
REMARK    6  A    between atoms: N_23  and  C_24 
REMARK    7  A    between atoms: C_25  and  O_26 
REMARK    8  A    between atoms: C_29  and  O_30 
ROOT
HETATM    1  C   UNL     1     -42.502  58.110 -56.329  1.00  0.00     0.093 C 
HETATM    2  S   UNL     1     -41.922  59.618 -55.817  1.00  0.00    -0.075 SA
HETATM    3  C   UNL     1     -42.084  60.276 -57.364  1.00  0.00    -0.008 C 
HETATM    4  C   UNL     1     -42.481  59.345 -58.309  1.00  0.00    -0.026 C 
HETATM    5  C   UNL     1     -42.561  59.743 -59.755  1.00  0.00     0.041 C 
HETATM    6  C   UNL     1     -41.997  61.139 -60.043  1.00  0.00     0.010 C 
HETATM    7  C   UNL     1     -42.324  62.211 -58.978  1.00  0.00    -0.002 C 
HETATM    8  C   UNL     1     -41.779  61.723 -57.611  1.00  0.00     0.052 C 
HETATM    9  C   UNL     1     -42.838  58.075 -57.684  1.00  0.00     0.073 C 
ENDROOT
BRANCH   9  10
HETATM   10  C   UNL     1     -43.530  56.882 -58.230  1.00  0.00     0.259 C 
HETATM   11  N   UNL     1     -44.897  56.888 -58.215  1.00  0.00    -0.320 N 
HETATM   12  H   UNL     1     -45.311  56.077 -57.765  1.00  0.00     0.169 HD
HETATM   13  O   UNL     1     -42.918  55.821 -58.391  1.00  0.00    -0.267 OA
BRANCH  11  14
HETATM   14  C   UNL     1     -45.765  57.384 -59.216  1.00  0.00     0.068 A 
HETATM   15  C   UNL     1     -46.276  56.435 -60.126  1.00  0.00     0.097 A 
HETATM   16  C   UNL     1     -47.230  56.815 -61.074  1.00  0.00     0.075 A 
HETATM   17  C   UNL     1     -47.676  58.136 -61.119  1.00  0.00     0.070 A 
HETATM   18  C   UNL     1     -47.125  59.081 -60.248  1.00  0.00     0.039 A 
HETATM   19  C   UNL     1     -46.162  58.715 -59.303  1.00  0.00     0.035 A 
BRANCH  15  20
HETATM   20  O   UNL     1     -45.770  55.161 -59.992  1.00  0.00    -0.354 OA
HETATM   21  C   UNL     1     -44.930  54.699 -61.044  1.00  0.00     0.210 C 
ENDBRANCH  15  20
BRANCH  17  22
HETATM   22  O   UNL     1     -48.636  58.629 -61.961  1.00  0.00    -0.356 OA
HETATM   23  C   UNL     1     -49.347  59.785 -61.532  1.00  0.00     0.210 C 
ENDBRANCH  17  22
ENDBRANCH  11  14
ENDBRANCH   9  10
BRANCH   1  24
HETATM   24  N   UNL     1     -42.736  57.116 -55.383  1.00  0.00    -0.319 N 
HETATM   25  C   UNL     1     -43.970  56.774 -54.877  1.00  0.00     0.248 C 
HETATM   26  O   UNL     1     -45.004  57.443 -54.891  1.00  0.00    -0.271 OA
HETATM   27  H   UNL     1     -41.886  56.740 -54.957  1.00  0.00     0.169 HD
BRANCH  25  28
HETATM   28  C   UNL     1     -44.038  55.371 -54.266  1.00  0.00     0.337 C 
BRANCH  28  29
HETATM   29  N   UNL     1     -42.613  54.849 -54.015  1.00  0.00    -0.062 N 
HETATM   30  C   UNL     1     -42.433  54.289 -52.620  1.00  0.00     0.239 C 
HETATM   31  C   UNL     1     -40.943  54.046 -52.374  1.00  0.00     0.007 C 
HETATM   32  C   UNL     1     -40.711  53.485 -50.973  1.00  0.00     0.011 C 
HETATM   33  C   UNL     1     -40.364  53.107 -53.440  1.00  0.00     0.007 C 
HETATM   34  C   UNL     1     -40.638  53.631 -54.848  1.00  0.00     0.028 C 
HETATM   35  C   UNL     1     -42.117  53.918 -55.078  1.00  0.00     0.235 C 
HETATM   36  H   UNL     1     -42.045  55.715 -54.035  1.00  0.00     0.280 HD
ENDBRANCH  28  29
ENDBRANCH  25  28
ENDBRANCH   1  24
BRANCH   7  37
HETATM   37  C   UNL     1     -43.800  62.770 -58.979  1.00  0.00    -0.047 C 
HETATM   38  C   UNL     1     -44.757  62.099 -57.979  1.00  0.00     0.015 C 
HETATM   39  C   UNL     1     -43.779  64.282 -58.645  1.00  0.00     0.015 C 
HETATM   40  C   UNL     1     -44.413  62.630 -60.391  1.00  0.00     0.015 C 
ENDBRANCH   7  37
TORSDOF 8
ENDMDL
MODEL 8
REMARK VINA RESULT:      -7.5      3.165      6.435
REMARK  8 active torsions:
REMARK  status: ('A' for Active; 'I' for Inactive)
REMARK    1  A    between atoms: N_4  and  C_6 
REMARK    2  A    between atoms: C_6  and  C_7 
REMARK       I    between atoms: C_7  and  N_8 
REMARK    3  A    between atoms: N_8  and  C_9 
REMARK    4  A    between atoms: C_15  and  C_16 
REMARK    5  A    between atoms: C_21  and  C_22 
REMARK       I    between atoms: C_22  and  N_23 
REMARK    6  A    between atoms: N_23  and  C_24 
REMARK    7  A    between atoms: C_25  and  O_26 
REMARK    8  A    between atoms: C_29  and  O_30 
ROOT
HETATM    1  C   UNL     1     -43.047  59.308 -54.302  1.00  0.00     0.093 C 
HETATM    2  S   UNL     1     -42.346  59.970 -55.697  1.00  0.00    -0.075 SA
HETATM    3  C   UNL     1     -42.534  58.526 -56.553  1.00  0.00    -0.008 C 
HETATM    4  C   UNL     1     -43.034  57.497 -55.774  1.00  0.00    -0.026 C 
HETATM    5  C   UNL     1     -43.153  56.117 -56.355  1.00  0.00     0.041 C 
HETATM    6  C   UNL     1     -42.511  55.973 -57.739  1.00  0.00     0.010 C 
HETATM    7  C   UNL     1     -42.717  57.177 -58.687  1.00  0.00    -0.002 C 
HETATM    8  C   UNL     1     -42.145  58.443 -57.999  1.00  0.00     0.052 C 
HETATM    9  C   UNL     1     -43.447  57.978 -54.459  1.00  0.00     0.073 C 
ENDROOT
BRANCH   9  10
HETATM   10  C   UNL     1     -44.239  57.328 -53.388  1.00  0.00     0.259 C 
HETATM   11  N   UNL     1     -43.908  56.045 -53.054  1.00  0.00    -0.320 N 
HETATM   12  H   UNL     1     -44.687  55.393 -53.085  1.00  0.00     0.169 HD
HETATM   13  O   UNL     1     -45.329  57.795 -53.042  1.00  0.00    -0.267 OA
BRANCH  11  14
HETATM   14  C   UNL     1     -42.961  55.623 -52.092  1.00  0.00     0.068 A 
HETATM   15  C   UNL     1     -42.190  54.490 -52.427  1.00  0.00     0.097 A 
HETATM   16  C   UNL     1     -41.153  54.073 -51.588  1.00  0.00     0.075 A 
HETATM   17  C   UNL     1     -40.881  54.780 -50.416  1.00  0.00     0.070 A 
HETATM   18  C   UNL     1     -41.685  55.870 -50.065  1.00  0.00     0.039 A 
HETATM   19  C   UNL     1     -42.732  56.289 -50.891  1.00  0.00     0.035 A 
BRANCH  15  20
HETATM   20  O   UNL     1     -42.541  53.870 -53.606  1.00  0.00    -0.354 OA
HETATM   21  C   UNL     1     -41.548  53.047 -54.208  1.00  0.00     0.210 C 
ENDBRANCH  15  20
BRANCH  17  22
HETATM   22  O   UNL     1     -39.871  54.509 -49.533  1.00  0.00    -0.356 OA
HETATM   23  C   UNL     1     -40.243  54.044 -48.241  1.00  0.00     0.210 C 
ENDBRANCH  17  22
ENDBRANCH  11  14
ENDBRANCH   9  10
BRANCH   1  24
HETATM   24  N   UNL     1     -43.304  60.136 -53.213  1.00  0.00    -0.319 N 
HETATM   25  C   UNL     1     -42.486  60.282 -52.115  1.00  0.00     0.248 C 
HETATM   26  O   UNL     1     -41.597  59.522 -51.729  1.00  0.00    -0.271 OA
HETATM   27  H   UNL     1     -44.247  60.532 -53.206  1.00  0.00     0.169 HD
BRANCH  25  28
HETATM   28  C   UNL     1     -42.710  61.575 -51.325  1.00  0.00     0.337 C 
BRANCH  28  29
HETATM   29  N   UNL     1     -44.094  61.535 -50.654  1.00  0.00    -0.062 N 
HETATM   30  C   UNL     1     -44.008  61.410 -49.147  1.00  0.00     0.239 C 
HETATM   31  C   UNL     1     -45.404  61.110 -48.597  1.00  0.00     0.007 C 
HETATM   32  C   UNL     1     -45.366  60.970 -47.076  1.00  0.00     0.011 C 
HETATM   33  C   UNL     1     -46.398  62.199 -49.020  1.00  0.00     0.007 C 
HETATM   34  C   UNL     1     -46.404  62.386 -50.535  1.00  0.00     0.028 C 
HETATM   35  C   UNL     1     -45.008  62.638 -51.091  1.00  0.00     0.235 C 
HETATM   36  H   UNL     1     -44.480  60.629 -50.979  1.00  0.00     0.280 HD
ENDBRANCH  28  29
ENDBRANCH  25  28
ENDBRANCH   1  24
BRANCH   7  37
HETATM   37  C   UNL     1     -44.152  57.324 -59.330  1.00  0.00    -0.047 C 
HETATM   38  C   UNL     1     -45.269  57.732 -58.355  1.00  0.00     0.015 C 
HETATM   39  C   UNL     1     -44.109  58.394 -60.447  1.00  0.00     0.015 C 
HETATM   40  C   UNL     1     -44.566  55.992 -59.997  1.00  0.00     0.015 C 
ENDBRANCH   7  37
TORSDOF 8
ENDMDL
MODEL 9
REMARK VINA RESULT:      -7.4     16.298     18.589
REMARK  8 active torsions:
REMARK  status: ('A' for Active; 'I' for Inactive)
REMARK    1  A    between atoms: N_4  and  C_6 
REMARK    2  A    between atoms: C_6  and  C_7 
REMARK       I    between atoms: C_7  and  N_8 
REMARK    3  A    between atoms: N_8  and  C_9 
REMARK    4  A    between atoms: C_15  and  C_16 
REMARK    5  A    between atoms: C_21  and  C_22 
REMARK       I    between atoms: C_22  and  N_23 
REMARK    6  A    between atoms: N_23  and  C_24 
REMARK    7  A    between atoms: C_25  and  O_26 
REMARK    8  A    between atoms: C_29  and  O_30 
ROOT
HETATM    1  C   UNL     1     -36.418  39.590 -52.968  1.00  0.00     0.093 C 
HETATM    2  S   UNL     1     -37.609  40.707 -53.425  1.00  0.00    -0.075 SA
HETATM    3  C   UNL     1     -36.727  41.188 -54.783  1.00  0.00    -0.008 C 
HETATM    4  C   UNL     1     -35.482  40.589 -54.858  1.00  0.00    -0.026 C 
HETATM    5  C   UNL     1     -34.527  40.995 -55.944  1.00  0.00     0.041 C 
HETATM    6  C   UNL     1     -35.001  42.203 -56.761  1.00  0.00     0.010 C 
HETATM    7  C   UNL     1     -36.513  42.225 -57.081  1.00  0.00    -0.002 C 
HETATM    8  C   UNL     1     -37.295  42.189 -55.743  1.00  0.00     0.052 C 
HETATM    9  C   UNL     1     -35.328  39.553 -53.841  1.00  0.00     0.073 C 
ENDROOT
BRANCH   9  10
HETATM   10  C   UNL     1     -34.299  38.498 -53.671  1.00  0.00     0.259 C 
HETATM   11  N   UNL     1     -33.152  38.842 -53.012  1.00  0.00    -0.320 N 
HETATM   12  H   UNL     1     -32.300  38.635 -53.526  1.00  0.00     0.169 HD
HETATM   13  O   UNL     1     -34.335  37.471 -54.355  1.00  0.00    -0.267 OA
BRANCH  11  14
HETATM   14  C   UNL     1     -32.907  38.779 -51.621  1.00  0.00     0.068 A 
HETATM   15  C   UNL     1     -32.991  39.998 -50.915  1.00  0.00     0.097 A 
HETATM   16  C   UNL     1     -32.878  40.011 -49.523  1.00  0.00     0.075 A 
HETATM   17  C   UNL     1     -32.681  38.816 -48.830  1.00  0.00     0.070 A 
HETATM   18  C   UNL     1     -32.546  37.620 -49.542  1.00  0.00     0.039 A 
HETATM   19  C   UNL     1     -32.646  37.596 -50.936  1.00  0.00     0.035 A 
BRANCH  15  20
HETATM   20  O   UNL     1     -33.189  41.115 -51.695  1.00  0.00    -0.354 OA
HETATM   21  C   UNL     1     -34.243  41.985 -51.300  1.00  0.00     0.210 C 
ENDBRANCH  15  20
BRANCH  17  22
HETATM   22  O   UNL     1     -32.601  38.682 -47.470  1.00  0.00    -0.356 OA
HETATM   23  C   UNL     1     -31.320  38.852 -46.873  1.00  0.00     0.210 C 
ENDBRANCH  17  22
ENDBRANCH  11  14
ENDBRANCH   9  10
BRANCH   1  24
HETATM   24  N   UNL     1     -36.668  38.728 -51.904  1.00  0.00    -0.319 N 
HETATM   25  C   UNL     1     -36.961  39.118 -50.617  1.00  0.00     0.248 C 
HETATM   26  O   UNL     1     -36.747  40.212 -50.091  1.00  0.00    -0.271 OA
HETATM   27  H   UNL     1     -36.466  37.747 -52.108  1.00  0.00     0.169 HD
BRANCH  25  28
HETATM   28  C   UNL     1     -37.674  38.053 -49.778  1.00  0.00     0.337 C 
BRANCH  28  29
HETATM   29  N   UNL     1     -39.130  38.484 -49.528  1.00  0.00    -0.062 N 
HETATM   30  C   UNL     1     -40.059  38.084 -50.654  1.00  0.00     0.239 C 
HETATM   31  C   UNL     1     -41.408  38.778 -50.450  1.00  0.00     0.007 C 
HETATM   32  C   UNL     1     -42.380  38.408 -51.569  1.00  0.00     0.011 C 
HETATM   33  C   UNL     1     -41.996  38.424 -49.078  1.00  0.00     0.007 C 
HETATM   34  C   UNL     1     -41.010  38.739 -47.955  1.00  0.00     0.028 C 
HETATM   35  C   UNL     1     -39.652  38.088 -48.181  1.00  0.00     0.235 C 
HETATM   36  H   UNL     1     -39.074  39.518 -49.576  1.00  0.00     0.280 HD
ENDBRANCH  28  29
ENDBRANCH  25  28
ENDBRANCH   1  24
BRANCH   7  37
HETATM   37  C   UNL     1     -37.006  41.229 -58.202  1.00  0.00    -0.047 C 
HETATM   38  C   UNL     1     -36.048  40.067 -58.515  1.00  0.00     0.015 C 
HETATM   39  C   UNL     1     -38.358  40.604 -57.779  1.00  0.00     0.015 C 
HETATM   40  C   UNL     1     -37.259  42.003 -59.517  1.00  0.00     0.015 C 
ENDBRANCH   7  37
TORSDOF 8
ENDMDL
MODEL 10
REMARK VINA RESULT:      -7.4      2.734      6.109
REMARK  8 active torsions:
REMARK  status: ('A' for Active; 'I' for Inactive)
REMARK    1  A    between atoms: N_4  and  C_6 
REMARK    2  A    between atoms: C_6  and  C_7 
REMARK       I    between atoms: C_7  and  N_8 
REMARK    3  A    between atoms: N_8  and  C_9 
REMARK    4  A    between atoms: C_15  and  C_16 
REMARK    5  A    between atoms: C_21  and  C_22 
REMARK       I    between atoms: C_22  and  N_23 
REMARK    6  A    between atoms: N_23  and  C_24 
REMARK    7  A    between atoms: C_25  and  O_26 
REMARK    8  A    between atoms: C_29  and  O_30 
ROOT
HETATM    1  C   UNL     1     -43.834  60.547 -57.090  1.00  0.00     0.093 C 
HETATM    2  S   UNL     1     -44.627  60.570 -58.588  1.00  0.00    -0.075 SA
HETATM    3  C   UNL     1     -43.833  59.170 -59.100  1.00  0.00    -0.008 C 
HETATM    4  C   UNL     1     -42.887  58.722 -58.194  1.00  0.00    -0.026 C 
HETATM    5  C   UNL     1     -42.012  57.555 -58.550  1.00  0.00     0.041 C 
HETATM    6  C   UNL     1     -42.158  57.096 -60.005  1.00  0.00     0.010 C 
HETATM    7  C   UNL     1     -43.602  57.114 -60.557  1.00  0.00    -0.002 C 
HETATM    8  C   UNL     1     -44.156  58.555 -60.430  1.00  0.00     0.052 C 
HETATM    9  C   UNL     1     -42.954  59.473 -56.943  1.00  0.00     0.073 C 
ENDROOT
BRANCH   9  10
HETATM   10  C   UNL     1     -42.330  59.221 -55.622  1.00  0.00     0.259 C 
HETATM   11  N   UNL     1     -42.872  58.228 -54.853  1.00  0.00    -0.320 N 
HETATM   12  H   UNL     1     -43.125  58.523 -53.914  1.00  0.00     0.169 HD
HETATM   13  O   UNL     1     -41.579  60.057 -55.112  1.00  0.00    -0.267 OA
BRANCH  11  14
HETATM   14  C   UNL     1     -42.532  56.856 -54.855  1.00  0.00     0.068 A 
HETATM   15  C   UNL     1     -41.588  56.443 -53.892  1.00  0.00     0.097 A 
HETATM   16  C   UNL     1     -41.280  55.088 -53.745  1.00  0.00     0.075 A 
HETATM   17  C   UNL     1     -41.909  54.142 -54.555  1.00  0.00     0.070 A 
HETATM   18  C   UNL     1     -42.804  54.564 -55.544  1.00  0.00     0.039 A 
HETATM   19  C   UNL     1     -43.111  55.919 -55.707  1.00  0.00     0.035 A 
BRANCH  15  20
HETATM   20  O   UNL     1     -41.031  57.457 -53.144  1.00  0.00    -0.354 OA
HETATM   21  C   UNL     1     -41.135  57.333 -51.731  1.00  0.00     0.210 C 
ENDBRANCH  15  20
BRANCH  17  22
HETATM   22  O   UNL     1     -41.736  52.786 -54.486  1.00  0.00    -0.356 OA
HETATM   23  C   UNL     1     -40.403  52.305 -54.356  1.00  0.00     0.210 C 
ENDBRANCH  17  22
ENDBRANCH  11  14
ENDBRANCH   9  10
BRANCH   1  24
HETATM   24  N   UNL     1     -44.210  61.460 -56.109  1.00  0.00    -0.319 N 
HETATM   25  C   UNL     1     -44.871  61.147 -54.943  1.00  0.00     0.248 C 
HETATM   26  O   UNL     1     -45.523  60.132 -54.692  1.00  0.00    -0.271 OA
HETATM   27  H   UNL     1     -44.095  62.438 -56.386  1.00  0.00     0.169 HD
BRANCH  25  28
HETATM   28  C   UNL     1     -44.725  62.191 -53.831  1.00  0.00     0.337 C 
BRANCH  28  29
HETATM   29  N   UNL     1     -44.597  61.482 -52.472  1.00  0.00    -0.062 N 
HETATM   30  C   UNL     1     -43.170  61.432 -51.971  1.00  0.00     0.239 C 
HETATM   31  C   UNL     1     -43.101  60.490 -50.768  1.00  0.00     0.007 C 
HETATM   32  C   UNL     1     -41.675  60.403 -50.230  1.00  0.00     0.011 C 
HETATM   33  C   UNL     1     -44.072  60.943 -49.670  1.00  0.00     0.007 C 
HETATM   34  C   UNL     1     -45.493  61.086 -50.210  1.00  0.00     0.028 C 
HETATM   35  C   UNL     1     -45.555  61.987 -51.437  1.00  0.00     0.235 C 
HETATM   36  H   UNL     1     -44.838  60.501 -52.702  1.00  0.00     0.280 HD
ENDBRANCH  28  29
ENDBRANCH  25  28
ENDBRANCH   1  24
BRANCH   7  37
HETATM   37  C   UNL     1     -44.555  55.956 -60.061  1.00  0.00    -0.047 C 
HETATM   38  C   UNL     1     -43.929  54.979 -59.052  1.00  0.00     0.015 C 
HETATM   39  C   UNL     1     -45.805  56.570 -59.386  1.00  0.00     0.015 C 
HETATM   40  C   UNL     1     -45.054  55.133 -61.271  1.00  0.00     0.015 C 
ENDBRANCH   7  37
TORSDOF 8
ENDMDL
