MODEL 1
REMARK VINA RESULT:      -7.6      0.000      0.000
REMARK  5 active torsions:
REMARK  status: ('A' for Active; 'I' for Inactive)
REMARK    1  A    between atoms: C_2  and  C_3 
REMARK    2  A    between atoms: C_2  and  C_20 
REMARK       I    between atoms: C_3  and  N_4 
REMARK    3  A    between atoms: N_4  and  C_5 
REMARK    4  A    between atoms: C_8  and  O_9 
REMARK    5  A    between atoms: O_9  and  C_10 
ROOT
HETATM    1  C   UNL     1     -42.435  54.828 -55.764  1.00  0.00     0.052 A 
HETATM    2  C   UNL     1     -43.069  54.489 -54.571  1.00  0.00     0.149 A 
HETATM    3  N   UNL     1     -42.422  54.052 -53.459  1.00  0.00    -0.235 NA
HETATM    4  C   UNL     1     -41.078  53.952 -53.534  1.00  0.00     0.169 A 
HETATM    5  C   UNL     1     -40.352  54.272 -54.669  1.00  0.00     0.060 A 
HETATM    6  C   UNL     1     -41.044  54.705 -55.800  1.00  0.00     0.035 A 
ENDROOT
BRANCH   1   7
HETATM    7  N   UNL     1     -43.081  55.276 -56.936  1.00  0.00    -0.325 N 
HETATM    8  C   UNL     1     -43.111  56.575 -57.421  1.00  0.00     0.231 C 
HETATM    9  O   UNL     1     -42.510  57.514 -56.910  1.00  0.00    -0.272 OA
HETATM   10  H   UNL     1     -43.522  54.557 -57.494  1.00  0.00     0.169 HD
BRANCH   8  11
HETATM   11  C   UNL     1     -43.907  56.743 -58.734  1.00  0.00     0.046 C 
HETATM   12  C   UNL     1     -43.079  57.628 -59.688  1.00  0.00     0.026 C 
HETATM   13  C   UNL     1     -44.167  55.384 -59.408  1.00  0.00     0.026 C 
BRANCH  11  14
HETATM   14  C   UNL     1     -45.236  57.483 -58.449  1.00  0.00     0.133 C 
HETATM   15 CL   UNL     1     -46.626  56.885 -59.399  1.00  0.00    -0.129 Cl
ENDBRANCH  11  14
ENDBRANCH   8  11
ENDBRANCH   1   7
BRANCH   4  16
HETATM   16  O   UNL     1     -40.337  53.531 -52.434  1.00  0.00    -0.289 OA
BRANCH  16  17
HETATM   17  C   UNL     1     -40.127  52.181 -52.316  1.00  0.00     0.116 A 
HETATM   18  C   UNL     1     -40.014  51.624 -51.045  1.00  0.00     0.150 A 
HETATM   19  F   UNL     1     -40.160  52.391 -49.953  1.00  0.00    -0.203 F 
HETATM   20  C   UNL     1     -39.739  50.269 -50.887  1.00  0.00     0.045 A 
HETATM   21  C   UNL     1     -39.559  49.465 -52.015  1.00  0.00     0.003 A 
HETATM   22  C   UNL     1     -39.651  50.022 -53.292  1.00  0.00     0.003 A 
HETATM   23  C   UNL     1     -39.927  51.383 -53.446  1.00  0.00     0.040 A 
ENDBRANCH  16  17
ENDBRANCH   4  16
TORSDOF 5
ENDMDL
MODEL 2
REMARK VINA RESULT:      -7.6      1.084      1.411
REMARK  5 active torsions:
REMARK  status: ('A' for Active; 'I' for Inactive)
REMARK    1  A    between atoms: C_2  and  C_3 
REMARK    2  A    between atoms: C_2  and  C_20 
REMARK       I    between atoms: C_3  and  N_4 
REMARK    3  A    between atoms: N_4  and  C_5 
REMARK    4  A    between atoms: C_8  and  O_9 
REMARK    5  A    between atoms: O_9  and  C_10 
ROOT
HETATM    1  C   UNL     1     -42.473  54.969 -55.774  1.00  0.00     0.052 A 
HETATM    2  C   UNL     1     -43.070  54.496 -54.608  1.00  0.00     0.149 A 
HETATM    3  N   UNL     1     -42.384  53.997 -53.546  1.00  0.00    -0.235 NA
HETATM    4  C   UNL     1     -41.038  53.973 -53.646  1.00  0.00     0.169 A 
HETATM    5  C   UNL     1     -40.348  54.427 -54.757  1.00  0.00     0.060 A 
HETATM    6  C   UNL     1     -41.078  54.921 -55.838  1.00  0.00     0.035 A 
ENDROOT
BRANCH   1   7
HETATM    7  N   UNL     1     -43.160  55.484 -56.895  1.00  0.00    -0.325 N 
HETATM    8  C   UNL     1     -43.229  56.812 -57.286  1.00  0.00     0.231 C 
HETATM    9  O   UNL     1     -42.634  57.726 -56.726  1.00  0.00    -0.272 OA
HETATM   10  H   UNL     1     -43.601  54.796 -57.491  1.00  0.00     0.169 HD
BRANCH   8  11
HETATM   11  C   UNL     1     -44.065  57.054 -58.563  1.00  0.00     0.046 C 
HETATM   12  C   UNL     1     -44.231  55.704 -59.291  1.00  0.00     0.026 C 
HETATM   13  C   UNL     1     -45.456  57.616 -58.222  1.00  0.00     0.026 C 
BRANCH  11  14
HETATM   14  C   UNL     1     -43.301  58.005 -59.515  1.00  0.00     0.133 C 
HETATM   15 CL   UNL     1     -41.802  57.310 -60.197  1.00  0.00    -0.129 Cl
ENDBRANCH  11  14
ENDBRANCH   8  11
ENDBRANCH   1   7
BRANCH   4  16
HETATM   16  O   UNL     1     -40.259  53.497 -52.596  1.00  0.00    -0.289 OA
BRANCH  16  17
HETATM   17  C   UNL     1     -40.053  52.142 -52.551  1.00  0.00     0.116 A 
HETATM   18  C   UNL     1     -39.889  51.525 -51.314  1.00  0.00     0.150 A 
HETATM   19  F   UNL     1     -39.984  52.239 -50.182  1.00  0.00    -0.203 F 
HETATM   20  C   UNL     1     -39.615  50.162 -51.232  1.00  0.00     0.045 A 
HETATM   21  C   UNL     1     -39.489  49.412 -52.403  1.00  0.00     0.003 A 
HETATM   22  C   UNL     1     -39.631  50.030 -53.648  1.00  0.00     0.003 A 
HETATM   23  C   UNL     1     -39.905  51.398 -53.725  1.00  0.00     0.040 A 
ENDBRANCH  16  17
ENDBRANCH   4  16
TORSDOF 5
ENDMDL
MODEL 3
REMARK VINA RESULT:      -7.3      4.740      5.341
REMARK  5 active torsions:
REMARK  status: ('A' for Active; 'I' for Inactive)
REMARK    1  A    between atoms: C_2  and  C_3 
REMARK    2  A    between atoms: C_2  and  C_20 
REMARK       I    between atoms: C_3  and  N_4 
REMARK    3  A    between atoms: N_4  and  C_5 
REMARK    4  A    between atoms: C_8  and  O_9 
REMARK    5  A    between atoms: O_9  and  C_10 
ROOT
HETATM    1  C   UNL     1     -42.341  55.930 -50.625  1.00  0.00     0.052 A 
HETATM    2  C   UNL     1     -42.836  54.674 -50.967  1.00  0.00     0.149 A 
HETATM    3  N   UNL     1     -42.098  53.532 -50.951  1.00  0.00    -0.235 NA
HETATM    4  C   UNL     1     -40.808  53.644 -50.569  1.00  0.00     0.169 A 
HETATM    5  C   UNL     1     -40.223  54.844 -50.202  1.00  0.00     0.060 A 
HETATM    6  C   UNL     1     -41.000  56.002 -50.241  1.00  0.00     0.035 A 
ENDROOT
BRANCH   1   7
HETATM    7  N   UNL     1     -43.081  57.133 -50.641  1.00  0.00    -0.325 N 
HETATM    8  C   UNL     1     -43.308  57.950 -51.738  1.00  0.00     0.231 C 
HETATM    9  O   UNL     1     -42.936  57.691 -52.878  1.00  0.00    -0.272 OA
HETATM   10  H   UNL     1     -43.524  57.385 -49.768  1.00  0.00     0.169 HD
BRANCH   8  11
HETATM   11  C   UNL     1     -44.159  59.202 -51.430  1.00  0.00     0.046 C 
HETATM   12  C   UNL     1     -44.558  59.853 -52.770  1.00  0.00     0.026 C 
HETATM   13  C   UNL     1     -45.434  58.832 -50.651  1.00  0.00     0.026 C 
BRANCH  11  14
HETATM   14  C   UNL     1     -43.310  60.233 -50.648  1.00  0.00     0.133 C 
HETATM   15 CL   UNL     1     -44.255  61.267 -49.539  1.00  0.00    -0.129 Cl
ENDBRANCH  11  14
ENDBRANCH   8  11
ENDBRANCH   1   7
BRANCH   4  16
HETATM   16  O   UNL     1     -39.989  52.520 -50.505  1.00  0.00    -0.289 OA
BRANCH  16  17
HETATM   17  C   UNL     1     -39.937  51.735 -51.629  1.00  0.00     0.116 A 
HETATM   18  C   UNL     1     -39.693  50.372 -51.488  1.00  0.00     0.150 A 
HETATM   19  F   UNL     1     -39.563  49.829 -50.268  1.00  0.00    -0.203 F 
HETATM   20  C   UNL     1     -39.571  49.554 -52.608  1.00  0.00     0.045 A 
HETATM   21  C   UNL     1     -39.679  50.111 -53.884  1.00  0.00     0.003 A 
HETATM   22  C   UNL     1     -39.902  51.482 -54.032  1.00  0.00     0.003 A 
HETATM   23  C   UNL     1     -40.024  52.299 -52.905  1.00  0.00     0.040 A 
ENDBRANCH  16  17
ENDBRANCH   4  16
TORSDOF 5
ENDMDL
MODEL 4
REMARK VINA RESULT:      -7.3      3.796      4.585
REMARK  5 active torsions:
REMARK  status: ('A' for Active; 'I' for Inactive)
REMARK    1  A    between atoms: C_2  and  C_3 
REMARK    2  A    between atoms: C_2  and  C_20 
REMARK       I    between atoms: C_3  and  N_4 
REMARK    3  A    between atoms: N_4  and  C_5 
REMARK    4  A    between atoms: C_8  and  O_9 
REMARK    5  A    between atoms: O_9  and  C_10 
ROOT
HETATM    1  C   UNL     1     -42.354  55.895 -53.702  1.00  0.00     0.052 A 
HETATM    2  C   UNL     1     -41.015  55.962 -54.081  1.00  0.00     0.149 A 
HETATM    3  N   UNL     1     -40.243  54.877 -54.353  1.00  0.00    -0.235 NA
HETATM    4  C   UNL     1     -40.832  53.667 -54.250  1.00  0.00     0.169 A 
HETATM    5  C   UNL     1     -42.158  53.493 -53.890  1.00  0.00     0.060 A 
HETATM    6  C   UNL     1     -42.923  54.623 -53.603  1.00  0.00     0.035 A 
ENDROOT
BRANCH   1   7
HETATM    7  N   UNL     1     -43.177  57.003 -53.405  1.00  0.00    -0.325 N 
HETATM    8  C   UNL     1     -43.244  57.684 -52.199  1.00  0.00     0.231 C 
HETATM    9  O   UNL     1     -42.532  57.442 -51.231  1.00  0.00    -0.272 OA
HETATM   10  H   UNL     1     -43.732  57.354 -54.174  1.00  0.00     0.169 HD
BRANCH   8  11
HETATM   11  C   UNL     1     -44.249  58.858 -52.190  1.00  0.00     0.046 C 
HETATM   12  C   UNL     1     -44.944  58.906 -53.566  1.00  0.00     0.026 C 
HETATM   13  C   UNL     1     -45.314  58.673 -51.095  1.00  0.00     0.026 C 
BRANCH  11  14
HETATM   14  C   UNL     1     -43.490  60.194 -52.006  1.00  0.00     0.133 C 
HETATM   15 CL   UNL     1     -42.238  60.502 -53.243  1.00  0.00    -0.129 Cl
ENDBRANCH  11  14
ENDBRANCH   8  11
ENDBRANCH   1   7
BRANCH   4  16
HETATM   16  O   UNL     1     -40.118  52.506 -54.531  1.00  0.00    -0.289 OA
BRANCH  16  17
HETATM   17  C   UNL     1     -39.881  51.661 -53.476  1.00  0.00     0.116 A 
HETATM   18  C   UNL     1     -39.789  50.293 -53.715  1.00  0.00     0.150 A 
HETATM   19  F   UNL     1     -39.881  49.815 -54.966  1.00  0.00    -0.203 F 
HETATM   20  C   UNL     1     -39.612  49.400 -52.662  1.00  0.00     0.045 A 
HETATM   21  C   UNL     1     -39.542  49.882 -51.353  1.00  0.00     0.003 A 
HETATM   22  C   UNL     1     -39.654  51.252 -51.106  1.00  0.00     0.003 A 
HETATM   23  C   UNL     1     -39.832  52.144 -52.166  1.00  0.00     0.040 A 
ENDBRANCH  16  17
ENDBRANCH   4  16
TORSDOF 5
ENDMDL
MODEL 5
REMARK VINA RESULT:      -7.1      2.369      3.136
REMARK  5 active torsions:
REMARK  status: ('A' for Active; 'I' for Inactive)
REMARK    1  A    between atoms: C_2  and  C_3 
REMARK    2  A    between atoms: C_2  and  C_20 
REMARK       I    between atoms: C_3  and  N_4 
REMARK    3  A    between atoms: N_4  and  C_5 
REMARK    4  A    between atoms: C_8  and  O_9 
REMARK    5  A    between atoms: O_9  and  C_10 
ROOT
HETATM    1  C   UNL     1     -42.490  56.108 -55.740  1.00  0.00     0.052 A 
HETATM    2  C   UNL     1     -42.488  56.695 -54.476  1.00  0.00     0.149 A 
HETATM    3  N   UNL     1     -42.619  56.004 -53.313  1.00  0.00    -0.235 NA
HETATM    4  C   UNL     1     -42.752  54.665 -53.409  1.00  0.00     0.169 A 
HETATM    5  C   UNL     1     -42.758  53.984 -54.615  1.00  0.00     0.060 A 
HETATM    6  C   UNL     1     -42.636  54.719 -55.794  1.00  0.00     0.035 A 
ENDROOT
BRANCH   1   7
HETATM    7  N   UNL     1     -42.366  56.800 -56.964  1.00  0.00    -0.325 N 
HETATM    8  C   UNL     1     -43.373  57.468 -57.643  1.00  0.00     0.231 C 
HETATM    9  O   UNL     1     -44.518  57.598 -57.223  1.00  0.00    -0.272 OA
HETATM   10  H   UNL     1     -41.431  56.846 -57.347  1.00  0.00     0.169 HD
BRANCH   8  11
HETATM   11  C   UNL     1     -42.916  58.128 -58.963  1.00  0.00     0.046 C 
HETATM   12  C   UNL     1     -44.150  58.771 -59.630  1.00  0.00     0.026 C 
HETATM   13  C   UNL     1     -41.860  59.217 -58.706  1.00  0.00     0.026 C 
BRANCH  11  14
HETATM   14  C   UNL     1     -42.376  57.048 -59.930  1.00  0.00     0.133 C 
HETATM   15 CL   UNL     1     -43.357  55.555 -59.982  1.00  0.00    -0.129 Cl
ENDBRANCH  11  14
ENDBRANCH   8  11
ENDBRANCH   1   7
BRANCH   4  16
HETATM   16  O   UNL     1     -42.871  53.881 -52.265  1.00  0.00    -0.289 OA
BRANCH  16  17
HETATM   17  C   UNL     1     -41.906  54.049 -51.304  1.00  0.00     0.116 A 
HETATM   18  C   UNL     1     -40.659  53.460 -51.490  1.00  0.00     0.150 A 
HETATM   19  F   UNL     1     -40.390  52.782 -52.616  1.00  0.00    -0.203 F 
HETATM   20  C   UNL     1     -39.677  53.555 -50.508  1.00  0.00     0.045 A 
HETATM   21  C   UNL     1     -39.953  54.236 -49.320  1.00  0.00     0.003 A 
HETATM   22  C   UNL     1     -41.210  54.811 -49.119  1.00  0.00     0.003 A 
HETATM   23  C   UNL     1     -42.193  54.711 -50.107  1.00  0.00     0.040 A 
ENDBRANCH  16  17
ENDBRANCH   4  16
TORSDOF 5
ENDMDL
MODEL 6
REMARK VINA RESULT:      -7.0     14.455     16.894
REMARK  5 active torsions:
REMARK  status: ('A' for Active; 'I' for Inactive)
REMARK    1  A    between atoms: C_2  and  C_3 
REMARK    2  A    between atoms: C_2  and  C_20 
REMARK       I    between atoms: C_3  and  N_4 
REMARK    3  A    between atoms: N_4  and  C_5 
REMARK    4  A    between atoms: C_8  and  O_9 
REMARK    5  A    between atoms: O_9  and  C_10 
ROOT
HETATM    1  C   UNL     1     -34.978  41.350 -54.344  1.00  0.00     0.052 A 
HETATM    2  C   UNL     1     -36.356  41.433 -54.156  1.00  0.00     0.149 A 
HETATM    3  N   UNL     1     -37.248  41.691 -55.149  1.00  0.00    -0.235 NA
HETATM    4  C   UNL     1     -36.747  41.868 -56.389  1.00  0.00     0.169 A 
HETATM    5  C   UNL     1     -35.395  41.797 -56.683  1.00  0.00     0.060 A 
HETATM    6  C   UNL     1     -34.501  41.545 -55.642  1.00  0.00     0.035 A 
ENDROOT
BRANCH   1   7
HETATM    7  N   UNL     1     -34.028  41.093 -53.331  1.00  0.00    -0.325 N 
HETATM    8  C   UNL     1     -33.848  39.901 -52.648  1.00  0.00     0.231 C 
HETATM    9  O   UNL     1     -34.468  38.870 -52.888  1.00  0.00    -0.272 OA
HETATM   10  H   UNL     1     -33.390  41.851 -53.129  1.00  0.00     0.169 HD
BRANCH   8  11
HETATM   11  C   UNL     1     -32.721  39.939 -51.592  1.00  0.00     0.046 C 
HETATM   12  C   UNL     1     -32.115  38.524 -51.485  1.00  0.00     0.026 C 
HETATM   13  C   UNL     1     -31.614  40.931 -51.993  1.00  0.00     0.026 C 
BRANCH  11  14
HETATM   14  C   UNL     1     -33.312  40.298 -50.208  1.00  0.00     0.133 C 
HETATM   15 CL   UNL     1     -32.189  40.039 -48.843  1.00  0.00    -0.129 Cl
ENDBRANCH  11  14
ENDBRANCH   8  11
ENDBRANCH   1   7
BRANCH   4  16
HETATM   16  O   UNL     1     -37.593  42.115 -57.466  1.00  0.00    -0.289 OA
BRANCH  16  17
HETATM   17  C   UNL     1     -37.690  41.125 -58.410  1.00  0.00     0.116 A 
HETATM   18  C   UNL     1     -37.360  41.417 -59.731  1.00  0.00     0.150 A 
HETATM   19  F   UNL     1     -36.905  42.634 -60.063  1.00  0.00    -0.203 F 
HETATM   20  C   UNL     1     -37.507  40.455 -60.727  1.00  0.00     0.045 A 
HETATM   21  C   UNL     1     -38.004  39.192 -60.399  1.00  0.00     0.003 A 
HETATM   22  C   UNL     1     -38.356  38.900 -59.079  1.00  0.00     0.003 A 
HETATM   23  C   UNL     1     -38.208  39.869 -58.083  1.00  0.00     0.040 A 
ENDBRANCH  16  17
ENDBRANCH   4  16
TORSDOF 5
ENDMDL
MODEL 7
REMARK VINA RESULT:      -7.0      3.626      4.193
REMARK  5 active torsions:
REMARK  status: ('A' for Active; 'I' for Inactive)
REMARK    1  A    between atoms: C_2  and  C_3 
REMARK    2  A    between atoms: C_2  and  C_20 
REMARK       I    between atoms: C_3  and  N_4 
REMARK    3  A    between atoms: N_4  and  C_5 
REMARK    4  A    between atoms: C_8  and  O_9 
REMARK    5  A    between atoms: O_9  and  C_10 
ROOT
HETATM    1  C   UNL     1     -42.401  55.675 -54.056  1.00  0.00     0.052 A 
HETATM    2  C   UNL     1     -42.732  54.410 -53.578  1.00  0.00     0.149 A 
HETATM    3  N   UNL     1     -41.938  53.313 -53.704  1.00  0.00    -0.235 NA
HETATM    4  C   UNL     1     -40.755  53.485 -54.331  1.00  0.00     0.169 A 
HETATM    5  C   UNL     1     -40.329  54.702 -54.836  1.00  0.00     0.060 A 
HETATM    6  C   UNL     1     -41.170  55.807 -54.704  1.00  0.00     0.035 A 
ENDROOT
BRANCH   1   7
HETATM    7  N   UNL     1     -43.208  56.828 -53.948  1.00  0.00    -0.325 N 
HETATM    8  C   UNL     1     -43.142  57.795 -52.956  1.00  0.00     0.231 C 
HETATM    9  O   UNL     1     -42.308  57.802 -52.057  1.00  0.00    -0.272 OA
HETATM   10  H   UNL     1     -43.864  56.976 -54.704  1.00  0.00     0.169 HD
BRANCH   8  11
HETATM   11  C   UNL     1     -44.167  58.940 -53.118  1.00  0.00     0.046 C 
HETATM   12  C   UNL     1     -43.409  60.280 -53.022  1.00  0.00     0.026 C 
HETATM   13  C   UNL     1     -44.881  58.862 -54.479  1.00  0.00     0.026 C 
BRANCH  11  14
HETATM   14  C   UNL     1     -45.186  58.898 -51.954  1.00  0.00     0.133 C 
HETATM   15 CL   UNL     1     -44.713  59.871 -50.532  1.00  0.00    -0.129 Cl
ENDBRANCH  11  14
ENDBRANCH   8  11
ENDBRANCH   1   7
BRANCH   4  16
HETATM   16  O   UNL     1     -39.875  52.418 -54.485  1.00  0.00    -0.289 OA
BRANCH  16  17
HETATM   17  C   UNL     1     -39.739  51.575 -53.411  1.00  0.00     0.116 A 
HETATM   18  C   UNL     1     -39.730  50.201 -53.630  1.00  0.00     0.150 A 
HETATM   19  F   UNL     1     -39.801  49.712 -54.878  1.00  0.00    -0.203 F 
HETATM   20  C   UNL     1     -39.657  49.313 -52.560  1.00  0.00     0.045 A 
HETATM   21  C   UNL     1     -39.609  49.808 -51.255  1.00  0.00     0.003 A 
HETATM   22  C   UNL     1     -39.639  51.186 -51.028  1.00  0.00     0.003 A 
HETATM   23  C   UNL     1     -39.713  52.073 -52.105  1.00  0.00     0.040 A 
ENDBRANCH  16  17
ENDBRANCH   4  16
TORSDOF 5
ENDMDL
MODEL 8
REMARK VINA RESULT:      -6.9      2.501      3.027
REMARK  5 active torsions:
REMARK  status: ('A' for Active; 'I' for Inactive)
REMARK    1  A    between atoms: C_2  and  C_3 
REMARK    2  A    between atoms: C_2  and  C_20 
REMARK       I    between atoms: C_3  and  N_4 
REMARK    3  A    between atoms: N_4  and  C_5 
REMARK    4  A    between atoms: C_8  and  O_9 
REMARK    5  A    between atoms: O_9  and  C_10 
ROOT
HETATM    1  C   UNL     1     -42.440  56.243 -55.915  1.00  0.00     0.052 A 
HETATM    2  C   UNL     1     -42.547  56.796 -54.641  1.00  0.00     0.149 A 
HETATM    3  N   UNL     1     -42.736  56.071 -53.506  1.00  0.00    -0.235 NA
HETATM    4  C   UNL     1     -42.816  54.731 -53.644  1.00  0.00     0.169 A 
HETATM    5  C   UNL     1     -42.713  54.083 -54.864  1.00  0.00     0.060 A 
HETATM    6  C   UNL     1     -42.533  54.852 -56.013  1.00  0.00     0.035 A 
ENDROOT
BRANCH   1   7
HETATM    7  N   UNL     1     -42.253  56.971 -57.110  1.00  0.00    -0.325 N 
HETATM    8  C   UNL     1     -43.245  57.461 -57.945  1.00  0.00     0.231 C 
HETATM    9  O   UNL     1     -44.446  57.374 -57.711  1.00  0.00    -0.272 OA
HETATM   10  H   UNL     1     -41.294  57.192 -57.342  1.00  0.00     0.169 HD
BRANCH   8  11
HETATM   11  C   UNL     1     -42.715  58.219 -59.182  1.00  0.00     0.046 C 
HETATM   12  C   UNL     1     -41.859  59.403 -58.689  1.00  0.00     0.026 C 
HETATM   13  C   UNL     1     -41.848  57.306 -60.067  1.00  0.00     0.026 C 
BRANCH  11  14
HETATM   14  C   UNL     1     -43.901  58.805 -59.985  1.00  0.00     0.133 C 
HETATM   15 CL   UNL     1     -44.476  60.389 -59.389  1.00  0.00    -0.129 Cl
ENDBRANCH  11  14
ENDBRANCH   8  11
ENDBRANCH   1   7
BRANCH   4  16
HETATM   16  O   UNL     1     -42.988  53.914 -52.531  1.00  0.00    -0.289 OA
BRANCH  16  17
HETATM   17  C   UNL     1     -42.007  53.966 -51.574  1.00  0.00     0.116 A 
HETATM   18  C   UNL     1     -42.242  54.685 -50.406  1.00  0.00     0.150 A 
HETATM   19  F   UNL     1     -43.430  55.274 -50.199  1.00  0.00    -0.203 F 
HETATM   20  C   UNL     1     -41.247  54.813 -49.440  1.00  0.00     0.045 A 
HETATM   21  C   UNL     1     -39.998  54.226 -49.654  1.00  0.00     0.003 A 
HETATM   22  C   UNL     1     -39.750  53.521 -50.834  1.00  0.00     0.003 A 
HETATM   23  C   UNL     1     -40.751  53.396 -51.801  1.00  0.00     0.040 A 
ENDBRANCH  16  17
ENDBRANCH   4  16
TORSDOF 5
ENDMDL
MODEL 9
REMARK VINA RESULT:      -6.9      3.993      8.479
REMARK  5 active torsions:
REMARK  status: ('A' for Active; 'I' for Inactive)
REMARK    1  A    between atoms: C_2  and  C_3 
REMARK    2  A    between atoms: C_2  and  C_20 
REMARK       I    between atoms: C_3  and  N_4 
REMARK    3  A    between atoms: N_4  and  C_5 
REMARK    4  A    between atoms: C_8  and  O_9 
REMARK    5  A    between atoms: O_9  and  C_10 
ROOT
HETATM    1  C   UNL     1     -42.588  55.748 -54.640  1.00  0.00     0.052 A 
HETATM    2  C   UNL     1     -42.477  57.083 -55.025  1.00  0.00     0.149 A 
HETATM    3  N   UNL     1     -42.655  57.528 -56.296  1.00  0.00    -0.235 NA
HETATM    4  C   UNL     1     -42.965  56.604 -57.229  1.00  0.00     0.169 A 
HETATM    5  C   UNL     1     -43.106  55.255 -56.949  1.00  0.00     0.060 A 
HETATM    6  C   UNL     1     -42.905  54.824 -55.638  1.00  0.00     0.035 A 
ENDROOT
BRANCH   1   7
HETATM    7  N   UNL     1     -42.399  55.256 -53.330  1.00  0.00    -0.325 N 
HETATM    8  C   UNL     1     -41.302  54.550 -52.861  1.00  0.00     0.231 C 
HETATM    9  O   UNL     1     -40.301  54.312 -53.527  1.00  0.00    -0.272 OA
HETATM   10  H   UNL     1     -43.124  55.492 -52.666  1.00  0.00     0.169 HD
BRANCH   8  11
HETATM   11  C   UNL     1     -41.397  54.148 -51.372  1.00  0.00     0.046 C 
HETATM   12  C   UNL     1     -42.882  53.904 -51.034  1.00  0.00     0.026 C 
HETATM   13  C   UNL     1     -40.599  52.863 -51.089  1.00  0.00     0.026 C 
BRANCH  11  14
HETATM   14  C   UNL     1     -40.903  55.314 -50.482  1.00  0.00     0.133 C 
HETATM   15 CL   UNL     1     -41.044  55.006 -48.728  1.00  0.00    -0.129 Cl
ENDBRANCH  11  14
ENDBRANCH   8  11
ENDBRANCH   1   7
BRANCH   4  16
HETATM   16  O   UNL     1     -43.184  56.979 -58.552  1.00  0.00    -0.289 OA
BRANCH  16  17
HETATM   17  C   UNL     1     -44.458  56.814 -59.033  1.00  0.00     0.116 A 
HETATM   18  C   UNL     1     -44.698  55.824 -59.982  1.00  0.00     0.150 A 
HETATM   19  F   UNL     1     -43.707  55.011 -60.379  1.00  0.00    -0.203 F 
HETATM   20  C   UNL     1     -45.964  55.669 -60.539  1.00  0.00     0.045 A 
HETATM   21  C   UNL     1     -46.997  56.525 -60.153  1.00  0.00     0.003 A 
HETATM   22  C   UNL     1     -46.757  57.534 -59.217  1.00  0.00     0.003 A 
HETATM   23  C   UNL     1     -45.485  57.686 -58.661  1.00  0.00     0.040 A 
ENDBRANCH  16  17
ENDBRANCH   4  16
TORSDOF 5
ENDMDL
MODEL 10
REMARK VINA RESULT:      -6.9     13.916     15.238
REMARK  5 active torsions:
REMARK  status: ('A' for Active; 'I' for Inactive)
REMARK    1  A    between atoms: C_2  and  C_3 
REMARK    2  A    between atoms: C_2  and  C_20 
REMARK       I    between atoms: C_3  and  N_4 
REMARK    3  A    between atoms: N_4  and  C_5 
REMARK    4  A    between atoms: C_8  and  O_9 
REMARK    5  A    between atoms: O_9  and  C_10 
ROOT
HETATM    1  C   UNL     1     -36.665  41.232 -55.212  1.00  0.00     0.052 A 
HETATM    2  C   UNL     1     -36.129  42.395 -54.662  1.00  0.00     0.149 A 
HETATM    3  N   UNL     1     -35.698  42.504 -53.378  1.00  0.00    -0.235 NA
HETATM    4  C   UNL     1     -35.799  41.404 -52.604  1.00  0.00     0.169 A 
HETATM    5  C   UNL     1     -36.309  40.198 -53.056  1.00  0.00     0.060 A 
HETATM    6  C   UNL     1     -36.757  40.118 -54.374  1.00  0.00     0.035 A 
ENDROOT
BRANCH   1   7
HETATM    7  N   UNL     1     -37.129  41.092 -56.538  1.00  0.00    -0.325 N 
HETATM    8  C   UNL     1     -36.365  40.790 -57.654  1.00  0.00     0.231 C 
HETATM    9  O   UNL     1     -35.166  40.538 -57.620  1.00  0.00    -0.272 OA
HETATM   10  H   UNL     1     -38.130  41.175 -56.662  1.00  0.00     0.169 HD
BRANCH   8  11
HETATM   11  C   UNL     1     -37.171  40.706 -58.970  1.00  0.00     0.046 C 
HETATM   12  C   UNL     1     -38.584  40.185 -58.636  1.00  0.00     0.026 C 
HETATM   13  C   UNL     1     -37.291  42.087 -59.640  1.00  0.00     0.026 C 
BRANCH  11  14
HETATM   14  C   UNL     1     -36.512  39.682 -59.924  1.00  0.00     0.133 C 
HETATM   15 CL   UNL     1     -37.443  39.367 -61.416  1.00  0.00    -0.129 Cl
ENDBRANCH  11  14
ENDBRANCH   8  11
ENDBRANCH   1   7
BRANCH   4  16
HETATM   16  O   UNL     1     -35.361  41.425 -51.283  1.00  0.00    -0.289 OA
BRANCH  16  17
HETATM   17  C   UNL     1     -34.239  40.689 -50.996  1.00  0.00     0.116 A 
HETATM   18  C   UNL     1     -34.314  39.695 -50.025  1.00  0.00     0.150 A 
HETATM   19  F   UNL     1     -35.480  39.429 -49.416  1.00  0.00    -0.203 F 
HETATM   20  C   UNL     1     -33.182  38.972 -49.663  1.00  0.00     0.045 A 
HETATM   21  C   UNL     1     -31.957  39.257 -50.270  1.00  0.00     0.003 A 
HETATM   22  C   UNL     1     -31.872  40.267 -51.231  1.00  0.00     0.003 A 
HETATM   23  C   UNL     1     -33.011  40.992 -51.590  1.00  0.00     0.040 A 
ENDBRANCH  16  17
ENDBRANCH   4  16
TORSDOF 5
ENDMDL
