MODEL 1
REMARK VINA RESULT:      -6.7      0.000      0.000
REMARK  2 active torsions:
REMARK  status: ('A' for Active; 'I' for Inactive)
REMARK    1  A    between atoms: N_6  and  C_7 
REMARK    2  A    between atoms: C_8  and  N_9 
ROOT
HETATM    1  C   UNL     1     -41.136  53.856 -51.900  1.00  0.00     0.066 A 
HETATM    2  C   UNL     1     -41.452  53.664 -53.268  1.00  0.00     0.130 A 
HETATM    3  C   UNL     1     -40.988  52.573 -54.022  1.00  0.00     0.060 A 
HETATM    4  C   UNL     1     -40.163  51.639 -53.410  1.00  0.00     0.052 A 
HETATM    5 BR   UNL     1     -39.533  50.157 -54.395  1.00  0.00    -0.048 Br
HETATM    6  C   UNL     1     -39.808  51.807 -52.076  1.00  0.00     0.136 A 
HETATM    7  F   UNL     1     -39.015  50.920 -51.457  1.00  0.00    -0.205 F 
HETATM    8  C   UNL     1     -40.280  52.896 -51.336  1.00  0.00     0.075 A 
ENDROOT
BRANCH   1   9
HETATM    9  N   UNL     1     -41.630  54.884 -51.114  1.00  0.00    -0.376 N 
HETATM   10  C   UNL     1     -42.916  54.763 -50.410  1.00  0.00     0.150 C 
HETATM   11  C   UNL     1     -43.912  55.834 -50.902  1.00  0.00     0.254 C 
HETATM   12  N   UNL     1     -43.287  57.227 -50.814  1.00  0.00    -0.072 N 
HETATM   13  C   UNL     1     -44.244  58.296 -51.251  1.00  0.00     0.269 C 
HETATM   14  H   UNL     1     -43.063  57.396 -49.825  1.00  0.00     0.279 HD
HETATM   15  C   UNL     1     -41.970  57.294 -51.587  1.00  0.00     0.254 C 
HETATM   16  C   UNL     1     -40.986  56.209 -51.096  1.00  0.00     0.150 C 
ENDBRANCH   1   9
BRANCH   2  17
HETATM   17  N   UNL     1     -42.245  54.648 -53.977  1.00  0.00    -0.113 N 
HETATM   18  O   UNL     1     -43.473  54.493 -53.988  1.00  0.00    -0.532 OA
HETATM   19  O   UNL     1     -41.624  55.553 -54.548  1.00  0.00    -0.532 OA
ENDBRANCH   2  17
TORSDOF 2
ENDMDL
MODEL 2
REMARK VINA RESULT:      -6.4      2.540      2.941
REMARK  2 active torsions:
REMARK  status: ('A' for Active; 'I' for Inactive)
REMARK    1  A    between atoms: N_6  and  C_7 
REMARK    2  A    between atoms: C_8  and  N_9 
ROOT
HETATM    1  C   UNL     1     -41.593  54.602 -51.496  1.00  0.00     0.066 A 
HETATM    2  C   UNL     1     -40.655  53.720 -50.904  1.00  0.00     0.130 A 
HETATM    3  C   UNL     1     -40.072  52.640 -51.587  1.00  0.00     0.060 A 
HETATM    4  C   UNL     1     -40.439  52.406 -52.906  1.00  0.00     0.052 A 
HETATM    5 BR   UNL     1     -39.664  50.968 -53.852  1.00  0.00    -0.048 Br
HETATM    6  C   UNL     1     -41.378  53.233 -53.514  1.00  0.00     0.136 A 
HETATM    7  F   UNL     1     -41.750  53.032 -54.786  1.00  0.00    -0.205 F 
HETATM    8  C   UNL     1     -41.948  54.307 -52.822  1.00  0.00     0.075 A 
ENDROOT
BRANCH   1   9
HETATM    9  N   UNL     1     -42.136  55.712 -50.870  1.00  0.00    -0.376 N 
HETATM   10  C   UNL     1     -43.582  55.825 -50.624  1.00  0.00     0.150 C 
HETATM   11  C   UNL     1     -44.170  57.042 -51.367  1.00  0.00     0.254 C 
HETATM   12  N   UNL     1     -43.384  58.309 -51.026  1.00  0.00    -0.072 N 
HETATM   13  C   UNL     1     -43.954  59.519 -51.703  1.00  0.00     0.269 C 
HETATM   14  H   UNL     1     -43.468  58.452 -50.011  1.00  0.00     0.279 HD
HETATM   15  C   UNL     1     -41.896  58.136 -51.329  1.00  0.00     0.254 C 
HETATM   16  C   UNL     1     -41.320  56.907 -50.592  1.00  0.00     0.150 C 
ENDBRANCH   1   9
BRANCH   2  17
HETATM   17  N   UNL     1     -40.295  53.872 -49.508  1.00  0.00    -0.113 N 
HETATM   18  O   UNL     1     -41.136  53.544 -48.661  1.00  0.00    -0.532 OA
HETATM   19  O   UNL     1     -39.180  54.356 -49.273  1.00  0.00    -0.532 OA
ENDBRANCH   2  17
TORSDOF 2
ENDMDL
MODEL 3
REMARK VINA RESULT:      -6.3      1.391      1.949
REMARK  2 active torsions:
REMARK  status: ('A' for Active; 'I' for Inactive)
REMARK    1  A    between atoms: N_6  and  C_7 
REMARK    2  A    between atoms: C_8  and  N_9 
ROOT
HETATM    1  C   UNL     1     -41.363  54.429 -52.945  1.00  0.00     0.066 A 
HETATM    2  C   UNL     1     -41.816  53.768 -54.113  1.00  0.00     0.130 A 
HETATM    3  C   UNL     1     -41.368  52.496 -54.505  1.00  0.00     0.060 A 
HETATM    4  C   UNL     1     -40.419  51.851 -53.722  1.00  0.00     0.052 A 
HETATM    5 BR   UNL     1     -39.805  50.136 -54.218  1.00  0.00    -0.048 Br
HETATM    6  C   UNL     1     -39.928  52.479 -52.583  1.00  0.00     0.136 A 
HETATM    7  F   UNL     1     -39.012  51.881 -51.807  1.00  0.00    -0.205 F 
HETATM    8  C   UNL     1     -40.386  53.745 -52.203  1.00  0.00     0.075 A 
ENDROOT
BRANCH   1   9
HETATM    9  N   UNL     1     -41.833  55.653 -52.498  1.00  0.00    -0.376 N 
HETATM   10  C   UNL     1     -41.634  56.883 -53.280  1.00  0.00     0.150 C 
HETATM   11  C   UNL     1     -40.790  57.904 -52.489  1.00  0.00     0.254 C 
HETATM   12  N   UNL     1     -41.396  58.141 -51.105  1.00  0.00    -0.072 N 
HETATM   13  C   UNL     1     -40.619  59.158 -50.323  1.00  0.00     0.269 C 
HETATM   14  H   UNL     1     -42.342  58.517 -51.249  1.00  0.00     0.279 HD
HETATM   15  C   UNL     1     -41.551  56.830 -50.335  1.00  0.00     0.254 C 
HETATM   16  C   UNL     1     -42.385  55.811 -51.141  1.00  0.00     0.150 C 
ENDBRANCH   1   9
BRANCH   2  17
HETATM   17  N   UNL     1     -42.749  54.428 -55.006  1.00  0.00    -0.113 N 
HETATM   18  O   UNL     1     -43.934  54.485 -54.654  1.00  0.00    -0.532 OA
HETATM   19  O   UNL     1     -42.289  54.851 -56.073  1.00  0.00    -0.532 OA
ENDBRANCH   2  17
TORSDOF 2
ENDMDL
MODEL 4
REMARK VINA RESULT:      -6.0      2.162      2.983
REMARK  2 active torsions:
REMARK  status: ('A' for Active; 'I' for Inactive)
REMARK    1  A    between atoms: N_6  and  C_7 
REMARK    2  A    between atoms: C_8  and  N_9 
ROOT
HETATM    1  C   UNL     1     -41.204  54.193 -52.898  1.00  0.00     0.066 A 
HETATM    2  C   UNL     1     -41.019  53.891 -51.526  1.00  0.00     0.130 A 
HETATM    3  C   UNL     1     -40.441  52.695 -51.069  1.00  0.00     0.060 A 
HETATM    4  C   UNL     1     -40.042  51.747 -52.001  1.00  0.00     0.052 A 
HETATM    5 BR   UNL     1     -39.252  50.135 -51.418  1.00  0.00    -0.048 Br
HETATM    6  C   UNL     1     -40.232  51.994 -53.357  1.00  0.00     0.136 A 
HETATM    7  F   UNL     1     -39.855  51.098 -54.280  1.00  0.00    -0.205 F 
HETATM    8  C   UNL     1     -40.806  53.191 -53.797  1.00  0.00     0.075 A 
ENDROOT
BRANCH   1   9
HETATM    9  N   UNL     1     -41.710  55.389 -53.380  1.00  0.00    -0.376 N 
HETATM   10  C   UNL     1     -40.836  56.543 -53.644  1.00  0.00     0.150 C 
HETATM   11  C   UNL     1     -41.231  57.742 -52.757  1.00  0.00     0.254 C 
HETATM   12  N   UNL     1     -42.722  58.049 -52.904  1.00  0.00    -0.072 N 
HETATM   13  C   UNL     1     -43.131  59.234 -52.082  1.00  0.00     0.269 C 
HETATM   14  H   UNL     1     -42.887  58.283 -53.892  1.00  0.00     0.279 HD
HETATM   15  C   UNL     1     -43.575  56.819 -52.591  1.00  0.00     0.254 C 
HETATM   16  C   UNL     1     -43.163  55.621 -53.473  1.00  0.00     0.150 C 
ENDBRANCH   1   9
BRANCH   2  17
HETATM   17  N   UNL     1     -41.487  54.812 -50.509  1.00  0.00    -0.113 N 
HETATM   18  O   UNL     1     -40.694  55.674 -50.110  1.00  0.00    -0.532 OA
HETATM   19  O   UNL     1     -42.639  54.638 -50.092  1.00  0.00    -0.532 OA
ENDBRANCH   2  17
TORSDOF 2
ENDMDL
MODEL 5
REMARK VINA RESULT:      -5.9      2.129      2.319
REMARK  2 active torsions:
REMARK  status: ('A' for Active; 'I' for Inactive)
REMARK    1  A    between atoms: N_6  and  C_7 
REMARK    2  A    between atoms: C_8  and  N_9 
ROOT
HETATM    1  C   UNL     1     -41.262  54.577 -52.144  1.00  0.00     0.066 A 
HETATM    2  C   UNL     1     -40.821  53.727 -53.189  1.00  0.00     0.130 A 
HETATM    3  C   UNL     1     -40.269  52.455 -52.969  1.00  0.00     0.060 A 
HETATM    4  C   UNL     1     -40.128  52.003 -51.663  1.00  0.00     0.052 A 
HETATM    5 BR   UNL     1     -39.399  50.293 -51.338  1.00  0.00    -0.048 Br
HETATM    6  C   UNL     1     -40.523  52.819 -50.609  1.00  0.00     0.136 A 
HETATM    7  F   UNL     1     -40.400  52.410 -49.338  1.00  0.00    -0.205 F 
HETATM    8  C   UNL     1     -41.074  54.083 -50.843  1.00  0.00     0.075 A 
ENDROOT
BRANCH   1   9
HETATM    9  N   UNL     1     -41.869  55.808 -52.332  1.00  0.00    -0.376 N 
HETATM   10  C   UNL     1     -43.324  55.926 -52.515  1.00  0.00     0.150 C 
HETATM   11  C   UNL     1     -43.654  56.533 -53.895  1.00  0.00     0.254 C 
HETATM   12  N   UNL     1     -42.895  57.845 -54.098  1.00  0.00    -0.072 N 
HETATM   13  C   UNL     1     -43.223  58.480 -55.417  1.00  0.00     0.269 C 
HETATM   14  H   UNL     1     -43.202  58.489 -53.358  1.00  0.00     0.279 HD
HETATM   15  C   UNL     1     -41.390  57.649 -53.921  1.00  0.00     0.254 C 
HETATM   16  C   UNL     1     -41.071  57.028 -52.543  1.00  0.00     0.150 C 
ENDBRANCH   1   9
BRANCH   2  17
HETATM   17  N   UNL     1     -40.875  54.179 -54.565  1.00  0.00    -0.113 N 
HETATM   18  O   UNL     1     -41.917  53.964 -55.197  1.00  0.00    -0.532 OA
HETATM   19  O   UNL     1     -39.853  54.715 -55.012  1.00  0.00    -0.532 OA
ENDBRANCH   2  17
TORSDOF 2
ENDMDL
MODEL 6
REMARK VINA RESULT:      -5.8      1.787      2.316
REMARK  2 active torsions:
REMARK  status: ('A' for Active; 'I' for Inactive)
REMARK    1  A    between atoms: N_6  and  C_7 
REMARK    2  A    between atoms: C_8  and  N_9 
ROOT
HETATM    1  C   UNL     1     -41.186  54.686 -52.378  1.00  0.00     0.066 A 
HETATM    2  C   UNL     1     -40.862  53.695 -53.337  1.00  0.00     0.130 A 
HETATM    3  C   UNL     1     -40.357  52.428 -52.998  1.00  0.00     0.060 A 
HETATM    4  C   UNL     1     -40.146  52.128 -51.659  1.00  0.00     0.052 A 
HETATM    5 BR   UNL     1     -39.479  50.431 -51.173  1.00  0.00    -0.048 Br
HETATM    6  C   UNL     1     -40.426  53.085 -50.689  1.00  0.00     0.136 A 
HETATM    7  F   UNL     1     -40.235  52.824 -49.388  1.00  0.00    -0.205 F 
HETATM    8  C   UNL     1     -40.932  54.341 -51.041  1.00  0.00     0.075 A 
ENDROOT
BRANCH   1   9
HETATM    9  N   UNL     1     -41.745  55.918 -52.677  1.00  0.00    -0.376 N 
HETATM   10  C   UNL     1     -40.918  57.047 -53.128  1.00  0.00     0.150 C 
HETATM   11  C   UNL     1     -41.011  58.225 -52.135  1.00  0.00     0.254 C 
HETATM   12  N   UNL     1     -42.472  58.593 -51.875  1.00  0.00    -0.072 N 
HETATM   13  C   UNL     1     -42.596  59.759 -50.942  1.00  0.00     0.269 C 
HETATM   14  H   UNL     1     -42.878  58.872 -52.778  1.00  0.00     0.279 HD
HETATM   15  C   UNL     1     -43.269  57.385 -51.384  1.00  0.00     0.254 C 
HETATM   16  C   UNL     1     -43.159  56.208 -52.378  1.00  0.00     0.150 C 
ENDBRANCH   1   9
BRANCH   2  17
HETATM   17  N   UNL     1     -40.990  53.982 -54.752  1.00  0.00    -0.113 N 
HETATM   18  O   UNL     1     -42.127  53.960 -55.239  1.00  0.00    -0.532 OA
HETATM   19  O   UNL     1     -39.940  54.192 -55.372  1.00  0.00    -0.532 OA
ENDBRANCH   2  17
TORSDOF 2
ENDMDL
MODEL 7
REMARK VINA RESULT:      -5.6      1.685      2.192
REMARK  2 active torsions:
REMARK  status: ('A' for Active; 'I' for Inactive)
REMARK    1  A    between atoms: N_6  and  C_7 
REMARK    2  A    between atoms: C_8  and  N_9 
ROOT
HETATM    1  C   UNL     1     -41.748  55.682 -51.706  1.00  0.00     0.066 A 
HETATM    2  C   UNL     1     -41.786  54.871 -52.867  1.00  0.00     0.130 A 
HETATM    3  C   UNL     1     -41.128  53.635 -52.968  1.00  0.00     0.060 A 
HETATM    4  C   UNL     1     -40.386  53.182 -51.885  1.00  0.00     0.052 A 
HETATM    5 BR   UNL     1     -39.499  51.519 -51.987  1.00  0.00    -0.048 Br
HETATM    6  C   UNL     1     -40.301  53.962 -50.737  1.00  0.00     0.136 A 
HETATM    7  F   UNL     1     -39.594  53.550 -49.674  1.00  0.00    -0.205 F 
HETATM    8  C   UNL     1     -40.965  55.190 -50.649  1.00  0.00     0.075 A 
ENDROOT
BRANCH   1   9
HETATM    9  N   UNL     1     -42.439  56.874 -51.554  1.00  0.00    -0.376 N 
HETATM   10  C   UNL     1     -43.862  56.894 -51.184  1.00  0.00     0.150 C 
HETATM   11  C   UNL     1     -44.706  57.559 -52.291  1.00  0.00     0.254 C 
HETATM   12  N   UNL     1     -44.138  58.935 -52.644  1.00  0.00    -0.072 N 
HETATM   13  C   UNL     1     -44.958  59.625 -53.692  1.00  0.00     0.269 C 
HETATM   14  H   UNL     1     -44.180  59.507 -51.790  1.00  0.00     0.279 HD
HETATM   15  C   UNL     1     -42.666  58.841 -53.044  1.00  0.00     0.254 C 
HETATM   16  C   UNL     1     -41.833  58.161 -51.936  1.00  0.00     0.150 C 
ENDBRANCH   1   9
BRANCH   2  17
HETATM   17  N   UNL     1     -42.482  55.331 -54.053  1.00  0.00    -0.113 N 
HETATM   18  O   UNL     1     -43.648  54.950 -54.215  1.00  0.00    -0.532 OA
HETATM   19  O   UNL     1     -41.837  56.043 -54.833  1.00  0.00    -0.532 OA
ENDBRANCH   2  17
TORSDOF 2
ENDMDL
MODEL 8
REMARK VINA RESULT:      -5.6      2.885      3.483
REMARK  2 active torsions:
REMARK  status: ('A' for Active; 'I' for Inactive)
REMARK    1  A    between atoms: N_6  and  C_7 
REMARK    2  A    between atoms: C_8  and  N_9 
ROOT
HETATM    1  C   UNL     1     -41.905  55.072 -52.986  1.00  0.00     0.066 A 
HETATM    2  C   UNL     1     -41.794  54.535 -51.679  1.00  0.00     0.130 A 
HETATM    3  C   UNL     1     -41.055  53.379 -51.380  1.00  0.00     0.060 A 
HETATM    4  C   UNL     1     -40.409  52.711 -52.412  1.00  0.00     0.052 A 
HETATM    5 BR   UNL     1     -39.399  51.161 -52.037  1.00  0.00    -0.048 Br
HETATM    6  C   UNL     1     -40.516  53.191 -53.713  1.00  0.00     0.136 A 
HETATM    7  F   UNL     1     -39.903  52.569 -54.730  1.00  0.00    -0.205 F 
HETATM    8  C   UNL     1     -41.254  54.346 -53.996  1.00  0.00     0.075 A 
ENDROOT
BRANCH   1   9
HETATM    9  N   UNL     1     -42.572  56.244 -53.302  1.00  0.00    -0.376 N 
HETATM   10  C   UNL     1     -43.864  56.226 -54.005  1.00  0.00     0.150 C 
HETATM   11  C   UNL     1     -43.757  56.949 -55.364  1.00  0.00     0.254 C 
HETATM   12  N   UNL     1     -43.171  58.350 -55.182  1.00  0.00    -0.072 N 
HETATM   13  C   UNL     1     -43.088  59.093 -56.481  1.00  0.00     0.269 C 
HETATM   14  H   UNL     1     -43.812  58.868 -54.567  1.00  0.00     0.279 HD
HETATM   15  C   UNL     1     -41.819  58.297 -54.471  1.00  0.00     0.254 C 
HETATM   16  C   UNL     1     -41.934  57.560 -53.119  1.00  0.00     0.150 C 
ENDBRANCH   1   9
BRANCH   2  17
HETATM   17  N   UNL     1     -42.510  55.148 -50.578  1.00  0.00    -0.113 N 
HETATM   18  O   UNL     1     -41.889  55.951 -49.869  1.00  0.00    -0.532 OA
HETATM   19  O   UNL     1     -43.682  54.789 -50.411  1.00  0.00    -0.532 OA
ENDBRANCH   2  17
TORSDOF 2
ENDMDL
MODEL 9
REMARK VINA RESULT:      -5.5      3.139      4.078
REMARK  2 active torsions:
REMARK  status: ('A' for Active; 'I' for Inactive)
REMARK    1  A    between atoms: N_6  and  C_7 
REMARK    2  A    between atoms: C_8  and  N_9 
ROOT
HETATM    1  C   UNL     1     -41.810  55.368 -52.303  1.00  0.00     0.066 A 
HETATM    2  C   UNL     1     -42.162  56.018 -51.094  1.00  0.00     0.130 A 
HETATM    3  C   UNL     1     -41.704  55.604 -49.833  1.00  0.00     0.060 A 
HETATM    4  C   UNL     1     -40.876  54.492 -49.754  1.00  0.00     0.052 A 
HETATM    5 BR   UNL     1     -40.235  53.918 -48.074  1.00  0.00    -0.048 Br
HETATM    6  C   UNL     1     -40.530  53.810 -50.916  1.00  0.00     0.136 A 
HETATM    7  F   UNL     1     -39.731  52.734 -50.872  1.00  0.00    -0.205 F 
HETATM    8  C   UNL     1     -40.992  54.236 -52.166  1.00  0.00     0.075 A 
ENDROOT
BRANCH   1   9
HETATM    9  N   UNL     1     -42.194  55.791 -53.566  1.00  0.00    -0.376 N 
HETATM   10  C   UNL     1     -41.417  56.796 -54.308  1.00  0.00     0.150 C 
HETATM   11  C   UNL     1     -42.269  58.051 -54.584  1.00  0.00     0.254 C 
HETATM   12  N   UNL     1     -43.587  57.667 -55.258  1.00  0.00    -0.072 N 
HETATM   13  C   UNL     1     -44.423  58.871 -55.574  1.00  0.00     0.269 C 
HETATM   14  H   UNL     1     -43.349  57.211 -56.148  1.00  0.00     0.279 HD
HETATM   15  C   UNL     1     -44.357  56.643 -54.425  1.00  0.00     0.254 C 
HETATM   16  C   UNL     1     -43.491  55.396 -54.142  1.00  0.00     0.150 C 
ENDBRANCH   1   9
BRANCH   2  17
HETATM   17  N   UNL     1     -43.085  57.136 -51.111  1.00  0.00    -0.113 N 
HETATM   18  O   UNL     1     -44.293  56.882 -51.030  1.00  0.00    -0.532 OA
HETATM   19  O   UNL     1     -42.588  58.262 -51.243  1.00  0.00    -0.532 OA
ENDBRANCH   2  17
TORSDOF 2
ENDMDL
MODEL 10
REMARK VINA RESULT:      -5.5     14.527     15.517
REMARK  2 active torsions:
REMARK  status: ('A' for Active; 'I' for Inactive)
REMARK    1  A    between atoms: N_6  and  C_7 
REMARK    2  A    between atoms: C_8  and  N_9 
ROOT
HETATM    1  C   UNL     1     -35.715  41.257 -54.170  1.00  0.00     0.066 A 
HETATM    2  C   UNL     1     -35.287  39.919 -53.986  1.00  0.00     0.130 A 
HETATM    3  C   UNL     1     -34.664  39.462 -52.814  1.00  0.00     0.060 A 
HETATM    4  C   UNL     1     -34.436  40.363 -51.782  1.00  0.00     0.052 A 
HETATM    5 BR   UNL     1     -33.609  39.774 -50.191  1.00  0.00    -0.048 Br
HETATM    6  C   UNL     1     -34.816  41.692 -51.935  1.00  0.00     0.136 A 
HETATM    7  F   UNL     1     -34.610  42.584 -50.956  1.00  0.00    -0.205 F 
HETATM    8  C   UNL     1     -35.439  42.133 -53.107  1.00  0.00     0.075 A 
ENDROOT
BRANCH   1   9
HETATM    9  N   UNL     1     -36.390  41.723 -55.287  1.00  0.00    -0.376 N 
HETATM   10  C   UNL     1     -37.832  41.493 -55.464  1.00  0.00     0.150 C 
HETATM   11  C   UNL     1     -38.100  40.655 -56.732  1.00  0.00     0.254 C 
HETATM   12  N   UNL     1     -37.421  41.288 -57.947  1.00  0.00    -0.072 N 
HETATM   13  C   UNL     1     -37.693  40.517 -59.203  1.00  0.00     0.269 C 
HETATM   14  H   UNL     1     -37.825  42.227 -58.064  1.00  0.00     0.279 HD
HETATM   15  C   UNL     1     -35.923  41.475 -57.709  1.00  0.00     0.254 C 
HETATM   16  C   UNL     1     -35.665  42.303 -56.431  1.00  0.00     0.150 C 
ENDBRANCH   1   9
BRANCH   2  17
HETATM   17  N   UNL     1     -35.432  38.956 -55.060  1.00  0.00    -0.113 N 
HETATM   18  O   UNL     1     -36.422  38.214 -55.033  1.00  0.00    -0.532 OA
HETATM   19  O   UNL     1     -34.528  38.927 -55.904  1.00  0.00    -0.532 OA
ENDBRANCH   2  17
TORSDOF 2
ENDMDL
