MODEL 1
REMARK VINA RESULT:      -7.2      0.000      0.000
REMARK  9 active torsions:
REMARK  status: ('A' for Active; 'I' for Inactive)
REMARK    1  A    between atoms: C_2  and  N_3 
REMARK    2  A    between atoms: N_3  and  C_5 
REMARK    3  A    between atoms: N_3  and  C_29 
REMARK    4  A    between atoms: C_5  and  C_6 
REMARK    5  A    between atoms: N_7  and  C_8 
REMARK    6  A    between atoms: C_12  and  N_13 
REMARK    7  A    between atoms: C_16  and  C_17 
REMARK       I    between atoms: C_17  and  N_18 
REMARK    8  A    between atoms: N_18  and  N_19 
REMARK    9  A    between atoms: C_20  and  C_21 
ROOT
HETATM    1  C   UNL     1     -43.415  57.499 -58.411  1.00  0.00     0.096 A 
HETATM    2  N   UNL     1     -43.412  57.773 -59.776  1.00  0.00    -0.215 N 
HETATM    3  N   UNL     1     -42.862  56.717 -60.431  1.00  0.00     0.012 NA
HETATM    4  N   UNL     1     -42.603  55.750 -59.565  1.00  0.00    -0.152 NA
HETATM    5  C   UNL     1     -42.939  56.198 -58.321  1.00  0.00     0.170 A 
ENDROOT
BRANCH   5   6
HETATM    6  C   UNL     1     -42.808  55.402 -57.107  1.00  0.00     0.293 C 
HETATM    7  N   UNL     1     -41.714  55.729 -56.330  1.00  0.00    -0.242 N 
HETATM    8  H   UNL     1     -41.079  56.470 -56.615  1.00  0.00     0.192 HD
HETATM    9  O   UNL     1     -43.621  54.513 -56.867  1.00  0.00    -0.264 OA
BRANCH   7  10
HETATM   10  N   UNL     1     -41.520  55.076 -55.152  1.00  0.00    -0.184 NA
HETATM   11  C   UNL     1     -40.674  54.096 -55.168  1.00  0.00     0.150 C 
BRANCH  11  12
HETATM   12  C   UNL     1     -40.365  53.335 -53.941  1.00  0.00    -0.016 A 
HETATM   13  C   UNL     1     -40.486  53.936 -52.684  1.00  0.00     0.031 A 
HETATM   14  C   UNL     1     -40.177  53.201 -51.540  1.00  0.00     0.007 A 
HETATM   15  I   UNL     1     -40.342  54.090 -49.668  1.00  0.00    -0.045 I 
HETATM   16  C   UNL     1     -39.754  51.876 -51.643  1.00  0.00     0.018 A 
HETATM   17  C   UNL     1     -39.637  51.280 -52.902  1.00  0.00     0.002 A 
HETATM   18  C   UNL     1     -39.941  52.008 -54.054  1.00  0.00     0.013 A 
ENDBRANCH  11  12
ENDBRANCH   7  10
ENDBRANCH   5   6
BRANCH   1  19
HETATM   19  C   UNL     1     -43.758  58.460 -57.334  1.00  0.00     0.296 C 
BRANCH  19  20
HETATM   20  N   UNL     1     -45.025  58.163 -56.549  1.00  0.00    -0.066 N 
HETATM   21  H   UNL     1     -45.251  57.173 -56.722  1.00  0.00     0.280 HD
BRANCH  20  22
HETATM   22  C   UNL     1     -46.192  58.994 -57.068  1.00  0.00     0.231 C 
HETATM   23  C   UNL     1     -47.252  58.118 -57.712  1.00  0.00     0.034 C 
ENDBRANCH  20  22
BRANCH  20  24
HETATM   24  C   UNL     1     -44.839  58.357 -55.050  1.00  0.00     0.231 C 
HETATM   25  C   UNL     1     -44.717  57.020 -54.338  1.00  0.00     0.034 C 
ENDBRANCH  20  24
ENDBRANCH  19  20
ENDBRANCH   1  19
BRANCH   2  26
HETATM   26  C   UNL     1     -43.928  58.904 -60.450  1.00  0.00     0.225 A 
HETATM   27  N   UNL     1     -45.249  59.106 -60.495  1.00  0.00    -0.081 NA
HETATM   28  O   UNL     1     -45.375  60.282 -61.244  1.00  0.00    -0.103 OA
HETATM   29  N   UNL     1     -44.137  60.749 -61.658  1.00  0.00    -0.083 NA
HETATM   30  C   UNL     1     -43.239  59.894 -61.170  1.00  0.00     0.201 A 
BRANCH  30  31
HETATM   31  N   UNL     1     -41.913  59.999 -61.346  1.00  0.00    -0.379 N 
HETATM   32  H   UNL     1     -41.427  59.369 -61.978  1.00  0.00     0.158 HD
HETATM   33  H   UNL     1     -41.305  60.567 -60.759  1.00  0.00     0.158 HD
ENDBRANCH  30  31
ENDBRANCH   2  26
TORSDOF 9
ENDMDL
MODEL 2
REMARK VINA RESULT:      -7.1      1.666      2.516
REMARK  9 active torsions:
REMARK  status: ('A' for Active; 'I' for Inactive)
REMARK    1  A    between atoms: C_2  and  N_3 
REMARK    2  A    between atoms: N_3  and  C_5 
REMARK    3  A    between atoms: N_3  and  C_29 
REMARK    4  A    between atoms: C_5  and  C_6 
REMARK    5  A    between atoms: N_7  and  C_8 
REMARK    6  A    between atoms: C_12  and  N_13 
REMARK    7  A    between atoms: C_16  and  C_17 
REMARK       I    between atoms: C_17  and  N_18 
REMARK    8  A    between atoms: N_18  and  N_19 
REMARK    9  A    between atoms: C_20  and  C_21 
ROOT
HETATM    1  C   UNL     1     -44.337  57.364 -57.991  1.00  0.00     0.096 A 
HETATM    2  N   UNL     1     -44.652  57.244 -59.342  1.00  0.00    -0.215 N 
HETATM    3  N   UNL     1     -43.823  56.325 -59.903  1.00  0.00     0.012 NA
HETATM    4  N   UNL     1     -43.065  55.787 -58.961  1.00  0.00    -0.152 NA
HETATM    5  C   UNL     1     -43.363  56.398 -57.779  1.00  0.00     0.170 A 
ENDROOT
BRANCH   5   6
HETATM    6  C   UNL     1     -42.737  56.060 -56.507  1.00  0.00     0.293 C 
HETATM    7  N   UNL     1     -43.102  54.825 -56.007  1.00  0.00    -0.242 N 
HETATM    8  H   UNL     1     -43.753  54.233 -56.515  1.00  0.00     0.192 HD
HETATM    9  O   UNL     1     -41.979  56.860 -55.965  1.00  0.00    -0.264 OA
BRANCH   7  10
HETATM   10  N   UNL     1     -42.544  54.392 -54.844  1.00  0.00    -0.184 NA
HETATM   11  C   UNL     1     -41.586  53.527 -54.951  1.00  0.00     0.150 C 
BRANCH  11  12
HETATM   12  C   UNL     1     -40.889  53.009 -53.757  1.00  0.00    -0.016 A 
HETATM   13  C   UNL     1     -40.943  53.706 -52.546  1.00  0.00     0.031 A 
HETATM   14  C   UNL     1     -40.266  53.204 -51.435  1.00  0.00     0.007 A 
HETATM   15  I   UNL     1     -40.330  54.240 -49.634  1.00  0.00    -0.045 I 
HETATM   16  C   UNL     1     -39.544  52.014 -51.525  1.00  0.00     0.018 A 
HETATM   17  C   UNL     1     -39.496  51.320 -52.737  1.00  0.00     0.002 A 
HETATM   18  C   UNL     1     -40.167  51.816 -53.857  1.00  0.00     0.013 A 
ENDBRANCH  11  12
ENDBRANCH   7  10
ENDBRANCH   5   6
BRANCH   1  19
HETATM   19  C   UNL     1     -44.878  58.387 -57.062  1.00  0.00     0.296 C 
BRANCH  19  20
HETATM   20  N   UNL     1     -43.873  59.378 -56.498  1.00  0.00    -0.066 N 
HETATM   21  H   UNL     1     -43.119  58.819 -56.074  1.00  0.00     0.280 HD
BRANCH  20  22
HETATM   22  C   UNL     1     -44.499  60.215 -55.390  1.00  0.00     0.231 C 
HETATM   23  C   UNL     1     -45.123  59.338 -54.320  1.00  0.00     0.034 C 
ENDBRANCH  20  22
BRANCH  20  24
HETATM   24  C   UNL     1     -43.263  60.264 -57.576  1.00  0.00     0.231 C 
HETATM   25  C   UNL     1     -41.764  60.037 -57.686  1.00  0.00     0.034 C 
ENDBRANCH  20  24
ENDBRANCH  19  20
ENDBRANCH   1  19
BRANCH   2  26
HETATM   26  C   UNL     1     -45.681  57.887 -60.069  1.00  0.00     0.225 A 
HETATM   27  N   UNL     1     -45.555  59.175 -60.402  1.00  0.00    -0.081 NA
HETATM   28  O   UNL     1     -46.747  59.457 -61.079  1.00  0.00    -0.103 OA
HETATM   29  N   UNL     1     -47.578  58.348 -61.116  1.00  0.00    -0.083 NA
HETATM   30  C   UNL     1     -46.920  57.374 -60.488  1.00  0.00     0.201 A 
BRANCH  30  31
HETATM   31  N   UNL     1     -47.387  56.128 -60.315  1.00  0.00    -0.379 N 
HETATM   32  H   UNL     1     -46.745  55.358 -60.145  1.00  0.00     0.158 HD
HETATM   33  H   UNL     1     -48.347  55.848 -60.506  1.00  0.00     0.158 HD
ENDBRANCH  30  31
ENDBRANCH   2  26
TORSDOF 9
ENDMDL
MODEL 3
REMARK VINA RESULT:      -7.0      5.475      7.951
REMARK  9 active torsions:
REMARK  status: ('A' for Active; 'I' for Inactive)
REMARK    1  A    between atoms: C_2  and  N_3 
REMARK    2  A    between atoms: N_3  and  C_5 
REMARK    3  A    between atoms: N_3  and  C_29 
REMARK    4  A    between atoms: C_5  and  C_6 
REMARK    5  A    between atoms: N_7  and  C_8 
REMARK    6  A    between atoms: C_12  and  N_13 
REMARK    7  A    between atoms: C_16  and  C_17 
REMARK       I    between atoms: C_17  and  N_18 
REMARK    8  A    between atoms: N_18  and  N_19 
REMARK    9  A    between atoms: C_20  and  C_21 
ROOT
HETATM    1  C   UNL     1     -44.149  59.567 -50.873  1.00  0.00     0.096 A 
HETATM    2  N   UNL     1     -45.058  60.256 -50.074  1.00  0.00    -0.215 N 
HETATM    3  N   UNL     1     -46.183  59.504 -49.946  1.00  0.00     0.012 NA
HETATM    4  N   UNL     1     -45.999  58.336 -50.541  1.00  0.00    -0.152 NA
HETATM    5  C   UNL     1     -44.760  58.343 -51.111  1.00  0.00     0.170 A 
ENDROOT
BRANCH   5   6
HETATM    6  C   UNL     1     -44.195  57.218 -51.845  1.00  0.00     0.293 C 
HETATM    7  N   UNL     1     -43.529  56.302 -51.053  1.00  0.00    -0.242 N 
HETATM    8  H   UNL     1     -43.463  56.437 -50.048  1.00  0.00     0.192 HD
HETATM    9  O   UNL     1     -44.313  57.161 -53.066  1.00  0.00    -0.264 OA
BRANCH   7  10
HETATM   10  N   UNL     1     -42.999  55.190 -51.632  1.00  0.00    -0.184 NA
HETATM   11  C   UNL     1     -41.766  55.273 -52.018  1.00  0.00     0.150 C 
BRANCH  11  12
HETATM   12  C   UNL     1     -41.080  54.119 -52.633  1.00  0.00    -0.016 A 
HETATM   13  C   UNL     1     -40.738  53.003 -51.862  1.00  0.00     0.031 A 
HETATM   14  C   UNL     1     -40.080  51.931 -52.462  1.00  0.00     0.007 A 
HETATM   15  I   UNL     1     -39.557  50.273 -51.321  1.00  0.00    -0.045 I 
HETATM   16  C   UNL     1     -39.766  51.964 -53.821  1.00  0.00     0.018 A 
HETATM   17  C   UNL     1     -40.113  53.080 -54.587  1.00  0.00     0.002 A 
HETATM   18  C   UNL     1     -40.769  54.162 -53.995  1.00  0.00     0.013 A 
ENDBRANCH  11  12
ENDBRANCH   7  10
ENDBRANCH   5   6
BRANCH   1  19
HETATM   19  C   UNL     1     -42.877  60.112 -51.408  1.00  0.00     0.296 C 
BRANCH  19  20
HETATM   20  N   UNL     1     -42.208  59.300 -52.504  1.00  0.00    -0.066 N 
HETATM   21  H   UNL     1     -42.738  58.420 -52.581  1.00  0.00     0.280 HD
BRANCH  20  22
HETATM   22  C   UNL     1     -40.779  58.938 -52.117  1.00  0.00     0.231 C 
HETATM   23  C   UNL     1     -40.683  58.559 -50.650  1.00  0.00     0.034 C 
ENDBRANCH  20  22
BRANCH  20  24
HETATM   24  C   UNL     1     -42.247  60.002 -53.855  1.00  0.00     0.231 C 
HETATM   25  C   UNL     1     -41.976  59.024 -54.986  1.00  0.00     0.034 C 
ENDBRANCH  20  24
ENDBRANCH  19  20
ENDBRANCH   1  19
BRANCH   2  26
HETATM   26  C   UNL     1     -44.894  61.499 -49.422  1.00  0.00     0.225 A 
HETATM   27  N   UNL     1     -44.845  62.626 -50.140  1.00  0.00    -0.081 NA
HETATM   28  O   UNL     1     -44.660  63.623 -49.175  1.00  0.00    -0.103 OA
HETATM   29  N   UNL     1     -44.573  63.079 -47.903  1.00  0.00    -0.083 NA
HETATM   30  C   UNL     1     -44.714  61.763 -48.054  1.00  0.00     0.201 A 
BRANCH  30  31
HETATM   31  N   UNL     1     -44.694  60.874 -47.049  1.00  0.00    -0.379 N 
HETATM   32  H   UNL     1     -45.347  60.095 -47.039  1.00  0.00     0.158 HD
HETATM   33  H   UNL     1     -44.175  61.005 -46.183  1.00  0.00     0.158 HD
ENDBRANCH  30  31
ENDBRANCH   2  26
TORSDOF 9
ENDMDL
MODEL 4
REMARK VINA RESULT:      -7.0      1.754      2.900
REMARK  9 active torsions:
REMARK  status: ('A' for Active; 'I' for Inactive)
REMARK    1  A    between atoms: C_2  and  N_3 
REMARK    2  A    between atoms: N_3  and  C_5 
REMARK    3  A    between atoms: N_3  and  C_29 
REMARK    4  A    between atoms: C_5  and  C_6 
REMARK    5  A    between atoms: N_7  and  C_8 
REMARK    6  A    between atoms: C_12  and  N_13 
REMARK    7  A    between atoms: C_16  and  C_17 
REMARK       I    between atoms: C_17  and  N_18 
REMARK    8  A    between atoms: N_18  and  N_19 
REMARK    9  A    between atoms: C_20  and  C_21 
ROOT
HETATM    1  C   UNL     1     -43.423  58.034 -58.729  1.00  0.00     0.096 A 
HETATM    2  N   UNL     1     -43.385  59.363 -59.142  1.00  0.00    -0.215 N 
HETATM    3  N   UNL     1     -43.280  60.158 -58.045  1.00  0.00     0.012 NA
HETATM    4  N   UNL     1     -43.153  59.402 -56.967  1.00  0.00    -0.152 NA
HETATM    5  C   UNL     1     -43.230  58.097 -57.355  1.00  0.00     0.170 A 
ENDROOT
BRANCH   5   6
HETATM    6  C   UNL     1     -43.117  56.967 -56.442  1.00  0.00     0.293 C 
HETATM    7  N   UNL     1     -42.030  56.150 -56.684  1.00  0.00    -0.242 N 
HETATM    8  H   UNL     1     -41.387  56.354 -57.443  1.00  0.00     0.192 HD
HETATM    9  O   UNL     1     -43.963  56.798 -55.568  1.00  0.00    -0.264 OA
BRANCH   7  10
HETATM   10  N   UNL     1     -41.805  55.088 -55.862  1.00  0.00    -0.184 NA
HETATM   11  C   UNL     1     -40.910  55.250 -54.941  1.00  0.00     0.150 C 
BRANCH  11  12
HETATM   12  C   UNL     1     -40.604  54.175 -53.977  1.00  0.00    -0.016 A 
HETATM   13  C   UNL     1     -40.658  54.420 -52.600  1.00  0.00     0.031 A 
HETATM   14  C   UNL     1     -40.353  53.392 -51.709  1.00  0.00     0.007 A 
HETATM   15  I   UNL     1     -40.419  53.751 -49.662  1.00  0.00    -0.045 I 
HETATM   16  C   UNL     1     -40.000  52.128 -52.180  1.00  0.00     0.018 A 
HETATM   17  C   UNL     1     -39.950  51.888 -53.556  1.00  0.00     0.002 A 
HETATM   18  C   UNL     1     -40.250  52.911 -54.458  1.00  0.00     0.013 A 
ENDBRANCH  11  12
ENDBRANCH   7  10
ENDBRANCH   5   6
BRANCH   1  19
HETATM   19  C   UNL     1     -43.717  56.865 -59.594  1.00  0.00     0.296 C 
BRANCH  19  20
HETATM   20  N   UNL     1     -44.992  56.101 -59.277  1.00  0.00    -0.066 N 
HETATM   21  H   UNL     1     -44.905  55.779 -58.303  1.00  0.00     0.280 HD
BRANCH  20  22
HETATM   22  C   UNL     1     -45.115  54.863 -60.157  1.00  0.00     0.231 C 
HETATM   23  C   UNL     1     -44.609  53.623 -59.442  1.00  0.00     0.034 C 
ENDBRANCH  20  22
BRANCH  20  24
HETATM   24  C   UNL     1     -46.234  56.975 -59.385  1.00  0.00     0.231 C 
HETATM   25  C   UNL     1     -47.179  56.450 -60.455  1.00  0.00     0.034 C 
ENDBRANCH  20  24
ENDBRANCH  19  20
ENDBRANCH   1  19
BRANCH   2  26
HETATM   26  C   UNL     1     -43.390  59.878 -60.459  1.00  0.00     0.225 A 
HETATM   27  N   UNL     1     -42.233  60.146 -61.073  1.00  0.00    -0.081 NA
HETATM   28  O   UNL     1     -42.630  60.644 -62.319  1.00  0.00    -0.103 OA
HETATM   29  N   UNL     1     -44.012  60.695 -62.422  1.00  0.00    -0.083 NA
HETATM   30  C   UNL     1     -44.485  60.224 -61.269  1.00  0.00     0.201 A 
BRANCH  30  31
HETATM   31  N   UNL     1     -45.787  60.104 -60.972  1.00  0.00    -0.379 N 
HETATM   32  H   UNL     1     -46.082  59.563 -60.163  1.00  0.00     0.158 HD
HETATM   33  H   UNL     1     -46.541  60.379 -61.598  1.00  0.00     0.158 HD
ENDBRANCH  30  31
ENDBRANCH   2  26
TORSDOF 9
ENDMDL
MODEL 5
REMARK VINA RESULT:      -6.9     16.844     19.666
REMARK  9 active torsions:
REMARK  status: ('A' for Active; 'I' for Inactive)
REMARK    1  A    between atoms: C_2  and  N_3 
REMARK    2  A    between atoms: N_3  and  C_5 
REMARK    3  A    between atoms: N_3  and  C_29 
REMARK    4  A    between atoms: C_5  and  C_6 
REMARK    5  A    between atoms: N_7  and  C_8 
REMARK    6  A    between atoms: C_12  and  N_13 
REMARK    7  A    between atoms: C_16  and  C_17 
REMARK       I    between atoms: C_17  and  N_18 
REMARK    8  A    between atoms: N_18  and  N_19 
REMARK    9  A    between atoms: C_20  and  C_21 
ROOT
HETATM    1  C   UNL     1     -33.461  40.181 -54.137  1.00  0.00     0.096 A 
HETATM    2  N   UNL     1     -33.311  40.563 -55.468  1.00  0.00    -0.215 N 
HETATM    3  N   UNL     1     -31.999  40.457 -55.807  1.00  0.00     0.012 NA
HETATM    4  N   UNL     1     -31.325  39.938 -54.793  1.00  0.00    -0.152 NA
HETATM    5  C   UNL     1     -32.195  39.752 -53.760  1.00  0.00     0.170 A 
ENDROOT
BRANCH   5   6
HETATM    6  C   UNL     1     -31.820  39.182 -52.472  1.00  0.00     0.293 C 
HETATM    7  N   UNL     1     -31.667  40.113 -51.463  1.00  0.00    -0.242 N 
HETATM    8  H   UNL     1     -31.815  41.102 -51.644  1.00  0.00     0.192 HD
HETATM    9  O   UNL     1     -31.644  37.971 -52.366  1.00  0.00    -0.264 OA
BRANCH   7  10
HETATM   10  N   UNL     1     -31.358  39.684 -50.209  1.00  0.00    -0.184 NA
HETATM   11  C   UNL     1     -32.344  39.581 -49.375  1.00  0.00     0.150 C 
BRANCH  11  12
HETATM   12  C   UNL     1     -32.129  39.100 -47.996  1.00  0.00    -0.016 A 
HETATM   13  C   UNL     1     -31.101  39.631 -47.211  1.00  0.00     0.031 A 
HETATM   14  C   UNL     1     -30.909  39.151 -45.916  1.00  0.00     0.007 A 
HETATM   15  I   UNL     1     -29.375  39.927 -44.746  1.00  0.00    -0.045 I 
HETATM   16  C   UNL     1     -31.736  38.152 -45.402  1.00  0.00     0.018 A 
HETATM   17  C   UNL     1     -32.763  37.627 -46.190  1.00  0.00     0.002 A 
HETATM   18  C   UNL     1     -32.962  38.098 -47.490  1.00  0.00     0.013 A 
ENDBRANCH  11  12
ENDBRANCH   7  10
ENDBRANCH   5   6
BRANCH   1  19
HETATM   19  C   UNL     1     -34.695  40.325 -53.327  1.00  0.00     0.296 C 
BRANCH  19  20
HETATM   20  N   UNL     1     -35.076  41.743 -52.932  1.00  0.00    -0.066 N 
HETATM   21  H   UNL     1     -34.446  42.370 -53.453  1.00  0.00     0.280 HD
BRANCH  20  22
HETATM   22  C   UNL     1     -34.827  41.978 -51.447  1.00  0.00     0.231 C 
HETATM   23  C   UNL     1     -35.391  40.847 -50.606  1.00  0.00     0.034 C 
ENDBRANCH  20  22
BRANCH  20  24
HETATM   24  C   UNL     1     -36.511  42.085 -53.308  1.00  0.00     0.231 C 
HETATM   25  C   UNL     1     -37.206  40.894 -53.949  1.00  0.00     0.034 C 
ENDBRANCH  20  24
ENDBRANCH  19  20
ENDBRANCH   1  19
BRANCH   2  26
HETATM   26  C   UNL     1     -34.309  40.950 -56.392  1.00  0.00     0.225 A 
HETATM   27  N   UNL     1     -34.782  42.200 -56.376  1.00  0.00    -0.081 NA
HETATM   28  O   UNL     1     -35.742  42.201 -57.395  1.00  0.00    -0.103 OA
HETATM   29  N   UNL     1     -35.851  40.950 -57.983  1.00  0.00    -0.083 NA
HETATM   30  C   UNL     1     -34.966  40.172 -57.361  1.00  0.00     0.201 A 
BRANCH  30  31
HETATM   31  N   UNL     1     -34.757  38.878 -57.644  1.00  0.00    -0.379 N 
HETATM   32  H   UNL     1     -35.254  38.433 -58.412  1.00  0.00     0.158 HD
HETATM   33  H   UNL     1     -34.251  38.236 -57.037  1.00  0.00     0.158 HD
ENDBRANCH  30  31
ENDBRANCH   2  26
TORSDOF 9
ENDMDL
MODEL 6
REMARK VINA RESULT:      -6.9      1.713      3.090
REMARK  9 active torsions:
REMARK  status: ('A' for Active; 'I' for Inactive)
REMARK    1  A    between atoms: C_2  and  N_3 
REMARK    2  A    between atoms: N_3  and  C_5 
REMARK    3  A    between atoms: N_3  and  C_29 
REMARK    4  A    between atoms: C_5  and  C_6 
REMARK    5  A    between atoms: N_7  and  C_8 
REMARK    6  A    between atoms: C_12  and  N_13 
REMARK    7  A    between atoms: C_16  and  C_17 
REMARK       I    between atoms: C_17  and  N_18 
REMARK    8  A    between atoms: N_18  and  N_19 
REMARK    9  A    between atoms: C_20  and  C_21 
ROOT
HETATM    1  C   UNL     1     -43.950  58.174 -57.311  1.00  0.00     0.096 A 
HETATM    2  N   UNL     1     -45.031  58.766 -57.958  1.00  0.00    -0.215 N 
HETATM    3  N   UNL     1     -46.144  58.590 -57.198  1.00  0.00     0.012 NA
HETATM    4  N   UNL     1     -45.808  58.002 -56.060  1.00  0.00    -0.152 NA
HETATM    5  C   UNL     1     -44.470  57.742 -56.099  1.00  0.00     0.170 A 
ENDROOT
BRANCH   5   6
HETATM    6  C   UNL     1     -43.732  57.111 -55.012  1.00  0.00     0.293 C 
HETATM    7  N   UNL     1     -43.908  55.743 -54.927  1.00  0.00    -0.242 N 
HETATM    8  H   UNL     1     -44.508  55.257 -55.587  1.00  0.00     0.192 HD
HETATM    9  O   UNL     1     -43.049  57.797 -54.255  1.00  0.00    -0.264 OA
BRANCH   7  10
HETATM   10  N   UNL     1     -43.231  55.048 -53.973  1.00  0.00    -0.184 NA
HETATM   11  C   UNL     1     -42.161  54.430 -54.360  1.00  0.00     0.150 C 
BRANCH  11  12
HETATM   12  C   UNL     1     -41.333  53.667 -53.405  1.00  0.00    -0.016 A 
HETATM   13  C   UNL     1     -41.255  54.057 -52.064  1.00  0.00     0.031 A 
HETATM   14  C   UNL     1     -40.457  53.329 -51.183  1.00  0.00     0.007 A 
HETATM   15  I   UNL     1     -40.326  53.908 -49.190  1.00  0.00    -0.045 I 
HETATM   16  C   UNL     1     -39.742  52.217 -51.630  1.00  0.00     0.018 A 
HETATM   17  C   UNL     1     -39.825  51.831 -52.970  1.00  0.00     0.002 A 
HETATM   18  C   UNL     1     -40.619  52.556 -53.862  1.00  0.00     0.013 A 
ENDBRANCH  11  12
ENDBRANCH   7  10
ENDBRANCH   5   6
BRANCH   1  19
HETATM   19  C   UNL     1     -42.595  57.980 -57.886  1.00  0.00     0.296 C 
BRANCH  19  20
HETATM   20  N   UNL     1     -42.400  56.736 -58.737  1.00  0.00    -0.066 N 
HETATM   21  H   UNL     1     -41.490  56.337 -58.466  1.00  0.00     0.280 HD
BRANCH  20  22
HETATM   22  C   UNL     1     -42.318  57.097 -60.215  1.00  0.00     0.231 C 
HETATM   23  C   UNL     1     -41.814  58.515 -60.411  1.00  0.00     0.034 C 
ENDBRANCH  20  22
BRANCH  20  24
HETATM   24  C   UNL     1     -43.476  55.687 -58.489  1.00  0.00     0.231 C 
HETATM   25  C   UNL     1     -44.047  55.171 -59.799  1.00  0.00     0.034 C 
ENDBRANCH  20  24
ENDBRANCH  19  20
ENDBRANCH   1  19
BRANCH   2  26
HETATM   26  C   UNL     1     -45.043  59.495 -59.169  1.00  0.00     0.225 A 
HETATM   27  N   UNL     1     -45.479  58.915 -60.292  1.00  0.00    -0.081 NA
HETATM   28  O   UNL     1     -45.326  59.915 -61.259  1.00  0.00    -0.103 OA
HETATM   29  N   UNL     1     -44.777  61.064 -60.711  1.00  0.00    -0.083 NA
HETATM   30  C   UNL     1     -44.597  60.805 -59.417  1.00  0.00     0.201 A 
BRANCH  30  31
HETATM   31  N   UNL     1     -44.086  61.673 -58.530  1.00  0.00    -0.379 N 
HETATM   32  H   UNL     1     -44.605  61.914 -57.690  1.00  0.00     0.158 HD
HETATM   33  H   UNL     1     -43.271  62.255 -58.709  1.00  0.00     0.158 HD
ENDBRANCH  30  31
ENDBRANCH   2  26
TORSDOF 9
ENDMDL
MODEL 7
REMARK VINA RESULT:      -6.5     17.721     20.290
REMARK  9 active torsions:
REMARK  status: ('A' for Active; 'I' for Inactive)
REMARK    1  A    between atoms: C_2  and  N_3 
REMARK    2  A    between atoms: N_3  and  C_5 
REMARK    3  A    between atoms: N_3  and  C_29 
REMARK    4  A    between atoms: C_5  and  C_6 
REMARK    5  A    between atoms: N_7  and  C_8 
REMARK    6  A    between atoms: C_12  and  N_13 
REMARK    7  A    between atoms: C_16  and  C_17 
REMARK       I    between atoms: C_17  and  N_18 
REMARK    8  A    between atoms: N_18  and  N_19 
REMARK    9  A    between atoms: C_20  and  C_21 
ROOT
HETATM    1  C   UNL     1     -39.930  38.027 -48.777  1.00  0.00     0.096 A 
HETATM    2  N   UNL     1     -39.837  38.169 -47.396  1.00  0.00    -0.215 N 
HETATM    3  N   UNL     1     -38.552  38.476 -47.075  1.00  0.00     0.012 NA
HETATM    4  N   UNL     1     -37.849  38.630 -48.186  1.00  0.00    -0.152 NA
HETATM    5  C   UNL     1     -38.668  38.368 -49.244  1.00  0.00     0.170 A 
ENDROOT
BRANCH   5   6
HETATM    6  C   UNL     1     -38.249  38.450 -50.637  1.00  0.00     0.293 C 
HETATM    7  N   UNL     1     -38.288  39.726 -51.166  1.00  0.00    -0.242 N 
HETATM    8  H   UNL     1     -38.587  40.513 -50.598  1.00  0.00     0.192 HD
HETATM    9  O   UNL     1     -37.926  37.430 -51.241  1.00  0.00    -0.264 OA
BRANCH   7  10
HETATM   10  N   UNL     1     -37.876  39.922 -52.449  1.00  0.00    -0.184 NA
HETATM   11  C   UNL     1     -37.375  41.084 -52.722  1.00  0.00     0.150 C 
BRANCH  11  12
HETATM   12  C   UNL     1     -36.871  41.398 -54.074  1.00  0.00    -0.016 A 
HETATM   13  C   UNL     1     -37.493  40.859 -55.206  1.00  0.00     0.031 A 
HETATM   14  C   UNL     1     -36.991  41.160 -56.472  1.00  0.00     0.007 A 
HETATM   15  I   UNL     1     -37.901  40.354 -58.159  1.00  0.00    -0.045 I 
HETATM   16  C   UNL     1     -35.882  41.994 -56.614  1.00  0.00     0.018 A 
HETATM   17  C   UNL     1     -35.267  42.531 -55.480  1.00  0.00     0.002 A 
HETATM   18  C   UNL     1     -35.759  42.234 -54.207  1.00  0.00     0.013 A 
ENDBRANCH  11  12
ENDBRANCH   7  10
ENDBRANCH   5   6
BRANCH   1  19
HETATM   19  C   UNL     1     -41.110  37.516 -49.519  1.00  0.00     0.296 C 
BRANCH  19  20
HETATM   20  N   UNL     1     -42.241  38.506 -49.741  1.00  0.00    -0.066 N 
HETATM   21  H   UNL     1     -42.213  39.165 -48.950  1.00  0.00     0.280 HD
BRANCH  20  22
HETATM   22  C   UNL     1     -43.593  37.804 -49.701  1.00  0.00     0.231 C 
HETATM   23  C   UNL     1     -44.116  37.690 -48.280  1.00  0.00     0.034 C 
ENDBRANCH  20  22
BRANCH  20  24
HETATM   24  C   UNL     1     -42.075  39.299 -51.031  1.00  0.00     0.231 C 
HETATM   25  C   UNL     1     -42.482  38.469 -52.238  1.00  0.00     0.034 C 
ENDBRANCH  20  24
ENDBRANCH  19  20
ENDBRANCH   1  19
BRANCH   2  26
HETATM   26  C   UNL     1     -40.864  38.084 -46.428  1.00  0.00     0.225 A 
HETATM   27  N   UNL     1     -41.272  36.888 -45.994  1.00  0.00    -0.081 NA
HETATM   28  O   UNL     1     -42.288  37.198 -45.082  1.00  0.00    -0.103 OA
HETATM   29  N   UNL     1     -42.492  38.567 -45.005  1.00  0.00    -0.083 NA
HETATM   30  C   UNL     1     -41.613  39.118 -45.841  1.00  0.00     0.201 A 
BRANCH  30  31
HETATM   31  N   UNL     1     -41.486  40.437 -46.052  1.00  0.00    -0.379 N 
HETATM   32  H   UNL     1     -40.972  40.781 -46.859  1.00  0.00     0.158 HD
HETATM   33  H   UNL     1     -41.726  41.149 -45.365  1.00  0.00     0.158 HD
ENDBRANCH  30  31
ENDBRANCH   2  26
TORSDOF 9
ENDMDL
MODEL 8
REMARK VINA RESULT:      -6.5      4.876      8.900
REMARK  9 active torsions:
REMARK  status: ('A' for Active; 'I' for Inactive)
REMARK    1  A    between atoms: C_2  and  N_3 
REMARK    2  A    between atoms: N_3  and  C_5 
REMARK    3  A    between atoms: N_3  and  C_29 
REMARK    4  A    between atoms: C_5  and  C_6 
REMARK    5  A    between atoms: N_7  and  C_8 
REMARK    6  A    between atoms: C_12  and  N_13 
REMARK    7  A    between atoms: C_16  and  C_17 
REMARK       I    between atoms: C_17  and  N_18 
REMARK    8  A    between atoms: N_18  and  N_19 
REMARK    9  A    between atoms: C_20  and  C_21 
ROOT
HETATM    1  C   UNL     1     -41.697  57.923 -54.417  1.00  0.00     0.096 A 
HETATM    2  N   UNL     1     -41.266  58.987 -53.630  1.00  0.00    -0.215 N 
HETATM    3  N   UNL     1     -41.421  60.140 -54.332  1.00  0.00     0.012 NA
HETATM    4  N   UNL     1     -42.015  59.874 -55.484  1.00  0.00    -0.152 NA
HETATM    5  C   UNL     1     -42.204  58.526 -55.561  1.00  0.00     0.170 A 
ENDROOT
BRANCH   5   6
HETATM    6  C   UNL     1     -42.846  57.856 -56.685  1.00  0.00     0.293 C 
HETATM    7  N   UNL     1     -44.129  58.297 -56.948  1.00  0.00    -0.242 N 
HETATM    8  H   UNL     1     -44.551  59.029 -56.384  1.00  0.00     0.192 HD
HETATM    9  O   UNL     1     -42.253  56.966 -57.288  1.00  0.00    -0.264 OA
BRANCH   7  10
HETATM   10  N   UNL     1     -44.806  57.768 -58.004  1.00  0.00    -0.184 NA
HETATM   11  C   UNL     1     -45.797  58.464 -58.461  1.00  0.00     0.150 C 
BRANCH  11  12
HETATM   12  C   UNL     1     -46.585  58.000 -59.620  1.00  0.00    -0.016 A 
HETATM   13  C   UNL     1     -47.291  58.913 -60.410  1.00  0.00     0.031 A 
HETATM   14  C   UNL     1     -48.038  58.450 -61.492  1.00  0.00     0.007 A 
HETATM   15  I   UNL     1     -49.102  59.799 -62.663  1.00  0.00    -0.045 I 
HETATM   16  C   UNL     1     -48.080  57.088 -61.792  1.00  0.00     0.018 A 
HETATM   17  C   UNL     1     -47.370  56.181 -61.002  1.00  0.00     0.002 A 
HETATM   18  C   UNL     1     -46.622  56.633 -59.913  1.00  0.00     0.013 A 
ENDBRANCH  11  12
ENDBRANCH   7  10
ENDBRANCH   5   6
BRANCH   1  19
HETATM   19  C   UNL     1     -41.528  56.484 -54.099  1.00  0.00     0.296 C 
BRANCH  19  20
HETATM   20  N   UNL     1     -42.677  55.822 -53.356  1.00  0.00    -0.066 N 
HETATM   21  H   UNL     1     -43.184  56.576 -52.871  1.00  0.00     0.280 HD
BRANCH  20  22
HETATM   22  C   UNL     1     -42.155  54.865 -52.291  1.00  0.00     0.231 C 
HETATM   23  C   UNL     1     -43.283  54.328 -51.429  1.00  0.00     0.034 C 
ENDBRANCH  20  22
BRANCH  20  24
HETATM   24  C   UNL     1     -43.647  55.118 -54.295  1.00  0.00     0.231 C 
HETATM   25  C   UNL     1     -42.913  54.164 -55.224  1.00  0.00     0.034 C 
ENDBRANCH  20  24
ENDBRANCH  19  20
ENDBRANCH   1  19
BRANCH   2  26
HETATM   26  C   UNL     1     -40.791  58.963 -52.298  1.00  0.00     0.225 A 
HETATM   27  N   UNL     1     -39.493  59.165 -52.051  1.00  0.00    -0.081 NA
HETATM   28  O   UNL     1     -39.403  59.051 -50.658  1.00  0.00    -0.103 OA
HETATM   29  N   UNL     1     -40.636  58.755 -50.098  1.00  0.00    -0.083 NA
HETATM   30  C   UNL     1     -41.497  58.697 -51.113  1.00  0.00     0.201 A 
BRANCH  30  31
HETATM   31  N   UNL     1     -42.807  58.437 -50.986  1.00  0.00    -0.379 N 
HETATM   32  H   UNL     1     -43.124  57.506 -50.729  1.00  0.00     0.158 HD
HETATM   33  H   UNL     1     -43.545  59.068 -51.293  1.00  0.00     0.158 HD
ENDBRANCH  30  31
ENDBRANCH   2  26
TORSDOF 9
ENDMDL
MODEL 9
REMARK VINA RESULT:      -6.4      4.528      5.608
REMARK  9 active torsions:
REMARK  status: ('A' for Active; 'I' for Inactive)
REMARK    1  A    between atoms: C_2  and  N_3 
REMARK    2  A    between atoms: N_3  and  C_5 
REMARK    3  A    between atoms: N_3  and  C_29 
REMARK    4  A    between atoms: C_5  and  C_6 
REMARK    5  A    between atoms: N_7  and  C_8 
REMARK    6  A    between atoms: C_12  and  N_13 
REMARK    7  A    between atoms: C_16  and  C_17 
REMARK       I    between atoms: C_17  and  N_18 
REMARK    8  A    between atoms: N_18  and  N_19 
REMARK    9  A    between atoms: C_20  and  C_21 
ROOT
HETATM    1  C   UNL     1     -42.751  60.927 -53.865  1.00  0.00     0.096 A 
HETATM    2  N   UNL     1     -43.383  61.669 -54.858  1.00  0.00    -0.215 N 
HETATM    3  N   UNL     1     -42.938  61.245 -56.070  1.00  0.00     0.012 NA
HETATM    4  N   UNL     1     -42.130  60.210 -55.902  1.00  0.00    -0.152 NA
HETATM    5  C   UNL     1     -42.003  59.988 -54.562  1.00  0.00     0.170 A 
ENDROOT
BRANCH   5   6
HETATM    6  C   UNL     1     -41.200  58.916 -53.987  1.00  0.00     0.293 C 
HETATM    7  N   UNL     1     -41.679  57.647 -54.248  1.00  0.00    -0.242 N 
HETATM    8  H   UNL     1     -42.523  57.515 -54.799  1.00  0.00     0.192 HD
HETATM    9  O   UNL     1     -40.207  59.186 -53.317  1.00  0.00    -0.264 OA
BRANCH   7  10
HETATM   10  N   UNL     1     -40.981  56.570 -53.793  1.00  0.00    -0.184 NA
HETATM   11  C   UNL     1     -41.639  55.719 -53.073  1.00  0.00     0.150 C 
BRANCH  11  12
HETATM   12  C   UNL     1     -40.990  54.500 -52.550  1.00  0.00    -0.016 A 
HETATM   13  C   UNL     1     -40.760  53.403 -53.387  1.00  0.00     0.031 A 
HETATM   14  C   UNL     1     -40.158  52.258 -52.868  1.00  0.00     0.007 A 
HETATM   15  I   UNL     1     -39.823  50.619 -54.102  1.00  0.00    -0.045 I 
HETATM   16  C   UNL     1     -39.781  52.204 -51.526  1.00  0.00     0.018 A 
HETATM   17  C   UNL     1     -40.011  53.303 -50.695  1.00  0.00     0.002 A 
HETATM   18  C   UNL     1     -40.618  54.454 -51.204  1.00  0.00     0.013 A 
ENDBRANCH  11  12
ENDBRANCH   7  10
ENDBRANCH   5   6
BRANCH   1  19
HETATM   19  C   UNL     1     -42.816  61.195 -52.407  1.00  0.00     0.296 C 
BRANCH  19  20
HETATM   20  N   UNL     1     -42.699  59.984 -51.496  1.00  0.00    -0.066 N 
HETATM   21  H   UNL     1     -42.153  59.281 -52.014  1.00  0.00     0.280 HD
BRANCH  20  22
HETATM   22  C   UNL     1     -44.070  59.381 -51.217  1.00  0.00     0.231 C 
HETATM   23  C   UNL     1     -44.085  57.888 -51.494  1.00  0.00     0.034 C 
ENDBRANCH  20  22
BRANCH  20  24
HETATM   24  C   UNL     1     -41.966  60.301 -50.200  1.00  0.00     0.231 C 
HETATM   25  C   UNL     1     -40.879  59.274 -49.923  1.00  0.00     0.034 C 
ENDBRANCH  20  24
ENDBRANCH  19  20
ENDBRANCH   1  19
BRANCH   2  26
HETATM   26  C   UNL     1     -44.374  62.668 -54.717  1.00  0.00     0.225 A 
HETATM   27  N   UNL     1     -44.022  63.910 -54.369  1.00  0.00    -0.081 NA
HETATM   28  O   UNL     1     -45.242  64.594 -54.312  1.00  0.00    -0.103 OA
HETATM   29  N   UNL     1     -46.304  63.749 -54.597  1.00  0.00    -0.083 NA
HETATM   30  C   UNL     1     -45.769  62.555 -54.845  1.00  0.00     0.201 A 
BRANCH  30  31
HETATM   31  N   UNL     1     -46.470  61.458 -55.169  1.00  0.00    -0.379 N 
HETATM   32  H   UNL     1     -47.412  61.326 -54.810  1.00  0.00     0.158 HD
HETATM   33  H   UNL     1     -46.070  60.641 -55.625  1.00  0.00     0.158 HD
ENDBRANCH  30  31
ENDBRANCH   2  26
TORSDOF 9
ENDMDL
MODEL 10
REMARK VINA RESULT:      -6.1      3.938      8.888
REMARK  9 active torsions:
REMARK  status: ('A' for Active; 'I' for Inactive)
REMARK    1  A    between atoms: C_2  and  N_3 
REMARK    2  A    between atoms: N_3  and  C_5 
REMARK    3  A    between atoms: N_3  and  C_29 
REMARK    4  A    between atoms: C_5  and  C_6 
REMARK    5  A    between atoms: N_7  and  C_8 
REMARK    6  A    between atoms: C_12  and  N_13 
REMARK    7  A    between atoms: C_16  and  C_17 
REMARK       I    between atoms: C_17  and  N_18 
REMARK    8  A    between atoms: N_18  and  N_19 
REMARK    9  A    between atoms: C_20  and  C_21 
ROOT
HETATM    1  C   UNL     1     -41.723  55.639 -54.297  1.00  0.00     0.096 A 
HETATM    2  N   UNL     1     -41.775  54.269 -54.054  1.00  0.00    -0.215 N 
HETATM    3  N   UNL     1     -42.585  53.692 -54.981  1.00  0.00     0.012 NA
HETATM    4  N   UNL     1     -42.972  54.608 -55.855  1.00  0.00    -0.152 NA
HETATM    5  C   UNL     1     -42.453  55.808 -55.466  1.00  0.00     0.170 A 
ENDROOT
BRANCH   5   6
HETATM    6  C   UNL     1     -42.652  57.055 -56.194  1.00  0.00     0.293 C 
HETATM    7  N   UNL     1     -41.900  57.164 -57.347  1.00  0.00    -0.242 N 
HETATM    8  H   UNL     1     -41.275  56.414 -57.631  1.00  0.00     0.192 HD
HETATM    9  O   UNL     1     -43.418  57.907 -55.751  1.00  0.00    -0.264 OA
BRANCH   7  10
HETATM   10  N   UNL     1     -42.040  58.271 -58.126  1.00  0.00    -0.184 NA
HETATM   11  C   UNL     1     -42.684  58.116 -59.239  1.00  0.00     0.150 C 
BRANCH  11  12
HETATM   12  C   UNL     1     -42.920  59.255 -60.149  1.00  0.00    -0.016 A 
HETATM   13  C   UNL     1     -41.939  60.237 -60.325  1.00  0.00     0.031 A 
HETATM   14  C   UNL     1     -42.190  61.310 -61.179  1.00  0.00     0.007 A 
HETATM   15  I   UNL     1     -40.743  62.781 -61.439  1.00  0.00    -0.045 I 
HETATM   16  C   UNL     1     -43.405  61.406 -61.858  1.00  0.00     0.018 A 
HETATM   17  C   UNL     1     -44.380  60.421 -61.679  1.00  0.00     0.002 A 
HETATM   18  C   UNL     1     -44.141  59.343 -60.823  1.00  0.00     0.013 A 
ENDBRANCH  11  12
ENDBRANCH   7  10
ENDBRANCH   5   6
BRANCH   1  19
HETATM   19  C   UNL     1     -41.102  56.654 -53.411  1.00  0.00     0.296 C 
BRANCH  19  20
HETATM   20  N   UNL     1     -41.975  57.840 -53.037  1.00  0.00    -0.066 N 
HETATM   21  H   UNL     1     -42.773  57.833 -53.689  1.00  0.00     0.280 HD
BRANCH  20  22
HETATM   22  C   UNL     1     -41.228  59.152 -53.247  1.00  0.00     0.231 C 
HETATM   23  C   UNL     1     -42.180  60.280 -53.601  1.00  0.00     0.034 C 
ENDBRANCH  20  22
BRANCH  20  24
HETATM   24  C   UNL     1     -42.516  57.740 -51.617  1.00  0.00     0.231 C 
HETATM   25  C   UNL     1     -43.995  57.391 -51.619  1.00  0.00     0.034 C 
ENDBRANCH  20  24
ENDBRANCH  19  20
ENDBRANCH   1  19
BRANCH   2  26
HETATM   26  C   UNL     1     -41.088  53.520 -53.071  1.00  0.00     0.225 A 
HETATM   27  N   UNL     1     -40.114  52.680 -53.435  1.00  0.00    -0.081 NA
HETATM   28  O   UNL     1     -39.695  52.120 -52.222  1.00  0.00    -0.103 OA
HETATM   29  N   UNL     1     -40.439  52.609 -51.160  1.00  0.00    -0.083 NA
HETATM   30  C   UNL     1     -41.306  53.474 -51.684  1.00  0.00     0.201 A 
BRANCH  30  31
HETATM   31  N   UNL     1     -42.208  54.171 -50.977  1.00  0.00    -0.379 N 
HETATM   32  H   UNL     1     -42.302  54.023 -49.975  1.00  0.00     0.158 HD
HETATM   33  H   UNL     1     -42.944  54.737 -51.394  1.00  0.00     0.158 HD
ENDBRANCH  30  31
ENDBRANCH   2  26
TORSDOF 9
ENDMDL
