MODEL 1
REMARK VINA RESULT:      -8.2      0.000      0.000
REMARK  6 active torsions:
REMARK  status: ('A' for Active; 'I' for Inactive)
REMARK    1  A    between atoms: C_2  and  C_3 
REMARK    2  A    between atoms: C_3  and  N_4 
REMARK    3  A    between atoms: C_10  and  S_11 
REMARK    4  A    between atoms: S_11  and  C_12 
REMARK    5  A    between atoms: C_12  and  C_13 
REMARK       I    between atoms: C_13  and  N_14 
REMARK    6  A    between atoms: N_14  and  C_15 
ROOT
HETATM    1  N   UNL     1     -41.353  56.480 -51.080  1.00  0.00    -0.063 N 
HETATM    2  H   UNL     1     -41.341  56.220 -52.074  1.00  0.00     0.280 HD
HETATM    3  C   UNL     1     -42.796  56.849 -50.759  1.00  0.00     0.281 C 
HETATM    4  C   UNL     1     -43.205  58.114 -51.429  1.00  0.00     0.060 A 
HETATM    5  C   UNL     1     -42.355  58.988 -51.988  1.00  0.00     0.052 A 
HETATM    6  N   UNL     1     -42.757  60.093 -52.695  1.00  0.00    -0.228 NA
HETATM    7  C   UNL     1     -44.028  60.284 -52.824  1.00  0.00     0.169 A 
HETATM    8  N   UNL     1     -44.978  59.490 -52.265  1.00  0.00    -0.302 N 
HETATM    9  C   UNL     1     -44.650  58.390 -51.536  1.00  0.00     0.257 A 
HETATM   10  O   UNL     1     -45.466  57.650 -51.004  1.00  0.00    -0.267 OA
HETATM   11  C   UNL     1     -40.861  58.775 -51.907  1.00  0.00     0.088 C 
HETATM   12  C   UNL     1     -40.449  57.678 -50.919  1.00  0.00     0.241 C 
HETATM   13  H   UNL     1     -45.955  59.713 -52.391  1.00  0.00     0.171 HD
ENDROOT
BRANCH   7  14
HETATM   14  S   UNL     1     -44.692  61.587 -53.758  1.00  0.00    -0.083 SA
BRANCH  14  15
HETATM   15  C   UNL     1     -44.311  60.965 -55.427  1.00  0.00     0.185 C 
BRANCH  15  16
HETATM   16  C   UNL     1     -44.536  59.472 -55.608  1.00  0.00     0.231 C 
HETATM   17  N   UNL     1     -43.424  58.675 -55.419  1.00  0.00    -0.326 N 
HETATM   18  H   UNL     1     -42.547  59.168 -55.282  1.00  0.00     0.169 HD
HETATM   19  O   UNL     1     -45.672  59.067 -55.849  1.00  0.00    -0.272 OA
BRANCH  17  20
HETATM   20  C   UNL     1     -43.357  57.267 -55.462  1.00  0.00     0.037 A 
HETATM   21  C   UNL     1     -43.705  56.435 -54.395  1.00  0.00     0.075 A 
HETATM   22  C   UNL     1     -43.600  55.052 -54.526  1.00  0.00     0.157 A 
HETATM   23  F   UNL     1     -43.933  54.267 -53.491  1.00  0.00    -0.203 F 
HETATM   24  C   UNL     1     -43.151  54.485 -55.711  1.00  0.00     0.155 A 
HETATM   25  F   UNL     1     -43.051  53.155 -55.831  1.00  0.00    -0.203 F 
HETATM   26  C   UNL     1     -42.800  55.296 -56.782  1.00  0.00     0.048 A 
HETATM   27  C   UNL     1     -42.901  56.685 -56.657  1.00  0.00     0.032 A 
ENDBRANCH  17  20
ENDBRANCH  15  16
ENDBRANCH  14  15
ENDBRANCH   7  14
BRANCH   1  28
HETATM   28  C   UNL     1     -40.870  55.265 -50.326  1.00  0.00     0.273 C 
BRANCH  28  29
HETATM   29  C   UNL     1     -40.617  54.089 -51.231  1.00  0.00    -0.030 A 
HETATM   30  C   UNL     1     -40.709  54.233 -52.636  1.00  0.00     0.012 A 
HETATM   31  C   UNL     1     -40.426  53.160 -53.488  1.00  0.00     0.040 A 
HETATM   32  C   UNL     1     -40.054  51.963 -52.918  1.00  0.00     0.105 A 
HETATM   33  C   UNL     1     -39.972  51.810 -51.557  1.00  0.00     0.105 A 
HETATM   34  O   UNL     1     -39.729  50.827 -53.587  1.00  0.00    -0.323 OA
HETATM   35  C   UNL     1     -40.254  52.843 -50.688  1.00  0.00     0.048 A 
HETATM   36  O   UNL     1     -39.580  50.560 -51.197  1.00  0.00    -0.323 OA
HETATM   37  C   UNL     1     -39.433  49.934 -52.492  1.00  0.00     0.352 A 
ENDBRANCH  28  29
ENDBRANCH   1  28
TORSDOF 6
ENDMDL
MODEL 2
REMARK VINA RESULT:      -8.2      3.464      7.768
REMARK  6 active torsions:
REMARK  status: ('A' for Active; 'I' for Inactive)
REMARK    1  A    between atoms: C_2  and  C_3 
REMARK    2  A    between atoms: C_3  and  N_4 
REMARK    3  A    between atoms: C_10  and  S_11 
REMARK    4  A    between atoms: S_11  and  C_12 
REMARK    5  A    between atoms: C_12  and  C_13 
REMARK       I    between atoms: C_13  and  N_14 
REMARK    6  A    between atoms: N_14  and  C_15 
ROOT
HETATM    1  N   UNL     1     -42.273  56.780 -57.234  1.00  0.00    -0.063 N 
HETATM    2  H   UNL     1     -41.299  56.632 -56.944  1.00  0.00     0.280 HD
HETATM    3  C   UNL     1     -42.828  57.860 -56.313  1.00  0.00     0.281 C 
HETATM    4  C   UNL     1     -42.978  57.370 -54.915  1.00  0.00     0.060 A 
HETATM    5  C   UNL     1     -42.935  56.080 -54.552  1.00  0.00     0.052 A 
HETATM    6  N   UNL     1     -42.966  55.655 -53.248  1.00  0.00    -0.228 NA
HETATM    7  C   UNL     1     -43.037  56.562 -52.332  1.00  0.00     0.169 A 
HETATM    8  N   UNL     1     -43.129  57.894 -52.583  1.00  0.00    -0.302 N 
HETATM    9  C   UNL     1     -43.123  58.382 -53.853  1.00  0.00     0.257 A 
HETATM   10  O   UNL     1     -43.215  59.569 -54.132  1.00  0.00    -0.267 OA
HETATM   11  C   UNL     1     -42.799  54.988 -55.589  1.00  0.00     0.088 C 
HETATM   12  C   UNL     1     -43.006  55.476 -57.027  1.00  0.00     0.241 C 
HETATM   13  H   UNL     1     -43.203  58.545 -51.815  1.00  0.00     0.171 HD
ENDROOT
BRANCH   7  14
HETATM   14  S   UNL     1     -43.001  56.190 -50.637  1.00  0.00    -0.083 SA
BRANCH  14  15
HETATM   15  C   UNL     1     -41.197  56.174 -50.386  1.00  0.00     0.185 C 
BRANCH  15  16
HETATM   16  C   UNL     1     -40.553  54.806 -50.546  1.00  0.00     0.231 C 
HETATM   17  N   UNL     1     -40.928  54.099 -51.672  1.00  0.00    -0.326 N 
HETATM   18  H   UNL     1     -41.671  54.514 -52.225  1.00  0.00     0.169 HD
HETATM   19  O   UNL     1     -39.719  54.442 -49.719  1.00  0.00    -0.272 OA
BRANCH  17  20
HETATM   20  C   UNL     1     -40.447  52.844 -52.100  1.00  0.00     0.037 A 
HETATM   21  C   UNL     1     -39.976  51.852 -51.236  1.00  0.00     0.075 A 
HETATM   22  C   UNL     1     -39.512  50.643 -51.751  1.00  0.00     0.157 A 
HETATM   23  F   UNL     1     -39.058  49.703 -50.910  1.00  0.00    -0.203 F 
HETATM   24  C   UNL     1     -39.513  50.409 -53.119  1.00  0.00     0.155 A 
HETATM   25  F   UNL     1     -39.065  49.245 -53.608  1.00  0.00    -0.203 F 
HETATM   26  C   UNL     1     -39.978  51.383 -53.992  1.00  0.00     0.048 A 
HETATM   27  C   UNL     1     -40.442  52.600 -53.483  1.00  0.00     0.032 A 
ENDBRANCH  17  20
ENDBRANCH  15  16
ENDBRANCH  14  15
ENDBRANCH   7  14
BRANCH   1  28
HETATM   28  C   UNL     1     -42.217  57.206 -58.681  1.00  0.00     0.273 C 
BRANCH  28  29
HETATM   29  C   UNL     1     -43.456  56.816 -59.443  1.00  0.00    -0.030 A 
HETATM   30  C   UNL     1     -43.578  55.520 -59.999  1.00  0.00     0.012 A 
HETATM   31  C   UNL     1     -44.746  55.131 -60.664  1.00  0.00     0.040 A 
HETATM   32  C   UNL     1     -45.772  56.045 -60.757  1.00  0.00     0.105 A 
HETATM   33  C   UNL     1     -45.660  57.307 -60.230  1.00  0.00     0.105 A 
HETATM   34  O   UNL     1     -46.976  55.836 -61.349  1.00  0.00    -0.323 OA
HETATM   35  C   UNL     1     -44.520  57.728 -59.578  1.00  0.00     0.048 A 
HETATM   36  O   UNL     1     -46.781  58.051 -60.419  1.00  0.00    -0.323 OA
HETATM   37  C   UNL     1     -47.615  57.113 -61.138  1.00  0.00     0.352 A 
ENDBRANCH  28  29
ENDBRANCH   1  28
TORSDOF 6
ENDMDL
MODEL 3
REMARK VINA RESULT:      -8.2      3.386      7.208
REMARK  6 active torsions:
REMARK  status: ('A' for Active; 'I' for Inactive)
REMARK    1  A    between atoms: C_2  and  C_3 
REMARK    2  A    between atoms: C_3  and  N_4 
REMARK    3  A    between atoms: C_10  and  S_11 
REMARK    4  A    between atoms: S_11  and  C_12 
REMARK    5  A    between atoms: C_12  and  C_13 
REMARK       I    between atoms: C_13  and  N_14 
REMARK    6  A    between atoms: N_14  and  C_15 
ROOT
HETATM    1  N   UNL     1     -43.134  58.478 -55.678  1.00  0.00    -0.063 N 
HETATM    2  H   UNL     1     -42.867  57.518 -55.923  1.00  0.00     0.280 HD
HETATM    3  C   UNL     1     -41.982  59.041 -54.856  1.00  0.00     0.281 C 
HETATM    4  C   UNL     1     -41.882  58.385 -53.523  1.00  0.00     0.060 A 
HETATM    5  C   UNL     1     -42.842  57.626 -52.975  1.00  0.00     0.052 A 
HETATM    6  N   UNL     1     -42.690  56.941 -51.796  1.00  0.00    -0.228 NA
HETATM    7  C   UNL     1     -41.551  57.041 -51.196  1.00  0.00     0.169 A 
HETATM    8  N   UNL     1     -40.523  57.813 -51.636  1.00  0.00    -0.302 N 
HETATM    9  C   UNL     1     -40.613  58.533 -52.786  1.00  0.00     0.257 A 
HETATM   10  O   UNL     1     -39.723  59.251 -53.219  1.00  0.00    -0.267 OA
HETATM   11  C   UNL     1     -44.172  57.438 -53.669  1.00  0.00     0.088 C 
HETATM   12  C   UNL     1     -44.391  58.396 -54.846  1.00  0.00     0.241 C 
HETATM   13  H   UNL     1     -39.667  57.860 -51.102  1.00  0.00     0.171 HD
ENDROOT
BRANCH   7  14
HETATM   14  S   UNL     1     -41.175  56.171 -49.742  1.00  0.00    -0.083 SA
BRANCH  14  15
HETATM   15  C   UNL     1     -42.416  54.845 -49.874  1.00  0.00     0.185 C 
BRANCH  15  16
HETATM   16  C   UNL     1     -42.202  53.898 -51.044  1.00  0.00     0.231 C 
HETATM   17  N   UNL     1     -40.955  53.308 -51.113  1.00  0.00    -0.326 N 
HETATM   18  H   UNL     1     -40.272  53.642 -50.440  1.00  0.00     0.169 HD
HETATM   19  O   UNL     1     -43.141  53.676 -51.807  1.00  0.00    -0.272 OA
BRANCH  17  20
HETATM   20  C   UNL     1     -40.505  52.352 -52.047  1.00  0.00     0.037 A 
HETATM   21  C   UNL     1     -40.025  51.087 -51.700  1.00  0.00     0.075 A 
HETATM   22  C   UNL     1     -39.594  50.209 -52.692  1.00  0.00     0.157 A 
HETATM   23  F   UNL     1     -39.130  49.000 -52.343  1.00  0.00    -0.203 F 
HETATM   24  C   UNL     1     -39.637  50.576 -54.030  1.00  0.00     0.155 A 
HETATM   25  F   UNL     1     -39.221  49.728 -54.980  1.00  0.00    -0.203 F 
HETATM   26  C   UNL     1     -40.112  51.829 -54.394  1.00  0.00     0.048 A 
HETATM   27  C   UNL     1     -40.544  52.716 -53.403  1.00  0.00     0.032 A 
ENDBRANCH  17  20
ENDBRANCH  15  16
ENDBRANCH  14  15
ENDBRANCH   7  14
BRANCH   1  28
HETATM   28  C   UNL     1     -43.336  59.201 -56.988  1.00  0.00     0.273 C 
BRANCH  28  29
HETATM   29  C   UNL     1     -43.525  58.253 -58.143  1.00  0.00    -0.030 A 
HETATM   30  C   UNL     1     -42.409  57.789 -58.880  1.00  0.00     0.012 A 
HETATM   31  C   UNL     1     -42.569  56.869 -59.922  1.00  0.00     0.040 A 
HETATM   32  C   UNL     1     -43.843  56.427 -60.204  1.00  0.00     0.105 A 
HETATM   33  C   UNL     1     -44.932  56.879 -59.503  1.00  0.00     0.105 A 
HETATM   34  O   UNL     1     -44.181  55.528 -61.164  1.00  0.00    -0.323 OA
HETATM   35  C   UNL     1     -44.813  57.794 -58.478  1.00  0.00     0.048 A 
HETATM   36  O   UNL     1     -46.094  56.317 -59.928  1.00  0.00    -0.323 OA
HETATM   37  C   UNL     1     -45.612  55.463 -60.992  1.00  0.00     0.352 A 
ENDBRANCH  28  29
ENDBRANCH   1  28
TORSDOF 6
ENDMDL
MODEL 4
REMARK VINA RESULT:      -8.1      2.221      4.180
REMARK  6 active torsions:
REMARK  status: ('A' for Active; 'I' for Inactive)
REMARK    1  A    between atoms: C_2  and  C_3 
REMARK    2  A    between atoms: C_3  and  N_4 
REMARK    3  A    between atoms: C_10  and  S_11 
REMARK    4  A    between atoms: S_11  and  C_12 
REMARK    5  A    between atoms: C_12  and  C_13 
REMARK       I    between atoms: C_13  and  N_14 
REMARK    6  A    between atoms: N_14  and  C_15 
ROOT
HETATM    1  N   UNL     1     -41.401  55.188 -55.070  1.00  0.00    -0.063 N 
HETATM    2  H   UNL     1     -41.932  54.907 -54.238  1.00  0.00     0.280 HD
HETATM    3  C   UNL     1     -40.759  56.527 -54.729  1.00  0.00     0.281 C 
HETATM    4  C   UNL     1     -41.772  57.611 -54.613  1.00  0.00     0.060 A 
HETATM    5  C   UNL     1     -43.038  57.520 -55.046  1.00  0.00     0.052 A 
HETATM    6  N   UNL     1     -43.986  58.488 -54.832  1.00  0.00    -0.228 NA
HETATM    7  C   UNL     1     -43.624  59.537 -54.173  1.00  0.00     0.169 A 
HETATM    8  N   UNL     1     -42.360  59.756 -53.724  1.00  0.00    -0.302 N 
HETATM    9  C   UNL     1     -41.367  58.847 -53.917  1.00  0.00     0.257 A 
HETATM   10  O   UNL     1     -40.213  59.001 -53.543  1.00  0.00    -0.267 OA
HETATM   11  C   UNL     1     -43.519  56.287 -55.777  1.00  0.00     0.088 C 
HETATM   12  C   UNL     1     -42.388  55.344 -56.202  1.00  0.00     0.241 C 
HETATM   13  H   UNL     1     -42.144  60.611 -53.232  1.00  0.00     0.171 HD
ENDROOT
BRANCH   7  14
HETATM   14  S   UNL     1     -44.726  60.809 -53.750  1.00  0.00    -0.083 SA
BRANCH  14  15
HETATM   15  C   UNL     1     -45.691  59.939 -52.473  1.00  0.00     0.185 C 
BRANCH  15  16
HETATM   16  C   UNL     1     -44.852  59.132 -51.494  1.00  0.00     0.231 C 
HETATM   17  N   UNL     1     -44.585  57.830 -51.871  1.00  0.00    -0.326 N 
HETATM   18  H   UNL     1     -45.058  57.508 -52.710  1.00  0.00     0.169 HD
HETATM   19  O   UNL     1     -44.428  59.683 -50.480  1.00  0.00    -0.272 OA
BRANCH  17  20
HETATM   20  C   UNL     1     -43.789  56.884 -51.193  1.00  0.00     0.037 A 
HETATM   21  C   UNL     1     -42.428  57.055 -50.926  1.00  0.00     0.075 A 
HETATM   22  C   UNL     1     -41.719  56.061 -50.255  1.00  0.00     0.157 A 
HETATM   23  F   UNL     1     -40.413  56.237 -50.011  1.00  0.00    -0.203 F 
HETATM   24  C   UNL     1     -42.351  54.896 -49.843  1.00  0.00     0.155 A 
HETATM   25  F   UNL     1     -41.665  53.943 -49.199  1.00  0.00    -0.203 F 
HETATM   26  C   UNL     1     -43.703  54.708 -50.099  1.00  0.00     0.048 A 
HETATM   27  C   UNL     1     -44.421  55.701 -50.775  1.00  0.00     0.032 A 
ENDBRANCH  17  20
ENDBRANCH  15  16
ENDBRANCH  14  15
ENDBRANCH   7  14
BRANCH   1  28
HETATM   28  C   UNL     1     -40.392  54.090 -55.310  1.00  0.00     0.273 C 
BRANCH  28  29
HETATM   29  C   UNL     1     -40.189  53.222 -54.096  1.00  0.00    -0.030 A 
HETATM   30  C   UNL     1     -40.285  53.773 -52.796  1.00  0.00     0.012 A 
HETATM   31  C   UNL     1     -40.149  52.965 -51.662  1.00  0.00     0.040 A 
HETATM   32  C   UNL     1     -39.923  51.620 -51.850  1.00  0.00     0.105 A 
HETATM   33  C   UNL     1     -39.818  51.078 -53.106  1.00  0.00     0.105 A 
HETATM   34  O   UNL     1     -39.782  50.689 -50.871  1.00  0.00    -0.323 OA
HETATM   35  C   UNL     1     -39.935  51.846 -54.246  1.00  0.00     0.048 A 
HETATM   36  O   UNL     1     -39.603  49.736 -53.078  1.00  0.00    -0.323 OA
HETATM   37  C   UNL     1     -39.574  49.493 -51.652  1.00  0.00     0.352 A 
ENDBRANCH  28  29
ENDBRANCH   1  28
TORSDOF 6
ENDMDL
MODEL 5
REMARK VINA RESULT:      -8.1      3.473      7.770
REMARK  6 active torsions:
REMARK  status: ('A' for Active; 'I' for Inactive)
REMARK    1  A    between atoms: C_2  and  C_3 
REMARK    2  A    between atoms: C_3  and  N_4 
REMARK    3  A    between atoms: C_10  and  S_11 
REMARK    4  A    between atoms: S_11  and  C_12 
REMARK    5  A    between atoms: C_12  and  C_13 
REMARK       I    between atoms: C_13  and  N_14 
REMARK    6  A    between atoms: N_14  and  C_15 
ROOT
HETATM    1  N   UNL     1     -43.297  57.084 -56.744  1.00  0.00    -0.063 N 
HETATM    2  H   UNL     1     -42.557  57.794 -56.791  1.00  0.00     0.280 HD
HETATM    3  C   UNL     1     -44.119  57.412 -55.503  1.00  0.00     0.281 C 
HETATM    4  C   UNL     1     -43.352  57.163 -54.252  1.00  0.00     0.060 A 
HETATM    5  C   UNL     1     -42.214  56.457 -54.185  1.00  0.00     0.052 A 
HETATM    6  N   UNL     1     -41.465  56.330 -53.042  1.00  0.00    -0.228 NA
HETATM    7  C   UNL     1     -41.892  56.933 -51.983  1.00  0.00     0.169 A 
HETATM    8  N   UNL     1     -43.052  57.638 -51.924  1.00  0.00    -0.302 N 
HETATM    9  C   UNL     1     -43.852  57.789 -53.014  1.00  0.00     0.257 A 
HETATM   10  O   UNL     1     -44.909  58.404 -53.010  1.00  0.00    -0.267 OA
HETATM   11  C   UNL     1     -41.649  55.779 -55.412  1.00  0.00     0.088 C 
HETATM   12  C   UNL     1     -42.622  55.742 -56.596  1.00  0.00     0.241 C 
HETATM   13  H   UNL     1     -43.334  58.067 -51.054  1.00  0.00     0.171 HD
ENDROOT
BRANCH   7  14
HETATM   14  S   UNL     1     -41.015  56.937 -50.486  1.00  0.00    -0.083 SA
BRANCH  14  15
HETATM   15  C   UNL     1     -41.634  55.372 -49.788  1.00  0.00     0.185 C 
BRANCH  15  16
HETATM   16  C   UNL     1     -41.698  54.223 -50.782  1.00  0.00     0.231 C 
HETATM   17  N   UNL     1     -40.479  53.762 -51.240  1.00  0.00    -0.326 N 
HETATM   18  H   UNL     1     -39.668  54.300 -50.951  1.00  0.00     0.169 HD
HETATM   19  O   UNL     1     -42.795  53.749 -51.071  1.00  0.00    -0.272 OA
BRANCH  17  20
HETATM   20  C   UNL     1     -40.240  52.679 -52.111  1.00  0.00     0.037 A 
HETATM   21  C   UNL     1     -39.836  51.410 -51.687  1.00  0.00     0.075 A 
HETATM   22  C   UNL     1     -39.616  50.400 -52.622  1.00  0.00     0.157 A 
HETATM   23  F   UNL     1     -39.224  49.190 -52.200  1.00  0.00    -0.203 F 
HETATM   24  C   UNL     1     -39.796  50.639 -53.977  1.00  0.00     0.155 A 
HETATM   25  F   UNL     1     -39.582  49.665 -54.871  1.00  0.00    -0.203 F 
HETATM   26  C   UNL     1     -40.198  51.894 -54.417  1.00  0.00     0.048 A 
HETATM   27  C   UNL     1     -40.417  52.913 -53.484  1.00  0.00     0.032 A 
ENDBRANCH  17  20
ENDBRANCH  15  16
ENDBRANCH  14  15
ENDBRANCH   7  14
BRANCH   1  28
HETATM   28  C   UNL     1     -44.083  57.215 -58.027  1.00  0.00     0.273 C 
BRANCH  28  29
HETATM   29  C   UNL     1     -43.564  58.321 -58.907  1.00  0.00    -0.030 A 
HETATM   30  C   UNL     1     -44.114  58.532 -60.194  1.00  0.00     0.012 A 
HETATM   31  C   UNL     1     -43.675  59.589 -60.999  1.00  0.00     0.040 A 
HETATM   32  C   UNL     1     -42.694  60.417 -60.499  1.00  0.00     0.105 A 
HETATM   33  C   UNL     1     -42.147  60.215 -59.258  1.00  0.00     0.105 A 
HETATM   34  O   UNL     1     -42.162  61.495 -61.130  1.00  0.00    -0.323 OA
HETATM   35  C   UNL     1     -42.548  59.177 -58.442  1.00  0.00     0.048 A 
HETATM   36  O   UNL     1     -41.204  61.143 -58.947  1.00  0.00    -0.323 OA
HETATM   37  C   UNL     1     -41.211  61.952 -60.146  1.00  0.00     0.352 A 
ENDBRANCH  28  29
ENDBRANCH   1  28
TORSDOF 6
ENDMDL
MODEL 6
REMARK VINA RESULT:      -8.0      1.005      1.465
REMARK  6 active torsions:
REMARK  status: ('A' for Active; 'I' for Inactive)
REMARK    1  A    between atoms: C_2  and  C_3 
REMARK    2  A    between atoms: C_3  and  N_4 
REMARK    3  A    between atoms: C_10  and  S_11 
REMARK    4  A    between atoms: S_11  and  C_12 
REMARK    5  A    between atoms: C_12  and  C_13 
REMARK       I    between atoms: C_13  and  N_14 
REMARK    6  A    between atoms: N_14  and  C_15 
ROOT
HETATM    1  N   UNL     1     -41.555  57.034 -51.061  1.00  0.00    -0.063 N 
HETATM    2  H   UNL     1     -41.463  56.649 -52.008  1.00  0.00     0.280 HD
HETATM    3  C   UNL     1     -42.929  57.690 -51.003  1.00  0.00     0.281 C 
HETATM    4  C   UNL     1     -42.995  58.910 -51.854  1.00  0.00     0.060 A 
HETATM    5  C   UNL     1     -41.927  59.540 -52.363  1.00  0.00     0.052 A 
HETATM    6  N   UNL     1     -42.012  60.598 -53.233  1.00  0.00    -0.228 NA
HETATM    7  C   UNL     1     -43.194  60.992 -53.573  1.00  0.00     0.169 A 
HETATM    8  N   UNL     1     -44.344  60.456 -53.088  1.00  0.00    -0.302 N 
HETATM    9  C   UNL     1     -44.333  59.419 -52.208  1.00  0.00     0.257 A 
HETATM   10  O   UNL     1     -45.338  58.909 -51.734  1.00  0.00    -0.267 OA
HETATM   11  C   UNL     1     -40.525  59.080 -52.034  1.00  0.00     0.088 C 
HETATM   12  C   UNL     1     -40.465  58.065 -50.887  1.00  0.00     0.241 C 
HETATM   13  H   UNL     1     -45.235  60.830 -53.383  1.00  0.00     0.171 HD
ENDROOT
BRANCH   7  14
HETATM   14  S   UNL     1     -43.466  62.259 -54.727  1.00  0.00    -0.083 SA
BRANCH  14  15
HETATM   15  C   UNL     1     -43.229  61.306 -56.260  1.00  0.00     0.185 C 
BRANCH  15  16
HETATM   16  C   UNL     1     -43.723  59.869 -56.190  1.00  0.00     0.231 C 
HETATM   17  N   UNL     1     -42.741  58.909 -56.043  1.00  0.00    -0.326 N 
HETATM   18  H   UNL     1     -41.784  59.244 -56.101  1.00  0.00     0.169 HD
HETATM   19  O   UNL     1     -44.933  59.656 -56.211  1.00  0.00    -0.272 OA
BRANCH  17  20
HETATM   20  C   UNL     1     -42.914  57.518 -55.890  1.00  0.00     0.037 A 
HETATM   21  C   UNL     1     -43.305  56.905 -54.697  1.00  0.00     0.075 A 
HETATM   22  C   UNL     1     -43.444  55.520 -54.637  1.00  0.00     0.157 A 
HETATM   23  F   UNL     1     -43.815  54.947 -53.483  1.00  0.00    -0.203 F 
HETATM   24  C   UNL     1     -43.198  54.735 -55.754  1.00  0.00     0.155 A 
HETATM   25  F   UNL     1     -43.332  53.404 -55.691  1.00  0.00    -0.203 F 
HETATM   26  C   UNL     1     -42.808  55.326 -56.949  1.00  0.00     0.048 A 
HETATM   27  C   UNL     1     -42.664  56.716 -57.016  1.00  0.00     0.032 A 
ENDBRANCH  17  20
ENDBRANCH  15  16
ENDBRANCH  14  15
ENDBRANCH   7  14
BRANCH   1  28
HETATM   28  C   UNL     1     -41.417  55.861 -50.120  1.00  0.00     0.273 C 
BRANCH  28  29
HETATM   29  C   UNL     1     -40.922  54.621 -50.817  1.00  0.00    -0.030 A 
HETATM   30  C   UNL     1     -40.478  53.506 -50.068  1.00  0.00     0.012 A 
HETATM   31  C   UNL     1     -40.065  52.331 -50.706  1.00  0.00     0.040 A 
HETATM   32  C   UNL     1     -40.107  52.293 -52.082  1.00  0.00     0.105 A 
HETATM   33  C   UNL     1     -40.526  53.372 -52.817  1.00  0.00     0.105 A 
HETATM   34  O   UNL     1     -39.761  51.237 -52.862  1.00  0.00    -0.323 OA
HETATM   35  C   UNL     1     -40.929  54.550 -52.223  1.00  0.00     0.048 A 
HETATM   36  O   UNL     1     -40.502  53.131 -54.155  1.00  0.00    -0.323 OA
HETATM   37  C   UNL     1     -40.007  51.773 -54.179  1.00  0.00     0.352 A 
ENDBRANCH  28  29
ENDBRANCH   1  28
TORSDOF 6
ENDMDL
MODEL 7
REMARK VINA RESULT:      -7.9      2.606      3.148
REMARK  6 active torsions:
REMARK  status: ('A' for Active; 'I' for Inactive)
REMARK    1  A    between atoms: C_2  and  C_3 
REMARK    2  A    between atoms: C_3  and  N_4 
REMARK    3  A    between atoms: C_10  and  S_11 
REMARK    4  A    between atoms: S_11  and  C_12 
REMARK    5  A    between atoms: C_12  and  C_13 
REMARK       I    between atoms: C_13  and  N_14 
REMARK    6  A    between atoms: N_14  and  C_15 
ROOT
HETATM    1  N   UNL     1     -41.546  55.264 -51.694  1.00  0.00    -0.063 N 
HETATM    2  H   UNL     1     -42.001  54.659 -52.388  1.00  0.00     0.280 HD
HETATM    3  C   UNL     1     -42.656  56.102 -51.072  1.00  0.00     0.281 C 
HETATM    4  C   UNL     1     -43.214  57.085 -52.040  1.00  0.00     0.060 A 
HETATM    5  C   UNL     1     -42.635  57.422 -53.202  1.00  0.00     0.052 A 
HETATM    6  N   UNL     1     -43.217  58.247 -54.130  1.00  0.00    -0.228 NA
HETATM    7  C   UNL     1     -44.390  58.713 -53.857  1.00  0.00     0.169 A 
HETATM    8  N   UNL     1     -45.053  58.473 -52.695  1.00  0.00    -0.302 N 
HETATM    9  C   UNL     1     -44.526  57.680 -51.724  1.00  0.00     0.257 A 
HETATM   10  O   UNL     1     -45.076  57.443 -50.658  1.00  0.00    -0.267 OA
HETATM   11  C   UNL     1     -41.286  56.859 -53.586  1.00  0.00     0.088 C 
HETATM   12  C   UNL     1     -40.568  56.143 -52.437  1.00  0.00     0.241 C 
HETATM   13  H   UNL     1     -45.960  58.889 -52.541  1.00  0.00     0.171 HD
ENDROOT
BRANCH   7  14
HETATM   14  S   UNL     1     -45.291  59.700 -54.964  1.00  0.00    -0.083 SA
BRANCH  14  15
HETATM   15  C   UNL     1     -43.960  60.095 -56.143  1.00  0.00     0.185 C 
BRANCH  15  16
HETATM   16  C   UNL     1     -44.073  59.380 -57.480  1.00  0.00     0.231 C 
HETATM   17  N   UNL     1     -44.363  58.031 -57.411  1.00  0.00    -0.326 N 
HETATM   18  H   UNL     1     -44.369  57.629 -56.479  1.00  0.00     0.169 HD
HETATM   19  O   UNL     1     -43.957  60.034 -58.515  1.00  0.00    -0.272 OA
BRANCH  17  20
HETATM   20  C   UNL     1     -44.582  57.142 -58.484  1.00  0.00     0.037 A 
HETATM   21  C   UNL     1     -45.786  57.049 -59.187  1.00  0.00     0.075 A 
HETATM   22  C   UNL     1     -45.915  56.134 -60.230  1.00  0.00     0.157 A 
HETATM   23  F   UNL     1     -47.078  56.052 -60.892  1.00  0.00    -0.203 F 
HETATM   24  C   UNL     1     -44.855  55.310 -60.584  1.00  0.00     0.155 A 
HETATM   25  F   UNL     1     -44.985  54.432 -61.587  1.00  0.00    -0.203 F 
HETATM   26  C   UNL     1     -43.651  55.389 -59.896  1.00  0.00     0.048 A 
HETATM   27  C   UNL     1     -43.516  56.303 -58.846  1.00  0.00     0.032 A 
ENDBRANCH  17  20
ENDBRANCH  15  16
ENDBRANCH  14  15
ENDBRANCH   7  14
BRANCH   1  28
HETATM   28  C   UNL     1     -40.879  54.337 -50.707  1.00  0.00     0.273 C 
BRANCH  28  29
HETATM   29  C   UNL     1     -40.462  53.033 -51.334  1.00  0.00    -0.030 A 
HETATM   30  C   UNL     1     -40.119  51.924 -50.525  1.00  0.00     0.012 A 
HETATM   31  C   UNL     1     -39.780  50.693 -51.099  1.00  0.00     0.040 A 
HETATM   32  C   UNL     1     -39.796  50.595 -52.472  1.00  0.00     0.105 A 
HETATM   33  C   UNL     1     -40.117  51.666 -53.266  1.00  0.00     0.105 A 
HETATM   34  O   UNL     1     -39.513  49.481 -53.195  1.00  0.00    -0.323 OA
HETATM   35  C   UNL     1     -40.445  52.896 -52.736  1.00  0.00     0.048 A 
HETATM   36  O   UNL     1     -40.083  51.362 -54.590  1.00  0.00    -0.323 OA
HETATM   37  C   UNL     1     -39.690  49.971 -54.541  1.00  0.00     0.352 A 
ENDBRANCH  28  29
ENDBRANCH   1  28
TORSDOF 6
ENDMDL
MODEL 8
REMARK VINA RESULT:      -7.9      3.370      7.299
REMARK  6 active torsions:
REMARK  status: ('A' for Active; 'I' for Inactive)
REMARK    1  A    between atoms: C_2  and  C_3 
REMARK    2  A    between atoms: C_3  and  N_4 
REMARK    3  A    between atoms: C_10  and  S_11 
REMARK    4  A    between atoms: S_11  and  C_12 
REMARK    5  A    between atoms: C_12  and  C_13 
REMARK       I    between atoms: C_13  and  N_14 
REMARK    6  A    between atoms: N_14  and  C_15 
ROOT
HETATM    1  N   UNL     1     -43.909  58.969 -56.372  1.00  0.00    -0.063 N 
HETATM    2  H   UNL     1     -42.966  58.773 -56.728  1.00  0.00     0.280 HD
HETATM    3  C   UNL     1     -43.740  60.025 -55.286  1.00  0.00     0.281 C 
HETATM    4  C   UNL     1     -43.050  59.477 -54.086  1.00  0.00     0.060 A 
HETATM    5  C   UNL     1     -42.870  58.171 -53.842  1.00  0.00     0.052 A 
HETATM    6  N   UNL     1     -42.136  57.690 -52.787  1.00  0.00    -0.228 NA
HETATM    7  C   UNL     1     -41.594  58.556 -51.998  1.00  0.00     0.169 A 
HETATM    8  N   UNL     1     -41.744  59.900 -52.124  1.00  0.00    -0.302 N 
HETATM    9  C   UNL     1     -42.473  60.445 -53.135  1.00  0.00     0.257 A 
HETATM   10  O   UNL     1     -42.647  61.646 -53.286  1.00  0.00    -0.267 OA
HETATM   11  C   UNL     1     -43.443  57.123 -54.768  1.00  0.00     0.088 C 
HETATM   12  C   UNL     1     -44.443  57.684 -55.786  1.00  0.00     0.241 C 
HETATM   13  H   UNL     1     -41.306  60.518 -51.456  1.00  0.00     0.171 HD
ENDROOT
BRANCH   7  14
HETATM   14  S   UNL     1     -40.570  58.106 -50.671  1.00  0.00    -0.083 SA
BRANCH  14  15
HETATM   15  C   UNL     1     -41.447  56.606 -50.128  1.00  0.00     0.185 C 
BRANCH  15  16
HETATM   16  C   UNL     1     -40.743  55.304 -50.480  1.00  0.00     0.231 C 
HETATM   17  N   UNL     1     -41.150  54.706 -51.657  1.00  0.00    -0.326 N 
HETATM   18  H   UNL     1     -41.947  55.135 -52.116  1.00  0.00     0.169 HD
HETATM   19  O   UNL     1     -39.842  54.900 -49.748  1.00  0.00    -0.272 OA
BRANCH  17  20
HETATM   20  C   UNL     1     -40.632  53.538 -52.252  1.00  0.00     0.037 A 
HETATM   21  C   UNL     1     -40.107  52.461 -51.532  1.00  0.00     0.075 A 
HETATM   22  C   UNL     1     -39.609  51.348 -52.207  1.00  0.00     0.157 A 
HETATM   23  F   UNL     1     -39.104  50.326 -51.503  1.00  0.00    -0.203 F 
HETATM   24  C   UNL     1     -39.629  51.293 -53.594  1.00  0.00     0.155 A 
HETATM   25  F   UNL     1     -39.149  50.222 -54.237  1.00  0.00    -0.203 F 
HETATM   26  C   UNL     1     -40.147  52.354 -54.326  1.00  0.00     0.048 A 
HETATM   27  C   UNL     1     -40.646  53.475 -53.655  1.00  0.00     0.032 A 
ENDBRANCH  17  20
ENDBRANCH  15  16
ENDBRANCH  14  15
ENDBRANCH   7  14
BRANCH   1  28
HETATM   28  C   UNL     1     -44.708  59.458 -57.556  1.00  0.00     0.273 C 
BRANCH  28  29
HETATM   29  C   UNL     1     -45.164  58.332 -58.445  1.00  0.00    -0.030 A 
HETATM   30  C   UNL     1     -46.542  58.048 -58.594  1.00  0.00     0.012 A 
HETATM   31  C   UNL     1     -46.978  57.037 -59.458  1.00  0.00     0.040 A 
HETATM   32  C   UNL     1     -46.026  56.331 -60.160  1.00  0.00     0.105 A 
HETATM   33  C   UNL     1     -44.687  56.592 -60.015  1.00  0.00     0.105 A 
HETATM   34  O   UNL     1     -46.266  55.333 -61.049  1.00  0.00    -0.323 OA
HETATM   35  C   UNL     1     -44.221  57.573 -59.164  1.00  0.00     0.048 A 
HETATM   36  O   UNL     1     -43.914  55.795 -60.798  1.00  0.00    -0.323 OA
HETATM   37  C   UNL     1     -44.923  54.989 -61.450  1.00  0.00     0.352 A 
ENDBRANCH  28  29
ENDBRANCH   1  28
TORSDOF 6
ENDMDL
MODEL 9
REMARK VINA RESULT:      -7.7      4.925      7.084
REMARK  6 active torsions:
REMARK  status: ('A' for Active; 'I' for Inactive)
REMARK    1  A    between atoms: C_2  and  C_3 
REMARK    2  A    between atoms: C_3  and  N_4 
REMARK    3  A    between atoms: C_10  and  S_11 
REMARK    4  A    between atoms: S_11  and  C_12 
REMARK    5  A    between atoms: C_12  and  C_13 
REMARK       I    between atoms: C_13  and  N_14 
REMARK    6  A    between atoms: N_14  and  C_15 
ROOT
HETATM    1  N   UNL     1     -41.251  55.074 -54.057  1.00  0.00    -0.063 N 
HETATM    2  H   UNL     1     -41.276  54.793 -53.070  1.00  0.00     0.280 HD
HETATM    3  C   UNL     1     -40.833  56.539 -54.068  1.00  0.00     0.281 C 
HETATM    4  C   UNL     1     -41.894  57.421 -53.508  1.00  0.00     0.060 A 
HETATM    5  C   UNL     1     -43.165  57.046 -53.305  1.00  0.00     0.052 A 
HETATM    6  N   UNL     1     -44.101  57.837 -52.688  1.00  0.00    -0.228 NA
HETATM    7  C   UNL     1     -43.719  59.002 -52.283  1.00  0.00     0.169 A 
HETATM    8  N   UNL     1     -42.470  59.502 -52.474  1.00  0.00    -0.302 N 
HETATM    9  C   UNL     1     -41.499  58.780 -53.094  1.00  0.00     0.257 A 
HETATM   10  O   UNL     1     -40.365  59.188 -53.299  1.00  0.00    -0.267 OA
HETATM   11  C   UNL     1     -43.643  55.672 -53.714  1.00  0.00     0.088 C 
HETATM   12  C   UNL     1     -42.650  54.916 -54.604  1.00  0.00     0.241 C 
HETATM   13  H   UNL     1     -42.248  60.432 -52.148  1.00  0.00     0.171 HD
ENDROOT
BRANCH   7  14
HETATM   14  S   UNL     1     -44.761  60.083 -51.413  1.00  0.00    -0.083 SA
BRANCH  14  15
HETATM   15  C   UNL     1     -43.495  61.142 -50.643  1.00  0.00     0.185 C 
BRANCH  15  16
HETATM   16  C   UNL     1     -44.038  62.127 -49.620  1.00  0.00     0.231 C 
HETATM   17  N   UNL     1     -44.945  61.608 -48.717  1.00  0.00    -0.326 N 
HETATM   18  H   UNL     1     -45.240  60.652 -48.889  1.00  0.00     0.169 HD
HETATM   19  O   UNL     1     -43.609  63.280 -49.619  1.00  0.00    -0.272 OA
BRANCH  17  20
HETATM   20  C   UNL     1     -45.557  62.272 -47.633  1.00  0.00     0.037 A 
HETATM   21  C   UNL     1     -44.977  62.399 -46.368  1.00  0.00     0.075 A 
HETATM   22  C   UNL     1     -45.660  63.066 -45.353  1.00  0.00     0.157 A 
HETATM   23  F   UNL     1     -45.093  63.175 -44.143  1.00  0.00    -0.203 F 
HETATM   24  C   UNL     1     -46.915  63.612 -45.583  1.00  0.00     0.155 A 
HETATM   25  F   UNL     1     -47.566  64.252 -44.604  1.00  0.00    -0.203 F 
HETATM   26  C   UNL     1     -47.506  63.496 -46.835  1.00  0.00     0.048 A 
HETATM   27  C   UNL     1     -46.828  62.825 -47.857  1.00  0.00     0.032 A 
ENDBRANCH  17  20
ENDBRANCH  15  16
ENDBRANCH  14  15
ENDBRANCH   7  14
BRANCH   1  28
HETATM   28  C   UNL     1     -40.247  54.165 -54.723  1.00  0.00     0.273 C 
BRANCH  28  29
HETATM   29  C   UNL     1     -40.125  52.836 -54.027  1.00  0.00    -0.030 A 
HETATM   30  C   UNL     1     -39.983  51.644 -54.777  1.00  0.00     0.012 A 
HETATM   31  C   UNL     1     -39.817  50.409 -54.139  1.00  0.00     0.040 A 
HETATM   32  C   UNL     1     -39.794  50.392 -52.762  1.00  0.00     0.105 A 
HETATM   33  C   UNL     1     -39.942  51.540 -52.026  1.00  0.00     0.105 A 
HETATM   34  O   UNL     1     -39.627  49.294 -51.980  1.00  0.00    -0.323 OA
HETATM   35  C   UNL     1     -40.118  52.772 -52.621  1.00  0.00     0.048 A 
HETATM   36  O   UNL     1     -39.882  51.312 -50.688  1.00  0.00    -0.323 OA
HETATM   37  C   UNL     1     -39.689  49.879 -50.662  1.00  0.00     0.352 A 
ENDBRANCH  28  29
ENDBRANCH   1  28
TORSDOF 6
ENDMDL
MODEL 10
REMARK VINA RESULT:      -7.7      1.848      2.361
REMARK  6 active torsions:
REMARK  status: ('A' for Active; 'I' for Inactive)
REMARK    1  A    between atoms: C_2  and  C_3 
REMARK    2  A    between atoms: C_3  and  N_4 
REMARK    3  A    between atoms: C_10  and  S_11 
REMARK    4  A    between atoms: S_11  and  C_12 
REMARK    5  A    between atoms: C_12  and  C_13 
REMARK       I    between atoms: C_13  and  N_14 
REMARK    6  A    between atoms: N_14  and  C_15 
ROOT
HETATM    1  N   UNL     1     -41.482  56.205 -51.566  1.00  0.00    -0.063 N 
HETATM    2  H   UNL     1     -41.612  55.941 -52.550  1.00  0.00     0.280 HD
HETATM    3  C   UNL     1     -42.865  56.573 -51.041  1.00  0.00     0.281 C 
HETATM    4  C   UNL     1     -43.369  57.835 -51.648  1.00  0.00     0.060 A 
HETATM    5  C   UNL     1     -42.610  58.708 -52.326  1.00  0.00     0.052 A 
HETATM    6  N   UNL     1     -43.112  59.810 -52.972  1.00  0.00    -0.228 NA
HETATM    7  C   UNL     1     -44.388  59.999 -52.916  1.00  0.00     0.169 A 
HETATM    8  N   UNL     1     -45.247  59.204 -52.225  1.00  0.00    -0.302 N 
HETATM    9  C   UNL     1     -44.814  58.107 -51.547  1.00  0.00     0.257 A 
HETATM   10  O   UNL     1     -45.543  57.367 -50.901  1.00  0.00    -0.267 OA
HETATM   11  C   UNL     1     -41.119  58.498 -52.461  1.00  0.00     0.088 C 
HETATM   12  C   UNL     1     -40.567  57.405 -51.540  1.00  0.00     0.241 C 
HETATM   13  H   UNL     1     -46.232  59.426 -52.209  1.00  0.00     0.171 HD
ENDROOT
BRANCH   7  14
HETATM   14  S   UNL     1     -45.183  61.297 -53.749  1.00  0.00    -0.083 SA
BRANCH  14  15
HETATM   15  C   UNL     1     -43.891  61.688 -54.971  1.00  0.00     0.185 C 
BRANCH  15  16
HETATM   16  C   UNL     1     -43.900  60.795 -56.202  1.00  0.00     0.231 C 
HETATM   17  N   UNL     1     -43.036  59.718 -56.164  1.00  0.00    -0.326 N 
HETATM   18  H   UNL     1     -42.407  59.686 -55.367  1.00  0.00     0.169 HD
HETATM   19  O   UNL     1     -44.691  61.044 -57.110  1.00  0.00    -0.272 OA
BRANCH  17  20
HETATM   20  C   UNL     1     -42.882  58.703 -57.131  1.00  0.00     0.037 A 
HETATM   21  C   UNL     1     -42.254  58.889 -58.365  1.00  0.00     0.075 A 
HETATM   22  C   UNL     1     -42.154  57.828 -59.263  1.00  0.00     0.157 A 
HETATM   23  F   UNL     1     -41.554  58.023 -60.445  1.00  0.00    -0.203 F 
HETATM   24  C   UNL     1     -42.672  56.580 -58.945  1.00  0.00     0.155 A 
HETATM   25  F   UNL     1     -42.574  55.564 -59.812  1.00  0.00    -0.203 F 
HETATM   26  C   UNL     1     -43.299  56.377 -57.722  1.00  0.00     0.048 A 
HETATM   27  C   UNL     1     -43.405  57.438 -56.818  1.00  0.00     0.032 A 
ENDBRANCH  17  20
ENDBRANCH  15  16
ENDBRANCH  14  15
ENDBRANCH   7  14
BRANCH   1  28
HETATM   28  C   UNL     1     -40.892  54.993 -50.885  1.00  0.00     0.273 C 
BRANCH  28  29
HETATM   29  C   UNL     1     -40.670  53.850 -51.839  1.00  0.00    -0.030 A 
HETATM   30  C   UNL     1     -40.914  54.013 -53.224  1.00  0.00     0.012 A 
HETATM   31  C   UNL     1     -40.662  52.973 -54.125  1.00  0.00     0.040 A 
HETATM   32  C   UNL     1     -40.166  51.790 -53.624  1.00  0.00     0.105 A 
HETATM   33  C   UNL     1     -39.936  51.618 -52.283  1.00  0.00     0.105 A 
HETATM   34  O   UNL     1     -39.850  50.686 -54.350  1.00  0.00    -0.323 OA
HETATM   35  C   UNL     1     -40.183  52.617 -51.365  1.00  0.00     0.048 A 
HETATM   36  O   UNL     1     -39.440  50.386 -51.994  1.00  0.00    -0.323 OA
HETATM   37  C   UNL     1     -39.394  49.793 -53.312  1.00  0.00     0.352 A 
ENDBRANCH  28  29
ENDBRANCH   1  28
TORSDOF 6
ENDMDL
