MODEL 1
REMARK VINA RESULT:      -7.3      0.000      0.000
REMARK  9 active torsions:
REMARK  status: ('A' for Active; 'I' for Inactive)
REMARK    1  A    between atoms: O_2  and  C_3 
REMARK    2  A    between atoms: C_4  and  S_5 
REMARK    3  A    between atoms: S_5  and  N_6 
REMARK    4  A    between atoms: N_6  and  C_7 
REMARK    5  A    between atoms: C_7  and  C_8 
REMARK    6  A    between atoms: C_7  and  C_21 
REMARK       I    between atoms: C_8  and  N_9 
REMARK    7  A    between atoms: N_9  and  C_10 
REMARK    8  A    between atoms: C_21  and  C_22 
REMARK    9  A    between atoms: C_22  and  S_23 
ROOT
HETATM    1  C   UNL     1     -42.296  57.406 -53.536  1.00  0.00     0.165 C 
ENDROOT
BRANCH   1   2
HETATM    2  N   UNL     1     -41.335  56.283 -53.328  1.00  0.00    -0.202 NA
HETATM    3  H   UNL     1     -41.155  55.756 -54.194  1.00  0.00     0.141 HD
BRANCH   2   4
HETATM    4  S   UNL     1     -41.643  55.187 -52.077  1.00  0.00     0.245 S 
HETATM    5  O   UNL     1     -43.077  54.996 -52.029  1.00  0.00    -0.206 OA
HETATM    6  O   UNL     1     -40.916  55.642 -50.913  1.00  0.00    -0.206 OA
BRANCH   4   7
HETATM    7  C   UNL     1     -40.898  53.669 -52.611  1.00  0.00     0.107 A 
HETATM    8  C   UNL     1     -41.024  53.241 -53.939  1.00  0.00     0.091 A 
HETATM    9  C   UNL     1     -40.381  52.057 -54.322  1.00  0.00     0.038 A 
HETATM   10  C   UNL     1     -39.639  51.318 -53.396  1.00  0.00     0.003 A 
HETATM   11  C   UNL     1     -39.528  51.751 -52.077  1.00  0.00     0.002 A 
HETATM   12  C   UNL     1     -40.157  52.928 -51.680  1.00  0.00     0.028 A 
BRANCH   8  13
HETATM   13  O   UNL     1     -41.779  54.011 -54.782  1.00  0.00    -0.354 OA
HETATM   14  C   UNL     1     -43.039  53.492 -55.195  1.00  0.00     0.210 C 
ENDBRANCH   8  13
ENDBRANCH   4   7
ENDBRANCH   2   4
ENDBRANCH   1   2
BRANCH   1  15
HETATM   15  C   UNL     1     -43.230  57.069 -54.702  1.00  0.00     0.254 C 
HETATM   16  N   UNL     1     -42.605  56.937 -55.922  1.00  0.00    -0.156 N 
HETATM   17  H   UNL     1     -41.592  56.937 -56.016  1.00  0.00     0.187 HD
HETATM   18  O   UNL     1     -44.440  56.911 -54.527  1.00  0.00    -0.271 OA
BRANCH  16  19
HETATM   19  C   UNL     1     -43.304  56.670 -57.071  1.00  0.00     0.708 A 
HETATM   20  N   UNL     1     -42.968  55.767 -57.959  1.00  0.00    -0.062 NA
HETATM   21  C   UNL     1     -43.942  55.830 -58.930  1.00  0.00     0.103 A 
HETATM   22  C   UNL     1     -44.870  56.826 -58.641  1.00  0.00     0.078 A 
HETATM   23  C   UNL     1     -44.104  55.067 -60.096  1.00  0.00     0.034 A 
HETATM   24  N   UNL     1     -44.448  57.332 -57.441  1.00  0.00    -0.188 N 
HETATM   25  C   UNL     1     -45.951  57.137 -59.468  1.00  0.00     0.032 A 
HETATM   26  H   UNL     1     -44.885  58.060 -56.893  1.00  0.00     0.184 HD
HETATM   27  C   UNL     1     -46.088  56.372 -60.631  1.00  0.00     0.002 A 
HETATM   28  C   UNL     1     -45.187  55.348 -60.938  1.00  0.00     0.002 A 
ENDBRANCH  16  19
ENDBRANCH   1  15
BRANCH   1  29
HETATM   29  C   UNL     1     -41.446  58.652 -53.840  1.00  0.00     0.040 C 
BRANCH  29  30
HETATM   30  C   UNL     1     -40.200  58.863 -52.979  1.00  0.00     0.075 C 
BRANCH  30  31
HETATM   31  S   UNL     1     -40.529  59.246 -51.228  1.00  0.00    -0.173 SA
HETATM   32  C   UNL     1     -38.828  59.475 -50.642  1.00  0.00     0.089 C 
ENDBRANCH  30  31
ENDBRANCH  29  30
ENDBRANCH   1  29
TORSDOF 9
ENDMDL
MODEL 2
REMARK VINA RESULT:      -7.2      2.261      7.279
REMARK  9 active torsions:
REMARK  status: ('A' for Active; 'I' for Inactive)
REMARK    1  A    between atoms: O_2  and  C_3 
REMARK    2  A    between atoms: C_4  and  S_5 
REMARK    3  A    between atoms: S_5  and  N_6 
REMARK    4  A    between atoms: N_6  and  C_7 
REMARK    5  A    between atoms: C_7  and  C_8 
REMARK    6  A    between atoms: C_7  and  C_21 
REMARK       I    between atoms: C_8  and  N_9 
REMARK    7  A    between atoms: N_9  and  C_10 
REMARK    8  A    between atoms: C_21  and  C_22 
REMARK    9  A    between atoms: C_22  and  S_23 
ROOT
HETATM    1  C   UNL     1     -43.501  56.954 -54.904  1.00  0.00     0.165 C 
ENDROOT
BRANCH   1   2
HETATM    2  N   UNL     1     -44.173  56.852 -56.232  1.00  0.00    -0.202 NA
HETATM    3  H   UNL     1     -44.905  56.128 -56.247  1.00  0.00     0.141 HD
BRANCH   2   4
HETATM    4  S   UNL     1     -43.205  56.677 -57.608  1.00  0.00     0.245 S 
HETATM    5  O   UNL     1     -42.371  55.514 -57.390  1.00  0.00    -0.206 OA
HETATM    6  O   UNL     1     -42.618  57.968 -57.893  1.00  0.00    -0.206 OA
BRANCH   4   7
HETATM    7  C   UNL     1     -44.341  56.307 -58.918  1.00  0.00     0.107 A 
HETATM    8  C   UNL     1     -45.503  57.073 -59.093  1.00  0.00     0.091 A 
HETATM    9  C   UNL     1     -46.346  56.768 -60.169  1.00  0.00     0.038 A 
HETATM   10  C   UNL     1     -46.039  55.719 -61.040  1.00  0.00     0.003 A 
HETATM   11  C   UNL     1     -44.886  54.961 -60.850  1.00  0.00     0.002 A 
HETATM   12  C   UNL     1     -44.033  55.253 -59.789  1.00  0.00     0.028 A 
BRANCH   8  13
HETATM   13  O   UNL     1     -45.741  58.073 -58.189  1.00  0.00    -0.354 OA
HETATM   14  C   UNL     1     -47.097  58.337 -57.844  1.00  0.00     0.210 C 
ENDBRANCH   8  13
ENDBRANCH   4   7
ENDBRANCH   2   4
ENDBRANCH   1   2
BRANCH   1  15
HETATM   15  C   UNL     1     -43.097  55.556 -54.428  1.00  0.00     0.254 C 
HETATM   16  N   UNL     1     -41.742  55.369 -54.271  1.00  0.00    -0.156 N 
HETATM   17  H   UNL     1     -41.077  56.134 -54.343  1.00  0.00     0.187 HD
HETATM   18  O   UNL     1     -43.944  54.691 -54.189  1.00  0.00    -0.271 OA
BRANCH  16  19
HETATM   19  C   UNL     1     -41.215  54.164 -53.884  1.00  0.00     0.708 A 
HETATM   20  N   UNL     1     -40.663  53.928 -52.719  1.00  0.00    -0.062 NA
HETATM   21  C   UNL     1     -40.286  52.604 -52.755  1.00  0.00     0.103 A 
HETATM   22  C   UNL     1     -40.583  52.035 -53.989  1.00  0.00     0.078 A 
HETATM   23  C   UNL     1     -39.682  51.812 -51.768  1.00  0.00     0.034 A 
HETATM   24  N   UNL     1     -41.191  53.047 -54.681  1.00  0.00    -0.188 N 
HETATM   25  C   UNL     1     -40.283  50.712 -54.321  1.00  0.00     0.032 A 
HETATM   26  H   UNL     1     -41.573  53.010 -55.617  1.00  0.00     0.184 HD
HETATM   27  C   UNL     1     -39.671  49.942 -53.328  1.00  0.00     0.002 A 
HETATM   28  C   UNL     1     -39.381  50.477 -52.068  1.00  0.00     0.002 A 
ENDBRANCH  16  19
ENDBRANCH   1  15
BRANCH   1  29
HETATM   29  C   UNL     1     -44.523  57.597 -53.950  1.00  0.00     0.040 C 
BRANCH  29  30
HETATM   30  C   UNL     1     -43.982  58.147 -52.630  1.00  0.00     0.075 C 
BRANCH  30  31
HETATM   31  S   UNL     1     -44.280  57.093 -51.175  1.00  0.00    -0.173 SA
HETATM   32  C   UNL     1     -42.601  56.460 -50.909  1.00  0.00     0.089 C 
ENDBRANCH  30  31
ENDBRANCH  29  30
ENDBRANCH   1  29
TORSDOF 9
ENDMDL
MODEL 3
REMARK VINA RESULT:      -7.2      2.782      8.079
REMARK  9 active torsions:
REMARK  status: ('A' for Active; 'I' for Inactive)
REMARK    1  A    between atoms: O_2  and  C_3 
REMARK    2  A    between atoms: C_4  and  S_5 
REMARK    3  A    between atoms: S_5  and  N_6 
REMARK    4  A    between atoms: N_6  and  C_7 
REMARK    5  A    between atoms: C_7  and  C_8 
REMARK    6  A    between atoms: C_7  and  C_21 
REMARK       I    between atoms: C_8  and  N_9 
REMARK    7  A    between atoms: N_9  and  C_10 
REMARK    8  A    between atoms: C_21  and  C_22 
REMARK    9  A    between atoms: C_22  and  S_23 
ROOT
HETATM    1  C   UNL     1     -42.546  56.248 -57.061  1.00  0.00     0.165 C 
ENDROOT
BRANCH   1   2
HETATM    2  N   UNL     1     -43.899  56.148 -57.682  1.00  0.00    -0.202 NA
HETATM    3  H   UNL     1     -44.549  55.584 -57.118  1.00  0.00     0.141 HD
BRANCH   2   4
HETATM    4  S   UNL     1     -44.004  55.651 -59.295  1.00  0.00     0.245 S 
HETATM    5  O   UNL     1     -44.337  54.242 -59.280  1.00  0.00    -0.206 OA
HETATM    6  O   UNL     1     -42.819  56.126 -59.974  1.00  0.00    -0.206 OA
BRANCH   4   7
HETATM    7  C   UNL     1     -45.389  56.541 -59.955  1.00  0.00     0.107 A 
HETATM    8  C   UNL     1     -45.507  57.924 -59.760  1.00  0.00     0.091 A 
HETATM    9  C   UNL     1     -46.596  58.588 -60.338  1.00  0.00     0.038 A 
HETATM   10  C   UNL     1     -47.546  57.884 -61.083  1.00  0.00     0.003 A 
HETATM   11  C   UNL     1     -47.421  56.509 -61.263  1.00  0.00     0.002 A 
HETATM   12  C   UNL     1     -46.342  55.833 -60.700  1.00  0.00     0.028 A 
BRANCH   8  13
HETATM   13  O   UNL     1     -44.544  58.539 -59.005  1.00  0.00    -0.354 OA
HETATM   14  C   UNL     1     -43.765  59.552 -59.634  1.00  0.00     0.210 C 
ENDBRANCH   8  13
ENDBRANCH   4   7
ENDBRANCH   2   4
ENDBRANCH   1   2
BRANCH   1  15
HETATM   15  C   UNL     1     -42.336  55.070 -56.105  1.00  0.00     0.254 C 
HETATM   16  N   UNL     1     -41.122  55.065 -55.454  1.00  0.00    -0.156 N 
HETATM   17  H   UNL     1     -40.474  55.847 -55.508  1.00  0.00     0.187 HD
HETATM   18  O   UNL     1     -43.212  54.220 -55.934  1.00  0.00    -0.271 OA
BRANCH  16  19
HETATM   19  C   UNL     1     -40.765  54.062 -54.590  1.00  0.00     0.708 A 
HETATM   20  N   UNL     1     -40.625  54.204 -53.295  1.00  0.00    -0.062 NA
HETATM   21  C   UNL     1     -40.274  52.957 -52.828  1.00  0.00     0.103 A 
HETATM   22  C   UNL     1     -40.160  52.047 -53.873  1.00  0.00     0.078 A 
HETATM   23  C   UNL     1     -40.033  52.521 -51.516  1.00  0.00     0.034 A 
HETATM   24  N   UNL     1     -40.496  52.775 -54.982  1.00  0.00    -0.188 N 
HETATM   25  C   UNL     1     -39.785  50.714 -53.698  1.00  0.00     0.032 A 
HETATM   26  H   UNL     1     -40.554  52.449 -55.938  1.00  0.00     0.184 HD
HETATM   27  C   UNL     1     -39.538  50.301 -52.385  1.00  0.00     0.002 A 
HETATM   28  C   UNL     1     -39.668  51.185 -51.309  1.00  0.00     0.002 A 
ENDBRANCH  16  19
ENDBRANCH   1  15
BRANCH   1  29
HETATM   29  C   UNL     1     -42.512  57.591 -56.311  1.00  0.00     0.040 C 
BRANCH  29  30
HETATM   30  C   UNL     1     -43.773  57.980 -55.537  1.00  0.00     0.075 C 
BRANCH  30  31
HETATM   31  S   UNL     1     -43.485  58.550 -53.831  1.00  0.00    -0.173 SA
HETATM   32  C   UNL     1     -43.153  56.956 -53.030  1.00  0.00     0.089 C 
ENDBRANCH  30  31
ENDBRANCH  29  30
ENDBRANCH   1  29
TORSDOF 9
ENDMDL
MODEL 4
REMARK VINA RESULT:      -7.1      1.679      2.484
REMARK  9 active torsions:
REMARK  status: ('A' for Active; 'I' for Inactive)
REMARK    1  A    between atoms: O_2  and  C_3 
REMARK    2  A    between atoms: C_4  and  S_5 
REMARK    3  A    between atoms: S_5  and  N_6 
REMARK    4  A    between atoms: N_6  and  C_7 
REMARK    5  A    between atoms: C_7  and  C_8 
REMARK    6  A    between atoms: C_7  and  C_21 
REMARK       I    between atoms: C_8  and  N_9 
REMARK    7  A    between atoms: N_9  and  C_10 
REMARK    8  A    between atoms: C_21  and  C_22 
REMARK    9  A    between atoms: C_22  and  S_23 
ROOT
HETATM    1  C   UNL     1     -43.129  56.612 -52.125  1.00  0.00     0.165 C 
ENDROOT
BRANCH   1   2
HETATM    2  N   UNL     1     -41.708  56.177 -52.002  1.00  0.00    -0.202 NA
HETATM    3  H   UNL     1     -41.251  56.064 -52.917  1.00  0.00     0.141 HD
BRANCH   2   4
HETATM    4  S   UNL     1     -41.365  54.820 -51.051  1.00  0.00     0.245 S 
HETATM    5  O   UNL     1     -42.632  54.318 -50.563  1.00  0.00    -0.206 OA
HETATM    6  O   UNL     1     -40.310  55.189 -50.133  1.00  0.00    -0.206 OA
BRANCH   4   7
HETATM    7  C   UNL     1     -40.695  53.631 -52.183  1.00  0.00     0.107 A 
HETATM    8  C   UNL     1     -40.229  52.391 -51.724  1.00  0.00     0.091 A 
HETATM    9  C   UNL     1     -39.750  51.470 -52.662  1.00  0.00     0.038 A 
HETATM   10  C   UNL     1     -39.728  51.786 -54.024  1.00  0.00     0.003 A 
HETATM   11  C   UNL     1     -40.186  53.024 -54.467  1.00  0.00     0.002 A 
HETATM   12  C   UNL     1     -40.672  53.950 -53.547  1.00  0.00     0.028 A 
BRANCH   8  13
HETATM   13  O   UNL     1     -40.270  52.163 -50.374  1.00  0.00    -0.354 OA
HETATM   14  C   UNL     1     -40.312  50.808 -49.938  1.00  0.00     0.210 C 
ENDBRANCH   8  13
ENDBRANCH   4   7
ENDBRANCH   2   4
ENDBRANCH   1   2
BRANCH   1  15
HETATM   15  C   UNL     1     -43.522  56.658 -53.605  1.00  0.00     0.254 C 
HETATM   16  N   UNL     1     -42.464  56.608 -54.484  1.00  0.00    -0.156 N 
HETATM   17  H   UNL     1     -41.511  56.427 -54.178  1.00  0.00     0.187 HD
HETATM   18  O   UNL     1     -44.704  56.712 -53.952  1.00  0.00    -0.271 OA
BRANCH  16  19
HETATM   19  C   UNL     1     -42.644  56.673 -55.842  1.00  0.00     0.708 A 
HETATM   20  N   UNL     1     -42.284  57.682 -56.597  1.00  0.00    -0.062 NA
HETATM   21  C   UNL     1     -42.640  57.324 -57.878  1.00  0.00     0.103 A 
HETATM   22  C   UNL     1     -43.269  56.083 -57.892  1.00  0.00     0.078 A 
HETATM   23  C   UNL     1     -42.460  58.010 -59.089  1.00  0.00     0.034 A 
HETATM   24  N   UNL     1     -43.240  55.684 -56.583  1.00  0.00    -0.188 N 
HETATM   25  C   UNL     1     -43.766  55.483 -59.050  1.00  0.00     0.032 A 
HETATM   26  H   UNL     1     -43.583  54.815 -56.198  1.00  0.00     0.184 HD
HETATM   27  C   UNL     1     -43.586  56.187 -60.245  1.00  0.00     0.002 A 
HETATM   28  C   UNL     1     -42.937  57.425 -60.269  1.00  0.00     0.002 A 
ENDBRANCH  16  19
ENDBRANCH   1  15
BRANCH   1  29
HETATM   29  C   UNL     1     -43.214  58.005 -51.479  1.00  0.00     0.040 C 
BRANCH  29  30
HETATM   30  C   UNL     1     -42.047  58.959 -51.742  1.00  0.00     0.075 C 
BRANCH  30  31
HETATM   31  S   UNL     1     -41.118  59.468 -50.260  1.00  0.00    -0.173 SA
HETATM   32  C   UNL     1     -39.425  59.278 -50.882  1.00  0.00     0.089 C 
ENDBRANCH  30  31
ENDBRANCH  29  30
ENDBRANCH   1  29
TORSDOF 9
ENDMDL
MODEL 5
REMARK VINA RESULT:      -7.1      2.996      7.613
REMARK  9 active torsions:
REMARK  status: ('A' for Active; 'I' for Inactive)
REMARK    1  A    between atoms: O_2  and  C_3 
REMARK    2  A    between atoms: C_4  and  S_5 
REMARK    3  A    between atoms: S_5  and  N_6 
REMARK    4  A    between atoms: N_6  and  C_7 
REMARK    5  A    between atoms: C_7  and  C_8 
REMARK    6  A    between atoms: C_7  and  C_21 
REMARK       I    between atoms: C_8  and  N_9 
REMARK    7  A    between atoms: N_9  and  C_10 
REMARK    8  A    between atoms: C_21  and  C_22 
REMARK    9  A    between atoms: C_22  and  S_23 
ROOT
HETATM    1  C   UNL     1     -42.986  56.666 -57.483  1.00  0.00     0.165 C 
ENDROOT
BRANCH   1   2
HETATM    2  N   UNL     1     -41.989  57.766 -57.338  1.00  0.00    -0.202 NA
HETATM    3  H   UNL     1     -41.266  57.551 -56.638  1.00  0.00     0.141 HD
BRANCH   2   4
HETATM    4  S   UNL     1     -42.562  59.334 -57.065  1.00  0.00     0.245 S 
HETATM    5  O   UNL     1     -43.539  59.611 -58.097  1.00  0.00    -0.206 OA
HETATM    6  O   UNL     1     -41.411  60.191 -56.884  1.00  0.00    -0.206 OA
BRANCH   4   7
HETATM    7  C   UNL     1     -43.408  59.243 -55.509  1.00  0.00     0.107 A 
HETATM    8  C   UNL     1     -42.731  58.838 -54.351  1.00  0.00     0.091 A 
HETATM    9  C   UNL     1     -43.432  58.824 -53.139  1.00  0.00     0.038 A 
HETATM   10  C   UNL     1     -44.779  59.198 -53.090  1.00  0.00     0.003 A 
HETATM   11  C   UNL     1     -45.442  59.592 -54.250  1.00  0.00     0.002 A 
HETATM   12  C   UNL     1     -44.758  59.617 -55.463  1.00  0.00     0.028 A 
BRANCH   8  13
HETATM   13  O   UNL     1     -41.418  58.472 -54.483  1.00  0.00    -0.354 OA
HETATM   14  C   UNL     1     -40.571  58.646 -53.352  1.00  0.00     0.210 C 
ENDBRANCH   8  13
ENDBRANCH   4   7
ENDBRANCH   2   4
ENDBRANCH   1   2
BRANCH   1  15
HETATM   15  C   UNL     1     -42.655  55.544 -56.496  1.00  0.00     0.254 C 
HETATM   16  N   UNL     1     -41.560  55.784 -55.695  1.00  0.00    -0.156 N 
HETATM   17  H   UNL     1     -41.090  56.686 -55.675  1.00  0.00     0.187 HD
HETATM   18  O   UNL     1     -43.346  54.525 -56.428  1.00  0.00    -0.271 OA
BRANCH  16  19
HETATM   19  C   UNL     1     -41.112  54.865 -54.782  1.00  0.00     0.708 A 
HETATM   20  N   UNL     1     -41.065  55.058 -53.487  1.00  0.00    -0.062 NA
HETATM   21  C   UNL     1     -40.566  53.887 -52.961  1.00  0.00     0.103 A 
HETATM   22  C   UNL     1     -40.266  52.976 -53.970  1.00  0.00     0.078 A 
HETATM   23  C   UNL     1     -40.338  53.523 -51.626  1.00  0.00     0.034 A 
HETATM   24  N   UNL     1     -40.641  53.620 -55.118  1.00  0.00    -0.188 N 
HETATM   25  C   UNL     1     -39.715  51.716 -53.732  1.00  0.00     0.032 A 
HETATM   26  H   UNL     1     -40.599  53.265 -56.064  1.00  0.00     0.184 HD
HETATM   27  C   UNL     1     -39.485  51.376 -52.395  1.00  0.00     0.002 A 
HETATM   28  C   UNL     1     -39.798  52.259 -51.357  1.00  0.00     0.002 A 
ENDBRANCH  16  19
ENDBRANCH   1  15
BRANCH   1  29
HETATM   29  C   UNL     1     -42.884  56.179 -58.939  1.00  0.00     0.040 C 
BRANCH  29  30
HETATM   30  C   UNL     1     -43.903  56.747 -59.929  1.00  0.00     0.075 C 
BRANCH  30  31
HETATM   31  S   UNL     1     -44.937  55.505 -60.769  1.00  0.00    -0.173 SA
HETATM   32  C   UNL     1     -44.662  54.087 -59.671  1.00  0.00     0.089 C 
ENDBRANCH  30  31
ENDBRANCH  29  30
ENDBRANCH   1  29
TORSDOF 9
ENDMDL
MODEL 6
REMARK VINA RESULT:      -7.1      2.603      6.593
REMARK  9 active torsions:
REMARK  status: ('A' for Active; 'I' for Inactive)
REMARK    1  A    between atoms: O_2  and  C_3 
REMARK    2  A    between atoms: C_4  and  S_5 
REMARK    3  A    between atoms: S_5  and  N_6 
REMARK    4  A    between atoms: N_6  and  C_7 
REMARK    5  A    between atoms: C_7  and  C_8 
REMARK    6  A    between atoms: C_7  and  C_21 
REMARK       I    between atoms: C_8  and  N_9 
REMARK    7  A    between atoms: N_9  and  C_10 
REMARK    8  A    between atoms: C_21  and  C_22 
REMARK    9  A    between atoms: C_22  and  S_23 
ROOT
HETATM    1  C   UNL     1     -43.178  56.731 -55.266  1.00  0.00     0.165 C 
ENDROOT
BRANCH   1   2
HETATM    2  N   UNL     1     -42.673  57.753 -54.304  1.00  0.00    -0.202 NA
HETATM    3  H   UNL     1     -41.679  57.618 -54.073  1.00  0.00     0.141 HD
BRANCH   2   4
HETATM    4  S   UNL     1     -43.536  58.000 -52.871  1.00  0.00     0.245 S 
HETATM    5  O   UNL     1     -44.879  57.511 -53.099  1.00  0.00    -0.206 OA
HETATM    6  O   UNL     1     -43.304  59.365 -52.454  1.00  0.00    -0.206 OA
BRANCH   4   7
HETATM    7  C   UNL     1     -42.754  56.940 -51.683  1.00  0.00     0.107 A 
HETATM    8  C   UNL     1     -41.427  57.165 -51.289  1.00  0.00     0.091 A 
HETATM    9  C   UNL     1     -40.870  56.327 -50.316  1.00  0.00     0.038 A 
HETATM   10  C   UNL     1     -41.617  55.286 -49.759  1.00  0.00     0.003 A 
HETATM   11  C   UNL     1     -42.931  55.068 -50.164  1.00  0.00     0.002 A 
HETATM   12  C   UNL     1     -43.504  55.895 -51.127  1.00  0.00     0.028 A 
BRANCH   8  13
HETATM   13  O   UNL     1     -40.757  58.195 -51.892  1.00  0.00    -0.354 OA
HETATM   14  C   UNL     1     -40.023  59.082 -51.053  1.00  0.00     0.210 C 
ENDBRANCH   8  13
ENDBRANCH   4   7
ENDBRANCH   2   4
ENDBRANCH   1   2
BRANCH   1  15
HETATM   15  C   UNL     1     -42.832  55.331 -54.750  1.00  0.00     0.254 C 
HETATM   16  N   UNL     1     -41.512  55.153 -54.404  1.00  0.00    -0.156 N 
HETATM   17  H   UNL     1     -40.850  55.925 -54.374  1.00  0.00     0.187 HD
HETATM   18  O   UNL     1     -43.696  54.457 -54.641  1.00  0.00    -0.271 OA
BRANCH  16  19
HETATM   19  C   UNL     1     -41.033  53.949 -53.957  1.00  0.00     0.708 A 
HETATM   20  N   UNL     1     -40.551  53.733 -52.757  1.00  0.00    -0.062 NA
HETATM   21  C   UNL     1     -40.202  52.401 -52.738  1.00  0.00     0.103 A 
HETATM   22  C   UNL     1     -40.442  51.806 -53.972  1.00  0.00     0.078 A 
HETATM   23  C   UNL     1     -39.671  51.624 -51.699  1.00  0.00     0.034 A 
HETATM   24  N   UNL     1     -40.988  52.811 -54.723  1.00  0.00    -0.188 N 
HETATM   25  C   UNL     1     -40.153  50.469 -54.253  1.00  0.00     0.032 A 
HETATM   26  H   UNL     1     -41.319  52.756 -55.677  1.00  0.00     0.184 HD
HETATM   27  C   UNL     1     -39.614  49.713 -53.207  1.00  0.00     0.002 A 
HETATM   28  C   UNL     1     -39.383  50.276 -51.948  1.00  0.00     0.002 A 
ENDBRANCH  16  19
ENDBRANCH   1  15
BRANCH   1  29
HETATM   29  C   UNL     1     -42.486  57.020 -56.609  1.00  0.00     0.040 C 
BRANCH  29  30
HETATM   30  C   UNL     1     -42.899  56.151 -57.798  1.00  0.00     0.075 C 
BRANCH  30  31
HETATM   31  S   UNL     1     -42.828  56.980 -59.419  1.00  0.00    -0.173 SA
HETATM   32  C   UNL     1     -44.373  57.928 -59.344  1.00  0.00     0.089 C 
ENDBRANCH  30  31
ENDBRANCH  29  30
ENDBRANCH   1  29
TORSDOF 9
ENDMDL
MODEL 7
REMARK VINA RESULT:      -7.0      2.546      7.039
REMARK  9 active torsions:
REMARK  status: ('A' for Active; 'I' for Inactive)
REMARK    1  A    between atoms: O_2  and  C_3 
REMARK    2  A    between atoms: C_4  and  S_5 
REMARK    3  A    between atoms: S_5  and  N_6 
REMARK    4  A    between atoms: N_6  and  C_7 
REMARK    5  A    between atoms: C_7  and  C_8 
REMARK    6  A    between atoms: C_7  and  C_21 
REMARK       I    between atoms: C_8  and  N_9 
REMARK    7  A    between atoms: N_9  and  C_10 
REMARK    8  A    between atoms: C_21  and  C_22 
REMARK    9  A    between atoms: C_22  and  S_23 
ROOT
HETATM    1  C   UNL     1     -43.077  56.581 -55.445  1.00  0.00     0.165 C 
ENDROOT
BRANCH   1   2
HETATM    2  N   UNL     1     -42.418  57.585 -54.559  1.00  0.00    -0.202 NA
HETATM    3  H   UNL     1     -41.698  57.163 -53.956  1.00  0.00     0.141 HD
BRANCH   2   4
HETATM    4  S   UNL     1     -43.401  58.587 -53.615  1.00  0.00     0.245 S 
HETATM    5  O   UNL     1     -44.567  57.811 -53.252  1.00  0.00    -0.206 OA
HETATM    6  O   UNL     1     -43.536  59.846 -54.315  1.00  0.00    -0.206 OA
BRANCH   4   7
HETATM    7  C   UNL     1     -42.457  58.893 -52.145  1.00  0.00     0.107 A 
HETATM    8  C   UNL     1     -41.871  57.832 -51.440  1.00  0.00     0.091 A 
HETATM    9  C   UNL     1     -41.099  58.129 -50.310  1.00  0.00     0.038 A 
HETATM   10  C   UNL     1     -40.927  59.452 -49.892  1.00  0.00     0.003 A 
HETATM   11  C   UNL     1     -41.521  60.496 -50.597  1.00  0.00     0.002 A 
HETATM   12  C   UNL     1     -42.287  60.219 -51.727  1.00  0.00     0.028 A 
BRANCH   8  13
HETATM   13  O   UNL     1     -42.098  56.564 -51.904  1.00  0.00    -0.354 OA
HETATM   14  C   UNL     1     -42.867  55.693 -51.081  1.00  0.00     0.210 C 
ENDBRANCH   8  13
ENDBRANCH   4   7
ENDBRANCH   2   4
ENDBRANCH   1   2
BRANCH   1  15
HETATM   15  C   UNL     1     -42.724  55.170 -54.968  1.00  0.00     0.254 C 
HETATM   16  N   UNL     1     -41.479  55.050 -54.391  1.00  0.00    -0.156 N 
HETATM   17  H   UNL     1     -40.897  55.858 -54.185  1.00  0.00     0.187 HD
HETATM   18  O   UNL     1     -43.522  54.236 -55.083  1.00  0.00    -0.271 OA
BRANCH  16  19
HETATM   19  C   UNL     1     -40.998  53.847 -53.943  1.00  0.00     0.708 A 
HETATM   20  N   UNL     1     -40.515  53.634 -52.744  1.00  0.00    -0.062 NA
HETATM   21  C   UNL     1     -40.164  52.302 -52.723  1.00  0.00     0.103 A 
HETATM   22  C   UNL     1     -40.404  51.705 -53.957  1.00  0.00     0.078 A 
HETATM   23  C   UNL     1     -39.631  51.527 -51.684  1.00  0.00     0.034 A 
HETATM   24  N   UNL     1     -40.953  52.709 -54.708  1.00  0.00    -0.188 N 
HETATM   25  C   UNL     1     -40.114  50.368 -54.236  1.00  0.00     0.032 A 
HETATM   26  H   UNL     1     -41.285  52.652 -55.662  1.00  0.00     0.184 HD
HETATM   27  C   UNL     1     -39.572  49.615 -53.190  1.00  0.00     0.002 A 
HETATM   28  C   UNL     1     -39.341  50.179 -51.932  1.00  0.00     0.002 A 
ENDBRANCH  16  19
ENDBRANCH   1  15
BRANCH   1  29
HETATM   29  C   UNL     1     -42.546  56.842 -56.865  1.00  0.00     0.040 C 
BRANCH  29  30
HETATM   30  C   UNL     1     -43.556  56.739 -58.009  1.00  0.00     0.075 C 
BRANCH  30  31
HETATM   31  S   UNL     1     -42.890  56.075 -59.569  1.00  0.00    -0.173 SA
HETATM   32  C   UNL     1     -41.934  57.512 -60.127  1.00  0.00     0.089 C 
ENDBRANCH  30  31
ENDBRANCH  29  30
ENDBRANCH   1  29
TORSDOF 9
ENDMDL
MODEL 8
REMARK VINA RESULT:      -6.7      3.276      8.443
REMARK  9 active torsions:
REMARK  status: ('A' for Active; 'I' for Inactive)
REMARK    1  A    between atoms: O_2  and  C_3 
REMARK    2  A    between atoms: C_4  and  S_5 
REMARK    3  A    between atoms: S_5  and  N_6 
REMARK    4  A    between atoms: N_6  and  C_7 
REMARK    5  A    between atoms: C_7  and  C_8 
REMARK    6  A    between atoms: C_7  and  C_21 
REMARK       I    between atoms: C_8  and  N_9 
REMARK    7  A    between atoms: N_9  and  C_10 
REMARK    8  A    between atoms: C_21  and  C_22 
REMARK    9  A    between atoms: C_22  and  S_23 
ROOT
HETATM    1  C   UNL     1     -43.128  56.241 -57.675  1.00  0.00     0.165 C 
ENDROOT
BRANCH   1   2
HETATM    2  N   UNL     1     -42.121  57.341 -57.688  1.00  0.00    -0.202 NA
HETATM    3  H   UNL     1     -41.266  57.096 -57.169  1.00  0.00     0.141 HD
BRANCH   2   4
HETATM    4  S   UNL     1     -42.619  58.888 -57.220  1.00  0.00     0.245 S 
HETATM    5  O   UNL     1     -41.514  59.784 -57.488  1.00  0.00    -0.206 OA
HETATM    6  O   UNL     1     -43.181  58.780 -55.892  1.00  0.00    -0.206 OA
BRANCH   4   7
HETATM    7  C   UNL     1     -43.943  59.292 -58.329  1.00  0.00     0.107 A 
HETATM    8  C   UNL     1     -43.766  59.200 -59.716  1.00  0.00     0.091 A 
HETATM    9  C   UNL     1     -44.855  59.488 -60.548  1.00  0.00     0.038 A 
HETATM   10  C   UNL     1     -46.086  59.867 -60.004  1.00  0.00     0.003 A 
HETATM   11  C   UNL     1     -46.246  59.962 -58.624  1.00  0.00     0.002 A 
HETATM   12  C   UNL     1     -45.175  59.674 -57.782  1.00  0.00     0.028 A 
BRANCH   8  13
HETATM   13  O   UNL     1     -42.527  58.837 -60.171  1.00  0.00    -0.354 OA
HETATM   14  C   UNL     1     -41.895  59.697 -61.113  1.00  0.00     0.210 C 
ENDBRANCH   8  13
ENDBRANCH   4   7
ENDBRANCH   2   4
ENDBRANCH   1   2
BRANCH   1  15
HETATM   15  C   UNL     1     -42.771  55.234 -56.578  1.00  0.00     0.254 C 
HETATM   16  N   UNL     1     -41.632  55.537 -55.866  1.00  0.00    -0.156 N 
HETATM   17  H   UNL     1     -41.141  56.421 -55.977  1.00  0.00     0.187 HD
HETATM   18  O   UNL     1     -43.481  54.251 -56.355  1.00  0.00    -0.271 OA
BRANCH  16  19
HETATM   19  C   UNL     1     -41.157  54.720 -54.873  1.00  0.00     0.708 A 
HETATM   20  N   UNL     1     -41.140  55.024 -53.598  1.00  0.00    -0.062 NA
HETATM   21  C   UNL     1     -40.598  53.925 -52.969  1.00  0.00     0.103 A 
HETATM   22  C   UNL     1     -40.240  52.948 -53.892  1.00  0.00     0.078 A 
HETATM   23  C   UNL     1     -40.376  53.687 -51.604  1.00  0.00     0.034 A 
HETATM   24  N   UNL     1     -40.625  53.475 -55.095  1.00  0.00    -0.188 N 
HETATM   25  C   UNL     1     -39.636  51.739 -53.541  1.00  0.00     0.032 A 
HETATM   26  H   UNL     1     -40.551  53.043 -56.007  1.00  0.00     0.184 HD
HETATM   27  C   UNL     1     -39.414  51.525 -52.177  1.00  0.00     0.002 A 
HETATM   28  C   UNL     1     -39.784  52.476 -51.222  1.00  0.00     0.002 A 
ENDBRANCH  16  19
ENDBRANCH   1  15
BRANCH   1  29
HETATM   29  C   UNL     1     -43.078  55.591 -59.069  1.00  0.00     0.040 C 
BRANCH  29  30
HETATM   30  C   UNL     1     -44.311  54.800 -59.506  1.00  0.00     0.075 C 
BRANCH  30  31
HETATM   31  S   UNL     1     -45.114  55.400 -61.027  1.00  0.00    -0.173 SA
HETATM   32  C   UNL     1     -46.608  56.139 -60.312  1.00  0.00     0.089 C 
ENDBRANCH  30  31
ENDBRANCH  29  30
ENDBRANCH   1  29
TORSDOF 9
ENDMDL
MODEL 9
REMARK VINA RESULT:      -6.6      2.247      6.880
REMARK  9 active torsions:
REMARK  status: ('A' for Active; 'I' for Inactive)
REMARK    1  A    between atoms: O_2  and  C_3 
REMARK    2  A    between atoms: C_4  and  S_5 
REMARK    3  A    between atoms: S_5  and  N_6 
REMARK    4  A    between atoms: N_6  and  C_7 
REMARK    5  A    between atoms: C_7  and  C_8 
REMARK    6  A    between atoms: C_7  and  C_21 
REMARK       I    between atoms: C_8  and  N_9 
REMARK    7  A    between atoms: N_9  and  C_10 
REMARK    8  A    between atoms: C_21  and  C_22 
REMARK    9  A    between atoms: C_22  and  S_23 
ROOT
HETATM    1  C   UNL     1     -41.569  57.383 -53.688  1.00  0.00     0.165 C 
ENDROOT
BRANCH   1   2
HETATM    2  N   UNL     1     -42.027  57.881 -55.017  1.00  0.00    -0.202 NA
HETATM    3  H   UNL     1     -42.195  58.897 -55.019  1.00  0.00     0.141 HD
BRANCH   2   4
HETATM    4  S   UNL     1     -43.341  57.110 -55.752  1.00  0.00     0.245 S 
HETATM    5  O   UNL     1     -44.492  57.964 -55.557  1.00  0.00    -0.206 OA
HETATM    6  O   UNL     1     -43.349  55.737 -55.295  1.00  0.00    -0.206 OA
BRANCH   4   7
HETATM    7  C   UNL     1     -42.948  57.094 -57.481  1.00  0.00     0.107 A 
HETATM    8  C   UNL     1     -42.470  58.249 -58.116  1.00  0.00     0.091 A 
HETATM    9  C   UNL     1     -42.132  58.173 -59.473  1.00  0.00     0.038 A 
HETATM   10  C   UNL     1     -42.278  56.974 -60.177  1.00  0.00     0.003 A 
HETATM   11  C   UNL     1     -42.761  55.836 -59.537  1.00  0.00     0.002 A 
HETATM   12  C   UNL     1     -43.096  55.892 -58.187  1.00  0.00     0.028 A 
BRANCH   8  13
HETATM   13  O   UNL     1     -42.370  59.387 -57.362  1.00  0.00    -0.354 OA
HETATM   14  C   UNL     1     -41.502  60.413 -57.833  1.00  0.00     0.210 C 
ENDBRANCH   8  13
ENDBRANCH   4   7
ENDBRANCH   2   4
ENDBRANCH   1   2
BRANCH   1  15
HETATM   15  C   UNL     1     -40.959  55.987 -53.848  1.00  0.00     0.254 C 
HETATM   16  N   UNL     1     -41.405  55.055 -52.938  1.00  0.00    -0.156 N 
HETATM   17  H   UNL     1     -42.170  55.246 -52.296  1.00  0.00     0.187 HD
HETATM   18  O   UNL     1     -40.151  55.740 -54.747  1.00  0.00    -0.271 OA
BRANCH  16  19
HETATM   19  C   UNL     1     -40.932  53.768 -52.926  1.00  0.00     0.708 A 
HETATM   20  N   UNL     1     -40.422  53.168 -51.878  1.00  0.00    -0.062 NA
HETATM   21  C   UNL     1     -40.092  51.902 -52.307  1.00  0.00     0.103 A 
HETATM   22  C   UNL     1     -40.372  51.746 -53.661  1.00  0.00     0.078 A 
HETATM   23  C   UNL     1     -39.544  50.824 -51.597  1.00  0.00     0.034 A 
HETATM   24  N   UNL     1     -40.924  52.945 -54.024  1.00  0.00    -0.188 N 
HETATM   25  C   UNL     1     -40.110  50.574 -54.373  1.00  0.00     0.032 A 
HETATM   26  H   UNL     1     -41.280  53.208 -54.933  1.00  0.00     0.184 HD
HETATM   27  C   UNL     1     -39.554  49.515 -53.650  1.00  0.00     0.002 A 
HETATM   28  C   UNL     1     -39.282  49.631 -52.283  1.00  0.00     0.002 A 
ENDBRANCH  16  19
ENDBRANCH   1  15
BRANCH   1  29
HETATM   29  C   UNL     1     -42.814  57.350 -52.785  1.00  0.00     0.040 C 
BRANCH  29  30
HETATM   30  C   UNL     1     -42.714  58.082 -51.446  1.00  0.00     0.075 C 
BRANCH  30  31
HETATM   31  S   UNL     1     -41.066  58.051 -50.671  1.00  0.00    -0.173 SA
HETATM   32  C   UNL     1     -40.825  59.827 -50.396  1.00  0.00     0.089 C 
ENDBRANCH  30  31
ENDBRANCH  29  30
ENDBRANCH   1  29
TORSDOF 9
ENDMDL
MODEL 10
REMARK VINA RESULT:      -6.4      3.186      7.859
REMARK  9 active torsions:
REMARK  status: ('A' for Active; 'I' for Inactive)
REMARK    1  A    between atoms: O_2  and  C_3 
REMARK    2  A    between atoms: C_4  and  S_5 
REMARK    3  A    between atoms: S_5  and  N_6 
REMARK    4  A    between atoms: N_6  and  C_7 
REMARK    5  A    between atoms: C_7  and  C_8 
REMARK    6  A    between atoms: C_7  and  C_21 
REMARK       I    between atoms: C_8  and  N_9 
REMARK    7  A    between atoms: N_9  and  C_10 
REMARK    8  A    between atoms: C_21  and  C_22 
REMARK    9  A    between atoms: C_22  and  S_23 
ROOT
HETATM    1  C   UNL     1     -42.965  56.444 -57.562  1.00  0.00     0.165 C 
ENDROOT
BRANCH   1   2
HETATM    2  N   UNL     1     -41.988  57.561 -57.414  1.00  0.00    -0.202 NA
HETATM    3  H   UNL     1     -41.359  57.430 -56.609  1.00  0.00     0.141 HD
BRANCH   2   4
HETATM    4  S   UNL     1     -42.580  59.145 -57.389  1.00  0.00     0.245 S 
HETATM    5  O   UNL     1     -43.992  59.071 -57.701  1.00  0.00    -0.206 OA
HETATM    6  O   UNL     1     -41.685  59.956 -58.185  1.00  0.00    -0.206 OA
BRANCH   4   7
HETATM    7  C   UNL     1     -42.412  59.665 -55.702  1.00  0.00     0.107 A 
HETATM    8  C   UNL     1     -42.907  60.909 -55.285  1.00  0.00     0.091 A 
HETATM    9  C   UNL     1     -42.788  61.255 -53.934  1.00  0.00     0.038 A 
HETATM   10  C   UNL     1     -42.182  60.382 -53.025  1.00  0.00     0.003 A 
HETATM   11  C   UNL     1     -41.688  59.153 -53.453  1.00  0.00     0.002 A 
HETATM   12  C   UNL     1     -41.802  58.790 -54.793  1.00  0.00     0.028 A 
BRANCH   8  13
HETATM   13  O   UNL     1     -43.474  61.713 -56.237  1.00  0.00    -0.354 OA
HETATM   14  C   UNL     1     -44.475  62.631 -55.810  1.00  0.00     0.210 C 
ENDBRANCH   8  13
ENDBRANCH   4   7
ENDBRANCH   2   4
ENDBRANCH   1   2
BRANCH   1  15
HETATM   15  C   UNL     1     -42.662  55.360 -56.523  1.00  0.00     0.254 C 
HETATM   16  N   UNL     1     -41.521  55.573 -55.783  1.00  0.00    -0.156 N 
HETATM   17  H   UNL     1     -40.994  56.442 -55.836  1.00  0.00     0.187 HD
HETATM   18  O   UNL     1     -43.413  54.395 -56.367  1.00  0.00    -0.271 OA
BRANCH  16  19
HETATM   19  C   UNL     1     -41.092  54.680 -54.836  1.00  0.00     0.708 A 
HETATM   20  N   UNL     1     -41.122  54.889 -53.542  1.00  0.00    -0.062 NA
HETATM   21  C   UNL     1     -40.613  53.742 -52.976  1.00  0.00     0.103 A 
HETATM   22  C   UNL     1     -40.228  52.831 -53.954  1.00  0.00     0.078 A 
HETATM   23  C   UNL     1     -40.446  53.400 -51.625  1.00  0.00     0.034 A 
HETATM   24  N   UNL     1     -40.562  53.449 -55.129  1.00  0.00    -0.188 N 
HETATM   25  C   UNL     1     -39.649  51.593 -53.671  1.00  0.00     0.032 A 
HETATM   26  H   UNL     1     -40.457  53.085 -56.067  1.00  0.00     0.184 HD
HETATM   27  C   UNL     1     -39.481  51.276 -52.320  1.00  0.00     0.002 A 
HETATM   28  C   UNL     1     -39.880  52.159 -51.311  1.00  0.00     0.002 A 
ENDBRANCH  16  19
ENDBRANCH   1  15
BRANCH   1  29
HETATM   29  C   UNL     1     -42.797  55.909 -58.995  1.00  0.00     0.040 C 
BRANCH  29  30
HETATM   30  C   UNL     1     -43.673  56.546 -60.075  1.00  0.00     0.075 C 
BRANCH  30  31
HETATM   31  S   UNL     1     -45.168  55.601 -60.512  1.00  0.00    -0.173 SA
HETATM   32  C   UNL     1     -44.745  54.001 -59.769  1.00  0.00     0.089 C 
ENDBRANCH  30  31
ENDBRANCH  29  30
ENDBRANCH   1  29
TORSDOF 9
ENDMDL
