MODEL 1
REMARK VINA RESULT:      -8.3      0.000      0.000
REMARK  7 active torsions:
REMARK  status: ('A' for Active; 'I' for Inactive)
REMARK       I    between atoms: C_2  and  N_3 
REMARK    1  A    between atoms: N_3  and  C_4 
REMARK    2  A    between atoms: C_6  and  O_7 
REMARK    3  A    between atoms: O_7  and  C_8 
REMARK    4  A    between atoms: C_8  and  C_9 
REMARK    5  A    between atoms: C_9  and  N_10 
REMARK       I    between atoms: N_10  and  C_11 
REMARK    6  A    between atoms: C_11  and  C_12 
REMARK    7  A    between atoms: C_14  and  C_15 
ROOT
HETATM    1  N   UNL     1     -43.171  56.970 -50.956  1.00  0.00    -0.355 N 
HETATM    2  C   UNL     1     -41.802  56.862 -50.839  1.00  0.00     0.251 C 
HETATM    3  O   UNL     1     -41.030  57.794 -51.027  1.00  0.00    -0.268 OA
HETATM    4  H   UNL     1     -43.762  56.226 -50.611  1.00  0.00     0.162 HD
ENDROOT
BRANCH   1   5
HETATM    5  C   UNL     1     -43.800  58.217 -51.350  1.00  0.00     0.149 C 
BRANCH   5   6
HETATM    6  C   UNL     1     -43.986  58.365 -52.861  1.00  0.00     0.195 C 
BRANCH   6   7
HETATM    7  O   UNL     1     -44.601  57.167 -53.345  1.00  0.00    -0.349 OA
BRANCH   7   8
HETATM    8  C   UNL     1     -43.943  56.483 -54.331  1.00  0.00     0.070 A 
HETATM    9  C   UNL     1     -43.500  57.018 -55.545  1.00  0.00     0.066 A 
HETATM   10  C   UNL     1     -42.827  56.213 -56.472  1.00  0.00     0.037 A 
HETATM   11  C   UNL     1     -42.603  54.864 -56.168  1.00  0.00     0.029 A 
HETATM   12  C   UNL     1     -43.053  54.323 -54.964  1.00  0.00     0.005 A 
HETATM   13  C   UNL     1     -43.723  55.133 -54.051  1.00  0.00     0.037 A 
BRANCH  10  14
HETATM   14  N   UNL     1     -42.337  56.679 -57.711  1.00  0.00    -0.327 N 
HETATM   15  C   UNL     1     -42.895  56.495 -58.962  1.00  0.00     0.218 C 
HETATM   16  C   UNL     1     -42.109  57.186 -60.049  1.00  0.00     0.117 C 
HETATM   17  O   UNL     1     -43.887  55.831 -59.238  1.00  0.00    -0.274 OA
HETATM   18  H   UNL     1     -41.465  57.191 -57.674  1.00  0.00     0.169 HD
ENDBRANCH  10  14
ENDBRANCH   7   8
ENDBRANCH   6   7
ENDBRANCH   5   6
ENDBRANCH   1   5
BRANCH   2  19
HETATM   19  C   UNL     1     -41.281  55.529 -50.435  1.00  0.00     0.032 A 
HETATM   20  C   UNL     1     -40.969  54.601 -51.441  1.00  0.00     0.029 A 
HETATM   21  C   UNL     1     -40.498  53.321 -51.113  1.00  0.00    -0.023 A 
HETATM   22  C   UNL     1     -40.353  52.990 -49.758  1.00  0.00     0.012 A 
HETATM   23  C   UNL     1     -40.674  53.908 -48.753  1.00  0.00     0.002 A 
HETATM   24  C   UNL     1     -41.141  55.177 -49.089  1.00  0.00     0.017 A 
BRANCH  21  25
HETATM   25  C   UNL     1     -40.163  52.344 -52.143  1.00  0.00    -0.002 A 
HETATM   26  C   UNL     1     -39.568  51.118 -51.906  1.00  0.00     0.153 A 
HETATM   27  O   UNL     1     -39.374  50.437 -53.065  1.00  0.00    -0.334 OA
HETATM   28  C   UNL     1     -39.841  51.223 -54.065  1.00  0.00     0.142 A 
HETATM   29  C   UNL     1     -40.333  52.402 -53.557  1.00  0.00     0.038 A 
ENDBRANCH  21  25
ENDBRANCH   2  19
TORSDOF 7
ENDMDL
MODEL 2
REMARK VINA RESULT:      -8.0      2.076      5.397
REMARK  7 active torsions:
REMARK  status: ('A' for Active; 'I' for Inactive)
REMARK       I    between atoms: C_2  and  N_3 
REMARK    1  A    between atoms: N_3  and  C_4 
REMARK    2  A    between atoms: C_6  and  O_7 
REMARK    3  A    between atoms: O_7  and  C_8 
REMARK    4  A    between atoms: C_8  and  C_9 
REMARK    5  A    between atoms: C_9  and  N_10 
REMARK       I    between atoms: N_10  and  C_11 
REMARK    6  A    between atoms: C_11  and  C_12 
REMARK    7  A    between atoms: C_14  and  C_15 
ROOT
HETATM    1  N   UNL     1     -41.771  55.134 -55.943  1.00  0.00    -0.355 N 
HETATM    2  C   UNL     1     -42.417  54.297 -55.058  1.00  0.00     0.251 C 
HETATM    3  O   UNL     1     -43.625  54.096 -55.072  1.00  0.00    -0.268 OA
HETATM    4  H   UNL     1     -40.763  55.115 -56.003  1.00  0.00     0.162 HD
ENDROOT
BRANCH   1   5
HETATM    5  C   UNL     1     -42.504  55.874 -56.953  1.00  0.00     0.149 C 
BRANCH   5   6
HETATM    6  C   UNL     1     -42.601  57.375 -56.670  1.00  0.00     0.195 C 
BRANCH   6   7
HETATM    7  O   UNL     1     -43.693  57.580 -55.768  1.00  0.00    -0.349 OA
BRANCH   7   8
HETATM    8  C   UNL     1     -43.395  57.646 -54.434  1.00  0.00     0.070 A 
HETATM    9  C   UNL     1     -42.176  58.059 -53.886  1.00  0.00     0.066 A 
HETATM   10  C   UNL     1     -41.997  58.092 -52.497  1.00  0.00     0.037 A 
HETATM   11  C   UNL     1     -43.054  57.706 -51.664  1.00  0.00     0.029 A 
HETATM   12  C   UNL     1     -44.268  57.283 -52.207  1.00  0.00     0.005 A 
HETATM   13  C   UNL     1     -44.433  57.252 -53.589  1.00  0.00     0.037 A 
BRANCH  10  14
HETATM   14  N   UNL     1     -40.806  58.509 -51.866  1.00  0.00    -0.327 N 
HETATM   15  C   UNL     1     -40.655  59.513 -50.928  1.00  0.00     0.218 C 
HETATM   16  C   UNL     1     -39.232  59.637 -50.442  1.00  0.00     0.117 C 
HETATM   17  O   UNL     1     -41.521  60.277 -50.517  1.00  0.00    -0.274 OA
HETATM   18  H   UNL     1     -39.964  58.025 -52.152  1.00  0.00     0.169 HD
ENDBRANCH  10  14
ENDBRANCH   7   8
ENDBRANCH   6   7
ENDBRANCH   5   6
ENDBRANCH   1   5
BRANCH   2  19
HETATM   19  C   UNL     1     -41.555  53.600 -54.066  1.00  0.00     0.032 A 
HETATM   20  C   UNL     1     -41.562  54.055 -52.739  1.00  0.00     0.029 A 
HETATM   21  C   UNL     1     -40.749  53.449 -51.770  1.00  0.00    -0.023 A 
HETATM   22  C   UNL     1     -39.925  52.384 -52.162  1.00  0.00     0.012 A 
HETATM   23  C   UNL     1     -39.907  51.935 -53.486  1.00  0.00     0.002 A 
HETATM   24  C   UNL     1     -40.719  52.544 -54.441  1.00  0.00     0.017 A 
BRANCH  21  25
HETATM   25  C   UNL     1     -40.745  53.903 -50.383  1.00  0.00    -0.002 A 
HETATM   26  C   UNL     1     -41.075  55.179 -49.967  1.00  0.00     0.153 A 
HETATM   27  O   UNL     1     -40.967  55.297 -48.618  1.00  0.00    -0.334 OA
HETATM   28  C   UNL     1     -40.561  54.091 -48.151  1.00  0.00     0.142 A 
HETATM   29  C   UNL     1     -40.408  53.202 -49.188  1.00  0.00     0.038 A 
ENDBRANCH  21  25
ENDBRANCH   2  19
TORSDOF 7
ENDMDL
MODEL 3
REMARK VINA RESULT:      -7.8      2.076      3.355
REMARK  7 active torsions:
REMARK  status: ('A' for Active; 'I' for Inactive)
REMARK       I    between atoms: C_2  and  N_3 
REMARK    1  A    between atoms: N_3  and  C_4 
REMARK    2  A    between atoms: C_6  and  O_7 
REMARK    3  A    between atoms: O_7  and  C_8 
REMARK    4  A    between atoms: C_8  and  C_9 
REMARK    5  A    between atoms: C_9  and  N_10 
REMARK       I    between atoms: N_10  and  C_11 
REMARK    6  A    between atoms: C_11  and  C_12 
REMARK    7  A    between atoms: C_14  and  C_15 
ROOT
HETATM    1  N   UNL     1     -41.077  57.073 -51.712  1.00  0.00    -0.355 N 
HETATM    2  C   UNL     1     -41.635  55.815 -51.810  1.00  0.00     0.251 C 
HETATM    3  O   UNL     1     -42.519  55.406 -51.069  1.00  0.00    -0.268 OA
HETATM    4  H   UNL     1     -40.492  57.419 -52.459  1.00  0.00     0.162 HD
ENDROOT
BRANCH   1   5
HETATM    5  C   UNL     1     -41.491  58.003 -50.679  1.00  0.00     0.149 C 
BRANCH   5   6
HETATM    6  C   UNL     1     -42.297  59.193 -51.205  1.00  0.00     0.195 C 
BRANCH   6   7
HETATM    7  O   UNL     1     -43.635  58.746 -51.441  1.00  0.00    -0.349 OA
BRANCH   7   8
HETATM    8  C   UNL     1     -44.079  58.765 -52.736  1.00  0.00     0.070 A 
HETATM    9  C   UNL     1     -43.834  57.783 -53.701  1.00  0.00     0.066 A 
HETATM   10  C   UNL     1     -44.353  57.915 -54.995  1.00  0.00     0.037 A 
HETATM   11  C   UNL     1     -45.122  59.042 -55.310  1.00  0.00     0.029 A 
HETATM   12  C   UNL     1     -45.360  60.029 -54.353  1.00  0.00     0.005 A 
HETATM   13  C   UNL     1     -44.836  59.889 -53.071  1.00  0.00     0.037 A 
BRANCH  10  14
HETATM   14  N   UNL     1     -44.164  56.963 -56.020  1.00  0.00    -0.327 N 
HETATM   15  C   UNL     1     -43.101  56.870 -56.899  1.00  0.00     0.218 C 
HETATM   16  C   UNL     1     -43.224  55.687 -57.827  1.00  0.00     0.117 C 
HETATM   17  O   UNL     1     -42.153  57.642 -56.997  1.00  0.00    -0.274 OA
HETATM   18  H   UNL     1     -44.906  56.284 -56.132  1.00  0.00     0.169 HD
ENDBRANCH  10  14
ENDBRANCH   7   8
ENDBRANCH   6   7
ENDBRANCH   5   6
ENDBRANCH   1   5
BRANCH   2  19
HETATM   19  C   UNL     1     -41.121  54.954 -52.908  1.00  0.00     0.032 A 
HETATM   20  C   UNL     1     -40.801  53.619 -52.616  1.00  0.00     0.029 A 
HETATM   21  C   UNL     1     -40.289  52.771 -53.610  1.00  0.00    -0.023 A 
HETATM   22  C   UNL     1     -40.099  53.292 -54.898  1.00  0.00     0.012 A 
HETATM   23  C   UNL     1     -40.406  54.625 -55.190  1.00  0.00     0.002 A 
HETATM   24  C   UNL     1     -40.913  55.459 -54.196  1.00  0.00     0.017 A 
BRANCH  21  25
HETATM   25  C   UNL     1     -39.956  51.379 -53.329  1.00  0.00    -0.002 A 
HETATM   26  C   UNL     1     -39.880  50.378 -54.279  1.00  0.00     0.153 A 
HETATM   27  O   UNL     1     -39.557  49.187 -53.708  1.00  0.00    -0.334 OA
HETATM   28  C   UNL     1     -39.426  49.412 -52.379  1.00  0.00     0.142 A 
HETATM   29  C   UNL     1     -39.660  50.736 -52.092  1.00  0.00     0.038 A 
ENDBRANCH  21  25
ENDBRANCH   2  19
TORSDOF 7
ENDMDL
MODEL 4
REMARK VINA RESULT:      -7.7      2.492      5.280
REMARK  7 active torsions:
REMARK  status: ('A' for Active; 'I' for Inactive)
REMARK       I    between atoms: C_2  and  N_3 
REMARK    1  A    between atoms: N_3  and  C_4 
REMARK    2  A    between atoms: C_6  and  O_7 
REMARK    3  A    between atoms: O_7  and  C_8 
REMARK    4  A    between atoms: C_8  and  C_9 
REMARK    5  A    between atoms: C_9  and  N_10 
REMARK       I    between atoms: N_10  and  C_11 
REMARK    6  A    between atoms: C_11  and  C_12 
REMARK    7  A    between atoms: C_14  and  C_15 
ROOT
HETATM    1  N   UNL     1     -41.668  56.667 -54.524  1.00  0.00    -0.355 N 
HETATM    2  C   UNL     1     -42.332  56.027 -53.499  1.00  0.00     0.251 C 
HETATM    3  O   UNL     1     -43.521  56.191 -53.254  1.00  0.00    -0.268 OA
HETATM    4  H   UNL     1     -40.745  56.356 -54.792  1.00  0.00     0.162 HD
ENDROOT
BRANCH   1   5
HETATM    5  C   UNL     1     -42.345  57.624 -55.380  1.00  0.00     0.149 C 
BRANCH   5   6
HETATM    6  C   UNL     1     -42.233  59.072 -54.899  1.00  0.00     0.195 C 
BRANCH   6   7
HETATM    7  O   UNL     1     -41.003  59.199 -54.178  1.00  0.00    -0.349 OA
BRANCH   7   8
HETATM    8  C   UNL     1     -41.091  59.382 -52.824  1.00  0.00     0.070 A 
HETATM    9  C   UNL     1     -42.162  59.970 -52.144  1.00  0.00     0.066 A 
HETATM   10  C   UNL     1     -42.136  60.092 -50.749  1.00  0.00     0.037 A 
HETATM   11  C   UNL     1     -41.023  59.619 -50.044  1.00  0.00     0.029 A 
HETATM   12  C   UNL     1     -39.947  59.042 -50.719  1.00  0.00     0.005 A 
HETATM   13  C   UNL     1     -39.983  58.928 -52.106  1.00  0.00     0.037 A 
BRANCH  10  14
HETATM   14  N   UNL     1     -43.182  60.659 -49.989  1.00  0.00    -0.327 N 
HETATM   15  C   UNL     1     -44.525  60.334 -50.028  1.00  0.00     0.218 C 
HETATM   16  C   UNL     1     -45.336  61.122 -49.029  1.00  0.00     0.117 C 
HETATM   17  O   UNL     1     -45.071  59.537 -50.783  1.00  0.00    -0.274 OA
HETATM   18  H   UNL     1     -42.913  61.402 -49.356  1.00  0.00     0.169 HD
ENDBRANCH  10  14
ENDBRANCH   7   8
ENDBRANCH   6   7
ENDBRANCH   5   6
ENDBRANCH   1   5
BRANCH   2  19
HETATM   19  C   UNL     1     -41.526  55.075 -52.689  1.00  0.00     0.032 A 
HETATM   20  C   UNL     1     -41.199  53.832 -53.252  1.00  0.00     0.029 A 
HETATM   21  C   UNL     1     -40.462  52.888 -52.521  1.00  0.00    -0.023 A 
HETATM   22  C   UNL     1     -40.068  53.214 -51.215  1.00  0.00     0.012 A 
HETATM   23  C   UNL     1     -40.403  54.447 -50.647  1.00  0.00     0.002 A 
HETATM   24  C   UNL     1     -41.135  55.378 -51.381  1.00  0.00     0.017 A 
BRANCH  21  25
HETATM   25  C   UNL     1     -40.105  51.592 -53.088  1.00  0.00    -0.002 A 
HETATM   26  C   UNL     1     -39.608  50.523 -52.366  1.00  0.00     0.153 A 
HETATM   27  O   UNL     1     -39.363  49.459 -53.175  1.00  0.00    -0.334 OA
HETATM   28  C   UNL     1     -39.699  49.836 -54.432  1.00  0.00     0.142 A 
HETATM   29  C   UNL     1     -40.158  51.133 -54.437  1.00  0.00     0.038 A 
ENDBRANCH  21  25
ENDBRANCH   2  19
TORSDOF 7
ENDMDL
MODEL 5
REMARK VINA RESULT:      -7.7      2.619      6.176
REMARK  7 active torsions:
REMARK  status: ('A' for Active; 'I' for Inactive)
REMARK       I    between atoms: C_2  and  N_3 
REMARK    1  A    between atoms: N_3  and  C_4 
REMARK    2  A    between atoms: C_6  and  O_7 
REMARK    3  A    between atoms: O_7  and  C_8 
REMARK    4  A    between atoms: C_8  and  C_9 
REMARK    5  A    between atoms: C_9  and  N_10 
REMARK       I    between atoms: N_10  and  C_11 
REMARK    6  A    between atoms: C_11  and  C_12 
REMARK    7  A    between atoms: C_14  and  C_15 
ROOT
HETATM    1  N   UNL     1     -41.716  56.630 -54.974  1.00  0.00    -0.355 N 
HETATM    2  C   UNL     1     -41.952  55.290 -55.199  1.00  0.00     0.251 C 
HETATM    3  O   UNL     1     -42.617  54.868 -56.137  1.00  0.00    -0.268 OA
HETATM    4  H   UNL     1     -41.014  56.907 -54.302  1.00  0.00     0.162 HD
ENDROOT
BRANCH   1   5
HETATM    5  C   UNL     1     -42.280  57.652 -55.837  1.00  0.00     0.149 C 
BRANCH   5   6
HETATM    6  C   UNL     1     -42.460  59.008 -55.151  1.00  0.00     0.195 C 
BRANCH   6   7
HETATM    7  O   UNL     1     -41.231  59.333 -54.495  1.00  0.00    -0.349 OA
BRANCH   7   8
HETATM    8  C   UNL     1     -41.251  59.390 -53.128  1.00  0.00     0.070 A 
HETATM    9  C   UNL     1     -42.288  59.905 -52.343  1.00  0.00     0.066 A 
HETATM   10  C   UNL     1     -42.192  59.898 -50.946  1.00  0.00     0.037 A 
HETATM   11  C   UNL     1     -41.045  59.368 -50.344  1.00  0.00     0.029 A 
HETATM   12  C   UNL     1     -40.003  58.863 -51.122  1.00  0.00     0.005 A 
HETATM   13  C   UNL     1     -40.108  58.878 -52.510  1.00  0.00     0.037 A 
BRANCH  10  14
HETATM   14  N   UNL     1     -43.200  60.385 -50.086  1.00  0.00    -0.327 N 
HETATM   15  C   UNL     1     -43.528  61.704 -49.832  1.00  0.00     0.218 C 
HETATM   16  C   UNL     1     -44.699  61.834 -48.890  1.00  0.00     0.117 C 
HETATM   17  O   UNL     1     -42.958  62.702 -50.258  1.00  0.00    -0.274 OA
HETATM   18  H   UNL     1     -43.727  59.682 -49.584  1.00  0.00     0.169 HD
ENDBRANCH  10  14
ENDBRANCH   7   8
ENDBRANCH   6   7
ENDBRANCH   5   6
ENDBRANCH   1   5
BRANCH   2  19
HETATM   19  C   UNL     1     -41.323  54.343 -54.241  1.00  0.00     0.032 A 
HETATM   20  C   UNL     1     -41.332  54.671 -52.876  1.00  0.00     0.029 A 
HETATM   21  C   UNL     1     -40.730  53.824 -51.934  1.00  0.00    -0.023 A 
HETATM   22  C   UNL     1     -40.115  52.648 -52.389  1.00  0.00     0.012 A 
HETATM   23  C   UNL     1     -40.095  52.325 -53.749  1.00  0.00     0.002 A 
HETATM   24  C   UNL     1     -40.695  53.173 -54.677  1.00  0.00     0.017 A 
BRANCH  21  25
HETATM   25  C   UNL     1     -40.732  54.142 -50.510  1.00  0.00    -0.002 A 
HETATM   26  C   UNL     1     -41.222  55.312 -49.962  1.00  0.00     0.153 A 
HETATM   27  O   UNL     1     -41.075  55.318 -48.611  1.00  0.00    -0.334 OA
HETATM   28  C   UNL     1     -40.483  54.146 -48.276  1.00  0.00     0.142 A 
HETATM   29  C   UNL     1     -40.249  53.389 -49.400  1.00  0.00     0.038 A 
ENDBRANCH  21  25
ENDBRANCH   2  19
TORSDOF 7
ENDMDL
MODEL 6
REMARK VINA RESULT:      -7.6      1.931      2.655
REMARK  7 active torsions:
REMARK  status: ('A' for Active; 'I' for Inactive)
REMARK       I    between atoms: C_2  and  N_3 
REMARK    1  A    between atoms: N_3  and  C_4 
REMARK    2  A    between atoms: C_6  and  O_7 
REMARK    3  A    between atoms: O_7  and  C_8 
REMARK    4  A    between atoms: C_8  and  C_9 
REMARK    5  A    between atoms: C_9  and  N_10 
REMARK       I    between atoms: N_10  and  C_11 
REMARK    6  A    between atoms: C_11  and  C_12 
REMARK    7  A    between atoms: C_14  and  C_15 
ROOT
HETATM    1  N   UNL     1     -41.768  57.213 -52.614  1.00  0.00    -0.355 N 
HETATM    2  C   UNL     1     -42.315  55.993 -52.277  1.00  0.00     0.251 C 
HETATM    3  O   UNL     1     -43.505  55.728 -52.396  1.00  0.00    -0.268 OA
HETATM    4  H   UNL     1     -40.764  57.312 -52.671  1.00  0.00     0.162 HD
ENDROOT
BRANCH   1   5
HETATM    5  C   UNL     1     -42.592  58.298 -53.114  1.00  0.00     0.149 C 
BRANCH   5   6
HETATM    6  C   UNL     1     -41.804  59.385 -53.849  1.00  0.00     0.195 C 
BRANCH   6   7
HETATM    7  O   UNL     1     -41.376  58.843 -55.102  1.00  0.00    -0.349 OA
BRANCH   7   8
HETATM    8  C   UNL     1     -42.329  58.690 -56.073  1.00  0.00     0.070 A 
HETATM    9  C   UNL     1     -42.729  57.478 -56.645  1.00  0.00     0.066 A 
HETATM   10  C   UNL     1     -43.726  57.452 -57.628  1.00  0.00     0.037 A 
HETATM   11  C   UNL     1     -44.317  58.656 -58.031  1.00  0.00     0.029 A 
HETATM   12  C   UNL     1     -43.914  59.868 -57.472  1.00  0.00     0.005 A 
HETATM   13  C   UNL     1     -42.920  59.881 -56.497  1.00  0.00     0.037 A 
BRANCH  10  14
HETATM   14  N   UNL     1     -44.195  56.272 -58.243  1.00  0.00    -0.327 N 
HETATM   15  C   UNL     1     -43.744  55.695 -59.416  1.00  0.00     0.218 C 
HETATM   16  C   UNL     1     -44.458  54.404 -59.733  1.00  0.00     0.117 C 
HETATM   17  O   UNL     1     -42.895  56.140 -60.180  1.00  0.00    -0.274 OA
HETATM   18  H   UNL     1     -44.964  55.808 -57.776  1.00  0.00     0.169 HD
ENDBRANCH  10  14
ENDBRANCH   7   8
ENDBRANCH   6   7
ENDBRANCH   5   6
ENDBRANCH   1   5
BRANCH   2  19
HETATM   19  C   UNL     1     -41.366  54.967 -51.771  1.00  0.00     0.032 A 
HETATM   20  C   UNL     1     -41.159  53.812 -52.542  1.00  0.00     0.029 A 
HETATM   21  C   UNL     1     -40.294  52.801 -52.098  1.00  0.00    -0.023 A 
HETATM   22  C   UNL     1     -39.647  52.969 -50.865  1.00  0.00     0.012 A 
HETATM   23  C   UNL     1     -39.861  54.113 -50.089  1.00  0.00     0.002 A 
HETATM   24  C   UNL     1     -40.722  55.111 -50.539  1.00  0.00     0.017 A 
BRANCH  21  25
HETATM   25  C   UNL     1     -40.060  51.595 -52.885  1.00  0.00    -0.002 A 
HETATM   26  C   UNL     1     -39.598  50.396 -52.377  1.00  0.00     0.153 A 
HETATM   27  O   UNL     1     -39.472  49.464 -53.358  1.00  0.00    -0.334 OA
HETATM   28  C   UNL     1     -39.851  50.060 -54.515  1.00  0.00     0.142 A 
HETATM   29  C   UNL     1     -40.219  51.365 -54.283  1.00  0.00     0.038 A 
ENDBRANCH  21  25
ENDBRANCH   2  19
TORSDOF 7
ENDMDL
MODEL 7
REMARK VINA RESULT:      -7.5      2.374      4.490
REMARK  7 active torsions:
REMARK  status: ('A' for Active; 'I' for Inactive)
REMARK       I    between atoms: C_2  and  N_3 
REMARK    1  A    between atoms: N_3  and  C_4 
REMARK    2  A    between atoms: C_6  and  O_7 
REMARK    3  A    between atoms: O_7  and  C_8 
REMARK    4  A    between atoms: C_8  and  C_9 
REMARK    5  A    between atoms: C_9  and  N_10 
REMARK       I    between atoms: N_10  and  C_11 
REMARK    6  A    between atoms: C_11  and  C_12 
REMARK    7  A    between atoms: C_14  and  C_15 
ROOT
HETATM    1  N   UNL     1     -43.391  55.960 -54.077  1.00  0.00    -0.355 N 
HETATM    2  C   UNL     1     -43.046  54.702 -54.524  1.00  0.00     0.251 C 
HETATM    3  O   UNL     1     -43.509  54.192 -55.537  1.00  0.00    -0.268 OA
HETATM    4  H   UNL     1     -42.845  56.399 -53.349  1.00  0.00     0.162 HD
ENDROOT
BRANCH   1   5
HETATM    5  C   UNL     1     -44.373  56.768 -54.777  1.00  0.00     0.149 C 
BRANCH   5   6
HETATM    6  C   UNL     1     -43.776  57.980 -55.496  1.00  0.00     0.195 C 
BRANCH   6   7
HETATM    7  O   UNL     1     -42.809  57.500 -56.434  1.00  0.00    -0.349 OA
BRANCH   7   8
HETATM    8  C   UNL     1     -43.081  57.691 -57.762  1.00  0.00     0.070 A 
HETATM    9  C   UNL     1     -44.313  57.472 -58.387  1.00  0.00     0.066 A 
HETATM   10  C   UNL     1     -44.467  57.715 -59.757  1.00  0.00     0.037 A 
HETATM   11  C   UNL     1     -43.371  58.180 -60.495  1.00  0.00     0.029 A 
HETATM   12  C   UNL     1     -42.138  58.389 -59.879  1.00  0.00     0.005 A 
HETATM   13  C   UNL     1     -41.996  58.142 -58.516  1.00  0.00     0.037 A 
BRANCH  10  14
HETATM   14  N   UNL     1     -45.678  57.533 -60.458  1.00  0.00    -0.327 N 
HETATM   15  C   UNL     1     -46.367  56.351 -60.660  1.00  0.00     0.218 C 
HETATM   16  C   UNL     1     -47.655  56.558 -61.417  1.00  0.00     0.117 C 
HETATM   17  O   UNL     1     -46.016  55.225 -60.325  1.00  0.00    -0.274 OA
HETATM   18  H   UNL     1     -46.075  58.365 -60.875  1.00  0.00     0.169 HD
ENDBRANCH  10  14
ENDBRANCH   7   8
ENDBRANCH   6   7
ENDBRANCH   5   6
ENDBRANCH   1   5
BRANCH   2  19
HETATM   19  C   UNL     1     -42.034  53.974 -53.716  1.00  0.00     0.032 A 
HETATM   20  C   UNL     1     -41.938  54.265 -52.346  1.00  0.00     0.029 A 
HETATM   21  C   UNL     1     -40.983  53.624 -51.543  1.00  0.00    -0.023 A 
HETATM   22  C   UNL     1     -40.123  52.692 -52.143  1.00  0.00     0.012 A 
HETATM   23  C   UNL     1     -40.208  52.409 -53.510  1.00  0.00     0.002 A 
HETATM   24  C   UNL     1     -41.160  53.051 -54.299  1.00  0.00     0.017 A 
BRANCH  21  25
HETATM   25  C   UNL     1     -40.870  53.907 -50.117  1.00  0.00    -0.002 A 
HETATM   26  C   UNL     1     -41.327  55.056 -49.499  1.00  0.00     0.153 A 
HETATM   27  O   UNL     1     -41.068  55.031 -48.166  1.00  0.00    -0.334 OA
HETATM   28  C   UNL     1     -40.435  53.861 -47.911  1.00  0.00     0.142 A 
HETATM   29  C   UNL     1     -40.286  53.135 -49.070  1.00  0.00     0.038 A 
ENDBRANCH  21  25
ENDBRANCH   2  19
TORSDOF 7
ENDMDL
MODEL 8
REMARK VINA RESULT:      -7.5      2.355      3.325
REMARK  7 active torsions:
REMARK  status: ('A' for Active; 'I' for Inactive)
REMARK       I    between atoms: C_2  and  N_3 
REMARK    1  A    between atoms: N_3  and  C_4 
REMARK    2  A    between atoms: C_6  and  O_7 
REMARK    3  A    between atoms: O_7  and  C_8 
REMARK    4  A    between atoms: C_8  and  C_9 
REMARK    5  A    between atoms: C_9  and  N_10 
REMARK       I    between atoms: N_10  and  C_11 
REMARK    6  A    between atoms: C_11  and  C_12 
REMARK    7  A    between atoms: C_14  and  C_15 
ROOT
HETATM    1  N   UNL     1     -42.855  55.450 -54.154  1.00  0.00    -0.355 N 
HETATM    2  C   UNL     1     -42.660  55.569 -52.794  1.00  0.00     0.251 C 
HETATM    3  O   UNL     1     -43.284  56.349 -52.086  1.00  0.00    -0.268 OA
HETATM    4  H   UNL     1     -42.451  54.668 -54.650  1.00  0.00     0.162 HD
ENDROOT
BRANCH   1   5
HETATM    5  C   UNL     1     -43.815  56.283 -54.855  1.00  0.00     0.149 C 
BRANCH   5   6
HETATM    6  C   UNL     1     -43.173  57.314 -55.786  1.00  0.00     0.195 C 
BRANCH   6   7
HETATM    7  O   UNL     1     -42.554  56.605 -56.864  1.00  0.00    -0.349 OA
BRANCH   7   8
HETATM    8  C   UNL     1     -43.250  56.528 -58.040  1.00  0.00     0.070 A 
HETATM    9  C   UNL     1     -43.830  57.603 -58.721  1.00  0.00     0.066 A 
HETATM   10  C   UNL     1     -44.511  57.396 -59.927  1.00  0.00     0.037 A 
HETATM   11  C   UNL     1     -44.604  56.097 -60.442  1.00  0.00     0.029 A 
HETATM   12  C   UNL     1     -44.037  55.020 -59.761  1.00  0.00     0.005 A 
HETATM   13  C   UNL     1     -43.364  55.239 -58.562  1.00  0.00     0.037 A 
BRANCH  10  14
HETATM   14  N   UNL     1     -45.110  58.427 -60.681  1.00  0.00    -0.327 N 
HETATM   15  C   UNL     1     -46.311  59.066 -60.432  1.00  0.00     0.218 C 
HETATM   16  C   UNL     1     -46.600  60.157 -61.433  1.00  0.00     0.117 C 
HETATM   17  O   UNL     1     -47.116  58.807 -59.544  1.00  0.00    -0.274 OA
HETATM   18  H   UNL     1     -44.606  58.716 -61.509  1.00  0.00     0.169 HD
ENDBRANCH  10  14
ENDBRANCH   7   8
ENDBRANCH   6   7
ENDBRANCH   5   6
ENDBRANCH   1   5
BRANCH   2  19
HETATM   19  C   UNL     1     -41.645  54.663 -52.195  1.00  0.00     0.032 A 
HETATM   20  C   UNL     1     -41.321  53.480 -52.878  1.00  0.00     0.029 A 
HETATM   21  C   UNL     1     -40.389  52.578 -52.344  1.00  0.00    -0.023 A 
HETATM   22  C   UNL     1     -39.794  52.884 -51.110  1.00  0.00     0.012 A 
HETATM   23  C   UNL     1     -40.123  54.057 -50.423  1.00  0.00     0.002 A 
HETATM   24  C   UNL     1     -41.051  54.945 -50.962  1.00  0.00     0.017 A 
BRANCH  21  25
HETATM   25  C   UNL     1     -40.033  51.346 -53.038  1.00  0.00    -0.002 A 
HETATM   26  C   UNL     1     -39.634  50.176 -52.420  1.00  0.00     0.153 A 
HETATM   27  O   UNL     1     -39.362  49.208 -53.333  1.00  0.00    -0.334 OA
HETATM   28  C   UNL     1     -39.581  49.749 -54.556  1.00  0.00     0.142 A 
HETATM   29  C   UNL     1     -39.992  51.056 -54.434  1.00  0.00     0.038 A 
ENDBRANCH  21  25
ENDBRANCH   2  19
TORSDOF 7
ENDMDL
MODEL 9
REMARK VINA RESULT:      -7.4      1.968      3.002
REMARK  7 active torsions:
REMARK  status: ('A' for Active; 'I' for Inactive)
REMARK       I    between atoms: C_2  and  N_3 
REMARK    1  A    between atoms: N_3  and  C_4 
REMARK    2  A    between atoms: C_6  and  O_7 
REMARK    3  A    between atoms: O_7  and  C_8 
REMARK    4  A    between atoms: C_8  and  C_9 
REMARK    5  A    between atoms: C_9  and  N_10 
REMARK       I    between atoms: N_10  and  C_11 
REMARK    6  A    between atoms: C_11  and  C_12 
REMARK    7  A    between atoms: C_14  and  C_15 
ROOT
HETATM    1  N   UNL     1     -42.879  56.605 -52.940  1.00  0.00    -0.355 N 
HETATM    2  C   UNL     1     -41.886  55.859 -52.341  1.00  0.00     0.251 C 
HETATM    3  O   UNL     1     -41.553  55.988 -51.170  1.00  0.00    -0.268 OA
HETATM    4  H   UNL     1     -43.235  56.329 -53.844  1.00  0.00     0.162 HD
ENDROOT
BRANCH   1   5
HETATM    5  C   UNL     1     -43.589  57.640 -52.211  1.00  0.00     0.149 C 
BRANCH   5   6
HETATM    6  C   UNL     1     -43.681  58.971 -52.961  1.00  0.00     0.195 C 
BRANCH   6   7
HETATM    7  O   UNL     1     -44.525  58.774 -54.100  1.00  0.00    -0.349 OA
BRANCH   7   8
HETATM    8  C   UNL     1     -43.911  58.469 -55.284  1.00  0.00     0.070 A 
HETATM    9  C   UNL     1     -44.191  57.363 -56.093  1.00  0.00     0.066 A 
HETATM   10  C   UNL     1     -43.497  57.166 -57.292  1.00  0.00     0.037 A 
HETATM   11  C   UNL     1     -42.516  58.090 -57.673  1.00  0.00     0.029 A 
HETATM   12  C   UNL     1     -42.225  59.189 -56.864  1.00  0.00     0.005 A 
HETATM   13  C   UNL     1     -42.921  59.373 -55.672  1.00  0.00     0.037 A 
BRANCH  10  14
HETATM   14  N   UNL     1     -43.731  56.085 -58.170  1.00  0.00    -0.327 N 
HETATM   15  C   UNL     1     -44.519  56.076 -59.306  1.00  0.00     0.218 C 
HETATM   16  C   UNL     1     -44.486  54.746 -60.018  1.00  0.00     0.117 C 
HETATM   17  O   UNL     1     -45.218  56.990 -59.727  1.00  0.00    -0.274 OA
HETATM   18  H   UNL     1     -43.281  55.212 -57.922  1.00  0.00     0.169 HD
ENDBRANCH  10  14
ENDBRANCH   7   8
ENDBRANCH   6   7
ENDBRANCH   5   6
ENDBRANCH   1   5
BRANCH   2  19
HETATM   19  C   UNL     1     -41.231  54.834 -53.196  1.00  0.00     0.032 A 
HETATM   20  C   UNL     1     -40.904  53.595 -52.622  1.00  0.00     0.029 A 
HETATM   21  C   UNL     1     -40.262  52.603 -53.378  1.00  0.00    -0.023 A 
HETATM   22  C   UNL     1     -39.949  52.882 -54.717  1.00  0.00     0.012 A 
HETATM   23  C   UNL     1     -40.262  54.119 -55.288  1.00  0.00     0.002 A 
HETATM   24  C   UNL     1     -40.900  55.098 -54.529  1.00  0.00     0.017 A 
BRANCH  21  25
HETATM   25  C   UNL     1     -39.919  51.307 -52.803  1.00  0.00    -0.002 A 
HETATM   26  C   UNL     1     -39.795  50.132 -53.521  1.00  0.00     0.153 A 
HETATM   27  O   UNL     1     -39.477  49.093 -52.705  1.00  0.00    -0.334 OA
HETATM   28  C   UNL     1     -39.395  49.591 -51.448  1.00  0.00     0.142 A 
HETATM   29  C   UNL     1     -39.659  50.941 -51.450  1.00  0.00     0.038 A 
ENDBRANCH  21  25
ENDBRANCH   2  19
TORSDOF 7
ENDMDL
MODEL 10
REMARK VINA RESULT:      -7.2      2.458      4.328
REMARK  7 active torsions:
REMARK  status: ('A' for Active; 'I' for Inactive)
REMARK       I    between atoms: C_2  and  N_3 
REMARK    1  A    between atoms: N_3  and  C_4 
REMARK    2  A    between atoms: C_6  and  O_7 
REMARK    3  A    between atoms: O_7  and  C_8 
REMARK    4  A    between atoms: C_8  and  C_9 
REMARK    5  A    between atoms: C_9  and  N_10 
REMARK       I    between atoms: N_10  and  C_11 
REMARK    6  A    between atoms: C_11  and  C_12 
REMARK    7  A    between atoms: C_14  and  C_15 
ROOT
HETATM    1  N   UNL     1     -42.370  58.587 -54.810  1.00  0.00    -0.355 N 
HETATM    2  C   UNL     1     -41.503  57.710 -54.192  1.00  0.00     0.251 C 
HETATM    3  O   UNL     1     -40.556  58.065 -53.503  1.00  0.00    -0.268 OA
HETATM    4  H   UNL     1     -43.232  58.241 -55.206  1.00  0.00     0.162 HD
ENDROOT
BRANCH   1   5
HETATM    5  C   UNL     1     -42.191  60.023 -54.706  1.00  0.00     0.149 C 
BRANCH   5   6
HETATM    6  C   UNL     1     -42.398  60.769 -56.027  1.00  0.00     0.195 C 
BRANCH   6   7
HETATM    7  O   UNL     1     -41.364  60.358 -56.927  1.00  0.00    -0.349 OA
BRANCH   7   8
HETATM    8  C   UNL     1     -41.756  59.765 -58.096  1.00  0.00     0.070 A 
HETATM    9  C   UNL     1     -42.163  58.436 -58.245  1.00  0.00     0.066 A 
HETATM   10  C   UNL     1     -42.550  57.948 -59.499  1.00  0.00     0.037 A 
HETATM   11  C   UNL     1     -42.525  58.809 -60.603  1.00  0.00     0.029 A 
HETATM   12  C   UNL     1     -42.109  60.133 -60.462  1.00  0.00     0.005 A 
HETATM   13  C   UNL     1     -41.724  60.606 -59.210  1.00  0.00     0.037 A 
BRANCH  10  14
HETATM   14  N   UNL     1     -42.987  56.625 -59.730  1.00  0.00    -0.327 N 
HETATM   15  C   UNL     1     -44.265  56.121 -59.580  1.00  0.00     0.218 C 
HETATM   16  C   UNL     1     -44.359  54.667 -59.970  1.00  0.00     0.117 C 
HETATM   17  O   UNL     1     -45.249  56.715 -59.152  1.00  0.00    -0.274 OA
HETATM   18  H   UNL     1     -42.272  55.971 -60.020  1.00  0.00     0.169 HD
ENDBRANCH  10  14
ENDBRANCH   7   8
ENDBRANCH   6   7
ENDBRANCH   5   6
ENDBRANCH   1   5
BRANCH   2  19
HETATM   19  C   UNL     1     -41.790  56.263 -54.380  1.00  0.00     0.032 A 
HETATM   20  C   UNL     1     -41.043  55.333 -53.640  1.00  0.00     0.029 A 
HETATM   21  C   UNL     1     -41.257  53.955 -53.798  1.00  0.00    -0.023 A 
HETATM   22  C   UNL     1     -42.229  53.532 -54.717  1.00  0.00     0.012 A 
HETATM   23  C   UNL     1     -42.967  54.456 -55.464  1.00  0.00     0.002 A 
HETATM   24  C   UNL     1     -42.746  55.821 -55.299  1.00  0.00     0.017 A 
BRANCH  21  25
HETATM   25  C   UNL     1     -40.497  52.972 -53.036  1.00  0.00    -0.002 A 
HETATM   26  C   UNL     1     -40.234  53.052 -51.681  1.00  0.00     0.153 A 
HETATM   27  O   UNL     1     -39.495  51.991 -51.262  1.00  0.00    -0.334 OA
HETATM   28  C   UNL     1     -39.271  51.216 -52.351  1.00  0.00     0.142 A 
HETATM   29  C   UNL     1     -39.860  51.770 -53.463  1.00  0.00     0.038 A 
ENDBRANCH  21  25
ENDBRANCH   2  19
TORSDOF 7
ENDMDL
