MODEL 1
REMARK VINA RESULT:      -8.7      0.000      0.000
REMARK  7 active torsions:
REMARK  status: ('A' for Active; 'I' for Inactive)
REMARK    1  A    between atoms: C_2  and  C_3 
REMARK    2  A    between atoms: C_4  and  N_5 
REMARK       I    between atoms: N_5  and  C_6 
REMARK    3  A    between atoms: C_6  and  C_7 
REMARK    4  A    between atoms: C_8  and  N_9 
REMARK       I    between atoms: N_9  and  C_10 
REMARK    5  A    between atoms: C_10  and  C_11 
REMARK    6  A    between atoms: C_11  and  N_12 
REMARK    7  A    between atoms: C_25  and  C_26 
ROOT
HETATM    1  C   UNL     1     -42.506  55.439 -54.226  1.00  0.00     0.073 A 
HETATM    2  C   UNL     1     -43.316  56.034 -55.172  1.00  0.00     0.093 A 
HETATM    3  S   UNL     1     -44.052  57.468 -54.645  1.00  0.00    -0.075 SA
HETATM    4  C   UNL     1     -43.445  57.250 -53.077  1.00  0.00    -0.008 A 
HETATM    5  C   UNL     1     -42.611  56.152 -52.967  1.00  0.00    -0.026 A 
HETATM    6  C   UNL     1     -41.843  55.877 -51.705  1.00  0.00     0.041 C 
HETATM    7  C   UNL     1     -42.223  56.815 -50.542  1.00  0.00     0.010 C 
HETATM    8  C   UNL     1     -42.642  58.266 -50.921  1.00  0.00    -0.002 C 
HETATM    9  C   UNL     1     -43.773  58.202 -51.976  1.00  0.00     0.052 C 
ENDROOT
BRANCH   1  10
HETATM   10  C   UNL     1     -41.579  54.345 -54.536  1.00  0.00     0.259 C 
HETATM   11  N   UNL     1     -41.815  53.195 -53.812  1.00  0.00    -0.322 N 
HETATM   12  H   UNL     1     -42.739  53.107 -53.419  1.00  0.00     0.169 HD
HETATM   13  O   UNL     1     -40.725  54.480 -55.407  1.00  0.00    -0.267 OA
BRANCH  11  14
HETATM   14  C   UNL     1     -40.947  52.085 -53.701  1.00  0.00     0.041 A 
HETATM   15  C   UNL     1     -39.946  52.066 -52.706  1.00  0.00    -0.032 A 
HETATM   16  C   UNL     1     -39.041  50.986 -52.666  1.00  0.00     0.009 A 
HETATM   17  C   UNL     1     -39.115  49.950 -53.595  1.00  0.00     0.001 A 
HETATM   18  C   UNL     1     -40.105  49.969 -54.569  1.00  0.00     0.002 A 
HETATM   19  C   UNL     1     -41.016  51.026 -54.619  1.00  0.00     0.030 A 
BRANCH  15  20
HETATM   20  C   UNL     1     -39.859  53.089 -51.596  1.00  0.00     0.036 C 
HETATM   21  C   UNL     1     -40.540  52.585 -50.329  1.00  0.00     0.010 C 
ENDBRANCH  15  20
ENDBRANCH  11  14
ENDBRANCH   1  10
BRANCH   2  22
HETATM   22  N   UNL     1     -43.681  55.708 -56.459  1.00  0.00    -0.319 N 
HETATM   23  C   UNL     1     -43.083  56.345 -57.525  1.00  0.00     0.248 C 
HETATM   24  O   UNL     1     -42.216  57.219 -57.464  1.00  0.00    -0.271 OA
HETATM   25  H   UNL     1     -44.050  54.770 -56.564  1.00  0.00     0.169 HD
BRANCH  23  26
HETATM   26  C   UNL     1     -43.386  55.717 -58.885  1.00  0.00     0.337 C 
BRANCH  26  27
HETATM   27  N   UNL     1     -44.847  55.982 -59.257  1.00  0.00    -0.059 N 
HETATM   28  H   UNL     1     -45.388  55.344 -58.647  1.00  0.00     0.280 HD
HETATM   29  C   UNL     1     -45.295  57.400 -58.918  1.00  0.00     0.261 C 
HETATM   30  C   UNL     1     -46.768  57.584 -59.302  1.00  0.00     0.195 C 
HETATM   31  O   UNL     1     -46.972  57.285 -60.686  1.00  0.00    -0.388 OA
HETATM   32  C   UNL     1     -46.639  55.925 -60.987  1.00  0.00     0.195 C 
HETATM   33  C   UNL     1     -45.159  55.647 -60.701  1.00  0.00     0.261 C 
ENDBRANCH  26  27
ENDBRANCH  23  26
ENDBRANCH   2  22
BRANCH   8  34
HETATM   34  C   UNL     1     -41.471  59.280 -51.225  1.00  0.00    -0.047 C 
HETATM   35  C   UNL     1     -41.216  59.541 -52.718  1.00  0.00     0.015 C 
HETATM   36  C   UNL     1     -41.752  60.648 -50.557  1.00  0.00     0.015 C 
HETATM   37  C   UNL     1     -40.158  58.743 -50.608  1.00  0.00     0.015 C 
ENDBRANCH   8  34
TORSDOF 7
ENDMDL
MODEL 2
REMARK VINA RESULT:      -8.6      1.206      1.670
REMARK  7 active torsions:
REMARK  status: ('A' for Active; 'I' for Inactive)
REMARK    1  A    between atoms: C_2  and  C_3 
REMARK    2  A    between atoms: C_4  and  N_5 
REMARK       I    between atoms: N_5  and  C_6 
REMARK    3  A    between atoms: C_6  and  C_7 
REMARK    4  A    between atoms: C_8  and  N_9 
REMARK       I    between atoms: N_9  and  C_10 
REMARK    5  A    between atoms: C_10  and  C_11 
REMARK    6  A    between atoms: C_11  and  N_12 
REMARK    7  A    between atoms: C_25  and  C_26 
ROOT
HETATM    1  C   UNL     1     -43.152  56.451 -54.452  1.00  0.00     0.073 A 
HETATM    2  C   UNL     1     -43.829  56.880 -55.577  1.00  0.00     0.093 A 
HETATM    3  S   UNL     1     -44.794  58.249 -55.320  1.00  0.00    -0.075 SA
HETATM    4  C   UNL     1     -44.472  58.213 -53.656  1.00  0.00    -0.008 A 
HETATM    5  C   UNL     1     -43.564  57.232 -53.301  1.00  0.00    -0.026 A 
HETATM    6  C   UNL     1     -43.023  57.137 -51.902  1.00  0.00     0.041 C 
HETATM    7  C   UNL     1     -43.708  58.102 -50.914  1.00  0.00     0.010 C 
HETATM    8  C   UNL     1     -44.196  59.463 -51.491  1.00  0.00    -0.002 C 
HETATM    9  C   UNL     1     -45.097  59.194 -52.720  1.00  0.00     0.052 C 
ENDROOT
BRANCH   1  10
HETATM   10  C   UNL     1     -42.077  55.455 -54.493  1.00  0.00     0.259 C 
HETATM   11  N   UNL     1     -42.353  54.309 -53.777  1.00  0.00    -0.322 N 
HETATM   12  H   UNL     1     -43.328  54.133 -53.591  1.00  0.00     0.169 HD
HETATM   13  O   UNL     1     -41.067  55.656 -55.161  1.00  0.00    -0.267 OA
BRANCH  11  14
HETATM   14  C   UNL     1     -41.426  53.303 -53.420  1.00  0.00     0.041 A 
HETATM   15  C   UNL     1     -40.820  53.320 -52.145  1.00  0.00    -0.032 A 
HETATM   16  C   UNL     1     -39.839  52.354 -51.840  1.00  0.00     0.009 A 
HETATM   17  C   UNL     1     -39.456  51.397 -52.777  1.00  0.00     0.001 A 
HETATM   18  C   UNL     1     -40.059  51.380 -54.029  1.00  0.00     0.002 A 
HETATM   19  C   UNL     1     -41.039  52.323 -54.345  1.00  0.00     0.030 A 
BRANCH  15  20
HETATM   20  C   UNL     1     -41.249  54.251 -51.033  1.00  0.00     0.036 C 
HETATM   21  C   UNL     1     -40.159  54.385 -49.977  1.00  0.00     0.010 C 
ENDBRANCH  15  20
ENDBRANCH  11  14
ENDBRANCH   1  10
BRANCH   2  22
HETATM   22  N   UNL     1     -43.910  56.425 -56.874  1.00  0.00    -0.319 N 
HETATM   23  C   UNL     1     -43.046  56.914 -57.829  1.00  0.00     0.248 C 
HETATM   24  O   UNL     1     -42.162  57.755 -57.655  1.00  0.00    -0.271 OA
HETATM   25  H   UNL     1     -44.305  55.496 -56.967  1.00  0.00     0.169 HD
BRANCH  23  26
HETATM   26  C   UNL     1     -43.070  56.149 -59.152  1.00  0.00     0.337 C 
BRANCH  26  27
HETATM   27  N   UNL     1     -44.282  56.591 -59.976  1.00  0.00    -0.059 N 
HETATM   28  H   UNL     1     -43.920  56.668 -60.943  1.00  0.00     0.280 HD
HETATM   29  C   UNL     1     -45.391  55.544 -60.004  1.00  0.00     0.261 C 
HETATM   30  C   UNL     1     -46.558  56.048 -60.859  1.00  0.00     0.195 C 
HETATM   31  O   UNL     1     -47.035  57.307 -60.375  1.00  0.00    -0.388 OA
HETATM   32  C   UNL     1     -46.020  58.316 -60.436  1.00  0.00     0.195 C 
HETATM   33  C   UNL     1     -44.823  57.942 -59.555  1.00  0.00     0.261 C 
ENDBRANCH  26  27
ENDBRANCH  23  26
ENDBRANCH   2  22
BRANCH   8  34
HETATM   34  C   UNL     1     -43.100  60.585 -51.670  1.00  0.00    -0.047 C 
HETATM   35  C   UNL     1     -42.450  60.635 -53.062  1.00  0.00     0.015 C 
HETATM   36  C   UNL     1     -43.704  61.983 -51.391  1.00  0.00     0.015 C 
HETATM   37  C   UNL     1     -41.974  60.369 -50.631  1.00  0.00     0.015 C 
ENDBRANCH   8  34
TORSDOF 7
ENDMDL
MODEL 3
REMARK VINA RESULT:      -8.2      2.759      6.996
REMARK  7 active torsions:
REMARK  status: ('A' for Active; 'I' for Inactive)
REMARK    1  A    between atoms: C_2  and  C_3 
REMARK    2  A    between atoms: C_4  and  N_5 
REMARK       I    between atoms: N_5  and  C_6 
REMARK    3  A    between atoms: C_6  and  C_7 
REMARK    4  A    between atoms: C_8  and  N_9 
REMARK       I    between atoms: N_9  and  C_10 
REMARK    5  A    between atoms: C_10  and  C_11 
REMARK    6  A    between atoms: C_11  and  N_12 
REMARK    7  A    between atoms: C_25  and  C_26 
ROOT
HETATM    1  C   UNL     1     -42.951  56.668 -55.818  1.00  0.00     0.073 A 
HETATM    2  C   UNL     1     -43.047  57.916 -55.235  1.00  0.00     0.093 A 
HETATM    3  S   UNL     1     -43.531  59.141 -56.303  1.00  0.00    -0.075 SA
HETATM    4  C   UNL     1     -43.464  58.074 -57.619  1.00  0.00    -0.008 A 
HETATM    5  C   UNL     1     -43.171  56.774 -57.248  1.00  0.00    -0.026 A 
HETATM    6  C   UNL     1     -43.223  55.647 -58.241  1.00  0.00     0.041 C 
HETATM    7  C   UNL     1     -43.449  56.120 -59.691  1.00  0.00     0.010 C 
HETATM    8  C   UNL     1     -44.323  57.394 -59.883  1.00  0.00    -0.002 C 
HETATM    9  C   UNL     1     -43.746  58.535 -59.010  1.00  0.00     0.052 C 
ENDROOT
BRANCH   1  10
HETATM   10  C   UNL     1     -42.799  55.431 -55.046  1.00  0.00     0.259 C 
HETATM   11  N   UNL     1     -41.553  55.282 -54.474  1.00  0.00    -0.322 N 
HETATM   12  H   UNL     1     -41.019  56.129 -54.362  1.00  0.00     0.169 HD
HETATM   13  O   UNL     1     -43.745  54.660 -54.913  1.00  0.00    -0.267 OA
BRANCH  11  14
HETATM   14  C   UNL     1     -41.032  54.097 -53.904  1.00  0.00     0.041 A 
HETATM   15  C   UNL     1     -41.022  53.932 -52.503  1.00  0.00    -0.032 A 
HETATM   16  C   UNL     1     -40.425  52.778 -51.954  1.00  0.00     0.009 A 
HETATM   17  C   UNL     1     -39.842  51.812 -52.771  1.00  0.00     0.001 A 
HETATM   18  C   UNL     1     -39.859  51.976 -54.150  1.00  0.00     0.002 A 
HETATM   19  C   UNL     1     -40.454  53.107 -54.712  1.00  0.00     0.030 A 
BRANCH  15  20
HETATM   20  C   UNL     1     -41.724  54.872 -51.549  1.00  0.00     0.036 C 
HETATM   21  C   UNL     1     -43.175  54.458 -51.337  1.00  0.00     0.010 C 
ENDBRANCH  15  20
ENDBRANCH  11  14
ENDBRANCH   1  10
BRANCH   2  22
HETATM   22  N   UNL     1     -42.816  58.398 -53.966  1.00  0.00    -0.319 N 
HETATM   23  C   UNL     1     -43.703  58.115 -52.951  1.00  0.00     0.248 C 
HETATM   24  O   UNL     1     -44.735  57.447 -53.045  1.00  0.00    -0.271 OA
HETATM   25  H   UNL     1     -41.840  58.578 -53.759  1.00  0.00     0.169 HD
BRANCH  23  26
HETATM   26  C   UNL     1     -43.204  58.486 -51.555  1.00  0.00     0.337 C 
BRANCH  26  27
HETATM   27  N   UNL     1     -43.677  59.898 -51.200  1.00  0.00    -0.059 N 
HETATM   28  H   UNL     1     -43.898  60.332 -52.114  1.00  0.00     0.280 HD
HETATM   29  C   UNL     1     -44.969  59.901 -50.388  1.00  0.00     0.261 C 
HETATM   30  C   UNL     1     -45.388  61.344 -50.087  1.00  0.00     0.195 C 
HETATM   31  O   UNL     1     -44.339  62.046 -49.412  1.00  0.00    -0.388 OA
HETATM   32  C   UNL     1     -43.155  62.125 -50.213  1.00  0.00     0.195 C 
HETATM   33  C   UNL     1     -42.607  60.727 -50.520  1.00  0.00     0.261 C 
ENDBRANCH  26  27
ENDBRANCH  23  26
ENDBRANCH   2  22
BRANCH   8  34
HETATM   34  C   UNL     1     -45.887  57.193 -59.810  1.00  0.00    -0.047 C 
HETATM   35  C   UNL     1     -46.490  57.334 -58.404  1.00  0.00     0.015 C 
HETATM   36  C   UNL     1     -46.608  58.210 -60.728  1.00  0.00     0.015 C 
HETATM   37  C   UNL     1     -46.245  55.783 -60.338  1.00  0.00     0.015 C 
ENDBRANCH   8  34
TORSDOF 7
ENDMDL
MODEL 4
REMARK VINA RESULT:      -8.1      1.833      2.242
REMARK  7 active torsions:
REMARK  status: ('A' for Active; 'I' for Inactive)
REMARK    1  A    between atoms: C_2  and  C_3 
REMARK    2  A    between atoms: C_4  and  N_5 
REMARK       I    between atoms: N_5  and  C_6 
REMARK    3  A    between atoms: C_6  and  C_7 
REMARK    4  A    between atoms: C_8  and  N_9 
REMARK       I    between atoms: N_9  and  C_10 
REMARK    5  A    between atoms: C_10  and  C_11 
REMARK    6  A    between atoms: C_11  and  N_12 
REMARK    7  A    between atoms: C_25  and  C_26 
ROOT
HETATM    1  C   UNL     1     -42.359  56.274 -54.839  1.00  0.00     0.073 A 
HETATM    2  C   UNL     1     -42.554  56.941 -56.032  1.00  0.00     0.093 A 
HETATM    3  S   UNL     1     -43.554  58.303 -55.905  1.00  0.00    -0.075 SA
HETATM    4  C   UNL     1     -43.897  57.949 -54.282  1.00  0.00    -0.008 A 
HETATM    5  C   UNL     1     -43.188  56.862 -53.804  1.00  0.00    -0.026 A 
HETATM    6  C   UNL     1     -43.225  56.484 -52.350  1.00  0.00     0.041 C 
HETATM    7  C   UNL     1     -44.245  57.299 -51.531  1.00  0.00     0.010 C 
HETATM    8  C   UNL     1     -44.484  58.771 -51.979  1.00  0.00    -0.002 C 
HETATM    9  C   UNL     1     -44.841  58.786 -53.485  1.00  0.00     0.052 C 
ENDROOT
BRANCH   1  10
HETATM   10  C   UNL     1     -41.343  55.232 -54.658  1.00  0.00     0.259 C 
HETATM   11  N   UNL     1     -41.845  54.046 -54.164  1.00  0.00    -0.322 N 
HETATM   12  H   UNL     1     -42.835  53.904 -54.288  1.00  0.00     0.169 HD
HETATM   13  O   UNL     1     -40.177  55.437 -54.982  1.00  0.00    -0.267 OA
BRANCH  11  14
HETATM   14  C   UNL     1     -41.088  52.969 -53.649  1.00  0.00     0.041 A 
HETATM   15  C   UNL     1     -40.528  53.053 -52.356  1.00  0.00    -0.032 A 
HETATM   16  C   UNL     1     -39.711  52.001 -51.894  1.00  0.00     0.009 A 
HETATM   17  C   UNL     1     -39.442  50.893 -52.695  1.00  0.00     0.001 A 
HETATM   18  C   UNL     1     -39.999  50.812 -53.965  1.00  0.00     0.002 A 
HETATM   19  C   UNL     1     -40.819  51.840 -54.436  1.00  0.00     0.030 A 
BRANCH  15  20
HETATM   20  C   UNL     1     -40.853  54.162 -51.380  1.00  0.00     0.036 C 
HETATM   21  C   UNL     1     -40.035  54.027 -50.101  1.00  0.00     0.010 C 
ENDBRANCH  15  20
ENDBRANCH  11  14
ENDBRANCH   1  10
BRANCH   2  22
HETATM   22  N   UNL     1     -42.127  56.732 -57.324  1.00  0.00    -0.319 N 
HETATM   23  C   UNL     1     -42.877  55.952 -58.179  1.00  0.00     0.248 C 
HETATM   24  O   UNL     1     -43.940  55.388 -57.912  1.00  0.00    -0.271 OA
HETATM   25  H   UNL     1     -41.529  57.463 -57.690  1.00  0.00     0.169 HD
BRANCH  23  26
HETATM   26  C   UNL     1     -42.432  56.011 -59.639  1.00  0.00     0.337 C 
BRANCH  26  27
HETATM   27  N   UNL     1     -42.940  57.307 -60.277  1.00  0.00    -0.059 N 
HETATM   28  H   UNL     1     -43.119  57.054 -61.265  1.00  0.00     0.280 HD
HETATM   29  C   UNL     1     -44.271  57.771 -59.693  1.00  0.00     0.261 C 
HETATM   30  C   UNL     1     -44.721  59.059 -60.391  1.00  0.00     0.195 C 
HETATM   31  O   UNL     1     -43.716  60.072 -60.283  1.00  0.00    -0.388 OA
HETATM   32  C   UNL     1     -42.494  59.674 -60.913  1.00  0.00     0.195 C 
HETATM   33  C   UNL     1     -41.915  58.422 -60.244  1.00  0.00     0.261 C 
ENDBRANCH  26  27
ENDBRANCH  23  26
ENDBRANCH   2  22
BRANCH   8  34
HETATM   34  C   UNL     1     -43.412  59.832 -51.513  1.00  0.00    -0.047 C 
HETATM   35  C   UNL     1     -42.073  59.235 -51.051  1.00  0.00     0.015 C 
HETATM   36  C   UNL     1     -43.104  60.830 -52.655  1.00  0.00     0.015 C 
HETATM   37  C   UNL     1     -43.989  60.659 -50.339  1.00  0.00     0.015 C 
ENDBRANCH   8  34
TORSDOF 7
ENDMDL
MODEL 5
REMARK VINA RESULT:      -8.1      2.203      3.416
REMARK  7 active torsions:
REMARK  status: ('A' for Active; 'I' for Inactive)
REMARK    1  A    between atoms: C_2  and  C_3 
REMARK    2  A    between atoms: C_4  and  N_5 
REMARK       I    between atoms: N_5  and  C_6 
REMARK    3  A    between atoms: C_6  and  C_7 
REMARK    4  A    between atoms: C_8  and  N_9 
REMARK       I    between atoms: N_9  and  C_10 
REMARK    5  A    between atoms: C_10  and  C_11 
REMARK    6  A    between atoms: C_11  and  N_12 
REMARK    7  A    between atoms: C_25  and  C_26 
ROOT
HETATM    1  C   UNL     1     -43.266  58.043 -53.338  1.00  0.00     0.073 A 
HETATM    2  C   UNL     1     -43.556  58.392 -54.643  1.00  0.00     0.093 A 
HETATM    3  S   UNL     1     -44.794  59.541 -54.790  1.00  0.00    -0.075 SA
HETATM    4  C   UNL     1     -45.098  59.484 -53.123  1.00  0.00    -0.008 A 
HETATM    5  C   UNL     1     -44.211  58.675 -52.437  1.00  0.00    -0.026 A 
HETATM    6  C   UNL     1     -44.208  58.615 -50.935  1.00  0.00     0.041 C 
HETATM    7  C   UNL     1     -45.378  59.384 -50.290  1.00  0.00     0.010 C 
HETATM    8  C   UNL     1     -45.876  60.656 -51.037  1.00  0.00    -0.002 C 
HETATM    9  C   UNL     1     -46.198  60.283 -52.505  1.00  0.00     0.052 C 
ENDROOT
BRANCH   1  10
HETATM   10  C   UNL     1     -42.079  57.270 -52.959  1.00  0.00     0.259 C 
HETATM   11  N   UNL     1     -42.341  55.942 -52.695  1.00  0.00    -0.322 N 
HETATM   12  H   UNL     1     -43.195  55.578 -53.088  1.00  0.00     0.169 HD
HETATM   13  O   UNL     1     -40.971  57.798 -52.944  1.00  0.00    -0.267 OA
BRANCH  11  14
HETATM   14  C   UNL     1     -41.467  55.027 -52.065  1.00  0.00     0.041 A 
HETATM   15  C   UNL     1     -41.051  53.863 -52.746  1.00  0.00    -0.032 A 
HETATM   16  C   UNL     1     -40.243  52.926 -52.070  1.00  0.00     0.009 A 
HETATM   17  C   UNL     1     -39.860  53.128 -50.745  1.00  0.00     0.001 A 
HETATM   18  C   UNL     1     -40.267  54.279 -50.081  1.00  0.00     0.002 A 
HETATM   19  C   UNL     1     -41.060  55.222 -50.737  1.00  0.00     0.030 A 
BRANCH  15  20
HETATM   20  C   UNL     1     -41.327  53.614 -54.212  1.00  0.00     0.036 C 
HETATM   21  C   UNL     1     -40.234  54.217 -55.087  1.00  0.00     0.010 C 
ENDBRANCH  15  20
ENDBRANCH  11  14
ENDBRANCH   1  10
BRANCH   2  22
HETATM   22  N   UNL     1     -43.071  57.994 -55.868  1.00  0.00    -0.319 N 
HETATM   23  C   UNL     1     -43.172  56.674 -56.252  1.00  0.00     0.248 C 
HETATM   24  O   UNL     1     -43.669  55.757 -55.597  1.00  0.00    -0.271 OA
HETATM   25  H   UNL     1     -43.042  58.730 -56.565  1.00  0.00     0.169 HD
BRANCH  23  26
HETATM   26  C   UNL     1     -42.834  56.418 -57.720  1.00  0.00     0.337 C 
BRANCH  26  27
HETATM   27  N   UNL     1     -44.097  55.980 -58.467  1.00  0.00    -0.059 N 
HETATM   28  H   UNL     1     -44.644  55.455 -57.762  1.00  0.00     0.280 HD
HETATM   29  C   UNL     1     -44.961  57.158 -58.906  1.00  0.00     0.261 C 
HETATM   30  C   UNL     1     -46.210  56.643 -59.629  1.00  0.00     0.195 C 
HETATM   31  O   UNL     1     -45.849  55.813 -60.737  1.00  0.00    -0.388 OA
HETATM   32  C   UNL     1     -45.117  54.657 -60.315  1.00  0.00     0.195 C 
HETATM   33  C   UNL     1     -43.804  55.058 -59.633  1.00  0.00     0.261 C 
ENDBRANCH  26  27
ENDBRANCH  23  26
ENDBRANCH   2  22
BRANCH   8  34
HETATM   34  C   UNL     1     -45.028  61.971 -50.829  1.00  0.00    -0.047 C 
HETATM   35  C   UNL     1     -43.930  62.204 -51.879  1.00  0.00     0.015 C 
HETATM   36  C   UNL     1     -45.948  63.216 -50.838  1.00  0.00     0.015 C 
HETATM   37  C   UNL     1     -44.350  61.927 -49.440  1.00  0.00     0.015 C 
ENDBRANCH   8  34
TORSDOF 7
ENDMDL
MODEL 6
REMARK VINA RESULT:      -7.8      3.733      8.270
REMARK  7 active torsions:
REMARK  status: ('A' for Active; 'I' for Inactive)
REMARK    1  A    between atoms: C_2  and  C_3 
REMARK    2  A    between atoms: C_4  and  N_5 
REMARK       I    between atoms: N_5  and  C_6 
REMARK    3  A    between atoms: C_6  and  C_7 
REMARK    4  A    between atoms: C_8  and  N_9 
REMARK       I    between atoms: N_9  and  C_10 
REMARK    5  A    between atoms: C_10  and  C_11 
REMARK    6  A    between atoms: C_11  and  N_12 
REMARK    7  A    between atoms: C_25  and  C_26 
ROOT
HETATM    1  C   UNL     1     -43.019  58.039 -54.973  1.00  0.00     0.073 A 
HETATM    2  C   UNL     1     -43.357  58.442 -53.696  1.00  0.00     0.093 A 
HETATM    3  S   UNL     1     -43.502  57.168 -52.587  1.00  0.00    -0.075 SA
HETATM    4  C   UNL     1     -43.284  56.021 -53.817  1.00  0.00    -0.008 A 
HETATM    5  C   UNL     1     -43.008  56.591 -55.046  1.00  0.00    -0.026 A 
HETATM    6  C   UNL     1     -42.624  55.748 -56.229  1.00  0.00     0.041 C 
HETATM    7  C   UNL     1     -42.751  54.234 -55.969  1.00  0.00     0.010 C 
HETATM    8  C   UNL     1     -42.468  53.748 -54.517  1.00  0.00    -0.002 C 
HETATM    9  C   UNL     1     -43.350  54.556 -53.536  1.00  0.00     0.052 C 
ENDROOT
BRANCH   1  10
HETATM   10  C   UNL     1     -42.596  58.971 -56.023  1.00  0.00     0.259 C 
HETATM   11  N   UNL     1     -43.266  58.805 -57.217  1.00  0.00    -0.322 N 
HETATM   12  H   UNL     1     -44.152  58.327 -57.159  1.00  0.00     0.169 HD
HETATM   13  O   UNL     1     -41.754  59.833 -55.788  1.00  0.00    -0.267 OA
BRANCH  11  14
HETATM   14  C   UNL     1     -42.903  59.365 -58.463  1.00  0.00     0.041 A 
HETATM   15  C   UNL     1     -42.385  58.541 -59.485  1.00  0.00    -0.032 A 
HETATM   16  C   UNL     1     -41.955  59.133 -60.690  1.00  0.00     0.009 A 
HETATM   17  C   UNL     1     -42.026  60.511 -60.881  1.00  0.00     0.001 A 
HETATM   18  C   UNL     1     -42.542  61.318 -59.875  1.00  0.00     0.002 A 
HETATM   19  C   UNL     1     -42.981  60.749 -58.678  1.00  0.00     0.030 A 
BRANCH  15  20
HETATM   20  C   UNL     1     -42.371  57.031 -59.408  1.00  0.00     0.036 C 
HETATM   21  C   UNL     1     -43.609  56.435 -60.067  1.00  0.00     0.010 C 
ENDBRANCH  15  20
ENDBRANCH  11  14
ENDBRANCH   1  10
BRANCH   2  22
HETATM   22  N   UNL     1     -43.626  59.663 -53.119  1.00  0.00    -0.319 N 
HETATM   23  C   UNL     1     -42.604  60.395 -52.553  1.00  0.00     0.248 C 
HETATM   24  O   UNL     1     -41.416  60.073 -52.497  1.00  0.00    -0.271 OA
HETATM   25  H   UNL     1     -44.446  60.129 -53.489  1.00  0.00     0.169 HD
BRANCH  23  26
HETATM   26  C   UNL     1     -42.986  61.828 -52.183  1.00  0.00     0.337 C 
BRANCH  26  27
HETATM   27  N   UNL     1     -44.313  61.822 -51.419  1.00  0.00    -0.059 N 
HETATM   28  H   UNL     1     -44.855  61.054 -51.852  1.00  0.00     0.280 HD
HETATM   29  C   UNL     1     -44.145  61.467 -49.945  1.00  0.00     0.261 C 
HETATM   30  C   UNL     1     -45.512  61.466 -49.254  1.00  0.00     0.195 C 
HETATM   31  O   UNL     1     -46.166  62.728 -49.420  1.00  0.00    -0.388 OA
HETATM   32  C   UNL     1     -46.409  63.019 -50.800  1.00  0.00     0.195 C 
HETATM   33  C   UNL     1     -45.092  63.112 -51.580  1.00  0.00     0.261 C 
ENDBRANCH  26  27
ENDBRANCH  23  26
ENDBRANCH   2  22
BRANCH   8  34
HETATM   34  C   UNL     1     -40.951  53.589 -54.111  1.00  0.00    -0.047 C 
HETATM   35  C   UNL     1     -39.963  54.377 -54.987  1.00  0.00     0.015 C 
HETATM   36  C   UNL     1     -40.731  54.038 -52.647  1.00  0.00     0.015 C 
HETATM   37  C   UNL     1     -40.557  52.094 -54.185  1.00  0.00     0.015 C 
ENDBRANCH   8  34
TORSDOF 7
ENDMDL
MODEL 7
REMARK VINA RESULT:      -7.7      2.666      7.851
REMARK  7 active torsions:
REMARK  status: ('A' for Active; 'I' for Inactive)
REMARK    1  A    between atoms: C_2  and  C_3 
REMARK    2  A    between atoms: C_4  and  N_5 
REMARK       I    between atoms: N_5  and  C_6 
REMARK    3  A    between atoms: C_6  and  C_7 
REMARK    4  A    between atoms: C_8  and  N_9 
REMARK       I    between atoms: N_9  and  C_10 
REMARK    5  A    between atoms: C_10  and  C_11 
REMARK    6  A    between atoms: C_11  and  N_12 
REMARK    7  A    between atoms: C_25  and  C_26 
ROOT
HETATM    1  C   UNL     1     -43.522  56.903 -55.250  1.00  0.00     0.073 A 
HETATM    2  C   UNL     1     -42.967  55.684 -55.585  1.00  0.00     0.093 A 
HETATM    3  S   UNL     1     -42.858  55.412 -57.254  1.00  0.00    -0.075 SA
HETATM    4  C   UNL     1     -43.705  56.843 -57.583  1.00  0.00    -0.008 A 
HETATM    5  C   UNL     1     -43.989  57.577 -56.446  1.00  0.00    -0.026 A 
HETATM    6  C   UNL     1     -44.590  58.953 -56.534  1.00  0.00     0.041 C 
HETATM    7  C   UNL     1     -45.002  59.350 -57.965  1.00  0.00     0.010 C 
HETATM    8  C   UNL     1     -44.134  58.783 -59.126  1.00  0.00    -0.002 C 
HETATM    9  C   UNL     1     -44.043  57.244 -58.980  1.00  0.00     0.052 C 
ENDROOT
BRANCH   1  10
HETATM   10  C   UNL     1     -43.485  57.457 -53.892  1.00  0.00     0.259 C 
HETATM   11  N   UNL     1     -42.326  58.148 -53.605  1.00  0.00    -0.322 N 
HETATM   12  H   UNL     1     -41.803  58.475 -54.403  1.00  0.00     0.169 HD
HETATM   13  O   UNL     1     -44.447  57.329 -53.141  1.00  0.00    -0.267 OA
BRANCH  11  14
HETATM   14  C   UNL     1     -41.895  58.560 -52.324  1.00  0.00     0.041 A 
HETATM   15  C   UNL     1     -42.188  59.862 -51.864  1.00  0.00    -0.032 A 
HETATM   16  C   UNL     1     -41.680  60.277 -50.616  1.00  0.00     0.009 A 
HETATM   17  C   UNL     1     -40.891  59.430 -49.841  1.00  0.00     0.001 A 
HETATM   18  C   UNL     1     -40.609  58.147 -50.295  1.00  0.00     0.002 A 
HETATM   19  C   UNL     1     -41.111  57.715 -51.524  1.00  0.00     0.030 A 
BRANCH  15  20
HETATM   20  C   UNL     1     -43.122  60.807 -52.585  1.00  0.00     0.036 C 
HETATM   21  C   UNL     1     -44.490  60.847 -51.914  1.00  0.00     0.010 C 
ENDBRANCH  15  20
ENDBRANCH  11  14
ENDBRANCH   1  10
BRANCH   2  22
HETATM   22  N   UNL     1     -42.494  54.617 -54.854  1.00  0.00    -0.319 N 
HETATM   23  C   UNL     1     -41.238  54.674 -54.289  1.00  0.00     0.248 C 
HETATM   24  O   UNL     1     -40.445  55.614 -54.361  1.00  0.00    -0.271 OA
HETATM   25  H   UNL     1     -43.217  54.040 -54.440  1.00  0.00     0.169 HD
BRANCH  23  26
HETATM   26  C   UNL     1     -40.940  53.547 -53.302  1.00  0.00     0.337 C 
BRANCH  26  27
HETATM   27  N   UNL     1     -40.962  54.097 -51.873  1.00  0.00    -0.059 N 
HETATM   28  H   UNL     1     -40.692  55.092 -51.977  1.00  0.00     0.280 HD
HETATM   29  C   UNL     1     -42.356  54.082 -51.255  1.00  0.00     0.261 C 
HETATM   30  C   UNL     1     -42.301  54.661 -49.838  1.00  0.00     0.195 C 
HETATM   31  O   UNL     1     -41.360  53.944 -49.033  1.00  0.00    -0.388 OA
HETATM   32  C   UNL     1     -40.033  54.036 -49.562  1.00  0.00     0.195 C 
HETATM   33  C   UNL     1     -39.958  53.419 -50.963  1.00  0.00     0.261 C 
ENDBRANCH  26  27
ENDBRANCH  23  26
ENDBRANCH   2  22
BRANCH   8  34
HETATM   34  C   UNL     1     -42.775  59.530 -59.418  1.00  0.00    -0.047 C 
HETATM   35  C   UNL     1     -41.740  59.452 -58.284  1.00  0.00     0.015 C 
HETATM   36  C   UNL     1     -42.107  58.962 -60.694  1.00  0.00     0.015 C 
HETATM   37  C   UNL     1     -43.063  61.025 -59.692  1.00  0.00     0.015 C 
ENDBRANCH   8  34
TORSDOF 7
ENDMDL
MODEL 8
REMARK VINA RESULT:      -7.6      3.357      7.069
REMARK  7 active torsions:
REMARK  status: ('A' for Active; 'I' for Inactive)
REMARK    1  A    between atoms: C_2  and  C_3 
REMARK    2  A    between atoms: C_4  and  N_5 
REMARK       I    between atoms: N_5  and  C_6 
REMARK    3  A    between atoms: C_6  and  C_7 
REMARK    4  A    between atoms: C_8  and  N_9 
REMARK       I    between atoms: N_9  and  C_10 
REMARK    5  A    between atoms: C_10  and  C_11 
REMARK    6  A    between atoms: C_11  and  N_12 
REMARK    7  A    between atoms: C_25  and  C_26 
ROOT
HETATM    1  C   UNL     1     -42.539  58.457 -55.714  1.00  0.00     0.073 A 
HETATM    2  C   UNL     1     -42.814  59.598 -54.986  1.00  0.00     0.093 A 
HETATM    3  S   UNL     1     -42.968  60.997 -55.930  1.00  0.00    -0.075 SA
HETATM    4  C   UNL     1     -42.503  60.154 -57.326  1.00  0.00    -0.008 A 
HETATM    5  C   UNL     1     -42.324  58.801 -57.106  1.00  0.00    -0.026 A 
HETATM    6  C   UNL     1     -42.069  57.852 -58.244  1.00  0.00     0.041 C 
HETATM    7  C   UNL     1     -41.857  58.560 -59.596  1.00  0.00     0.010 C 
HETATM    8  C   UNL     1     -42.644  59.884 -59.822  1.00  0.00    -0.002 C 
HETATM    9  C   UNL     1     -42.363  60.845 -58.642  1.00  0.00     0.052 C 
ENDROOT
BRANCH   1  10
HETATM   10  C   UNL     1     -42.614  57.106 -55.148  1.00  0.00     0.259 C 
HETATM   11  N   UNL     1     -41.452  56.698 -54.527  1.00  0.00    -0.322 N 
HETATM   12  H   UNL     1     -40.826  57.435 -54.242  1.00  0.00     0.169 HD
HETATM   13  O   UNL     1     -43.658  56.464 -55.207  1.00  0.00    -0.267 OA
BRANCH  11  14
HETATM   14  C   UNL     1     -41.138  55.379 -54.128  1.00  0.00     0.041 A 
HETATM   15  C   UNL     1     -41.264  55.000 -52.774  1.00  0.00    -0.032 A 
HETATM   16  C   UNL     1     -40.870  53.704 -52.386  1.00  0.00     0.009 A 
HETATM   17  C   UNL     1     -40.351  52.801 -53.312  1.00  0.00     0.001 A 
HETATM   18  C   UNL     1     -40.233  53.176 -54.645  1.00  0.00     0.002 A 
HETATM   19  C   UNL     1     -40.627  54.452 -55.050  1.00  0.00     0.030 A 
BRANCH  15  20
HETATM   20  C   UNL     1     -41.915  55.873 -51.725  1.00  0.00     0.036 C 
HETATM   21  C   UNL     1     -42.491  55.033 -50.591  1.00  0.00     0.010 C 
ENDBRANCH  15  20
ENDBRANCH  11  14
ENDBRANCH   1  10
BRANCH   2  22
HETATM   22  N   UNL     1     -42.975  59.859 -53.644  1.00  0.00    -0.319 N 
HETATM   23  C   UNL     1     -41.892  59.787 -52.795  1.00  0.00     0.248 C 
HETATM   24  O   UNL     1     -40.735  59.500 -53.107  1.00  0.00    -0.271 OA
HETATM   25  H   UNL     1     -43.756  60.467 -53.427  1.00  0.00     0.169 HD
BRANCH  23  26
HETATM   26  C   UNL     1     -42.149  60.344 -51.396  1.00  0.00     0.337 C 
BRANCH  26  27
HETATM   27  N   UNL     1     -43.646  60.266 -51.081  1.00  0.00    -0.059 N 
HETATM   28  H   UNL     1     -44.099  60.773 -51.861  1.00  0.00     0.280 HD
HETATM   29  C   UNL     1     -44.182  58.838 -51.114  1.00  0.00     0.261 C 
HETATM   30  C   UNL     1     -45.684  58.842 -50.807  1.00  0.00     0.195 C 
HETATM   31  O   UNL     1     -45.943  59.473 -49.549  1.00  0.00    -0.388 OA
HETATM   32  C   UNL     1     -45.524  60.842 -49.549  1.00  0.00     0.195 C 
HETATM   33  C   UNL     1     -44.013  60.953 -49.781  1.00  0.00     0.261 C 
ENDBRANCH  26  27
ENDBRANCH  23  26
ENDBRANCH   2  22
BRANCH   8  34
HETATM   34  C   UNL     1     -44.157  59.740 -60.249  1.00  0.00    -0.047 C 
HETATM   35  C   UNL     1     -45.170  60.274 -59.223  1.00  0.00     0.015 C 
HETATM   36  C   UNL     1     -44.418  60.478 -61.584  1.00  0.00     0.015 C 
HETATM   37  C   UNL     1     -44.478  58.246 -60.494  1.00  0.00     0.015 C 
ENDBRANCH   8  34
TORSDOF 7
ENDMDL
MODEL 9
REMARK VINA RESULT:      -7.5      3.387      7.116
REMARK  7 active torsions:
REMARK  status: ('A' for Active; 'I' for Inactive)
REMARK    1  A    between atoms: C_2  and  C_3 
REMARK    2  A    between atoms: C_4  and  N_5 
REMARK       I    between atoms: N_5  and  C_6 
REMARK    3  A    between atoms: C_6  and  C_7 
REMARK    4  A    between atoms: C_8  and  N_9 
REMARK       I    between atoms: N_9  and  C_10 
REMARK    5  A    between atoms: C_10  and  C_11 
REMARK    6  A    between atoms: C_11  and  N_12 
REMARK    7  A    between atoms: C_25  and  C_26 
ROOT
HETATM    1  C   UNL     1     -43.413  57.491 -54.817  1.00  0.00     0.073 A 
HETATM    2  C   UNL     1     -42.429  58.460 -54.817  1.00  0.00     0.093 A 
HETATM    3  S   UNL     1     -41.034  58.024 -53.958  1.00  0.00    -0.075 SA
HETATM    4  C   UNL     1     -41.767  56.594 -53.416  1.00  0.00    -0.008 A 
HETATM    5  C   UNL     1     -43.025  56.393 -53.954  1.00  0.00    -0.026 A 
HETATM    6  C   UNL     1     -43.775  55.110 -53.728  1.00  0.00     0.041 C 
HETATM    7  C   UNL     1     -43.086  54.167 -52.722  1.00  0.00     0.010 C 
HETATM    8  C   UNL     1     -41.530  54.199 -52.686  1.00  0.00    -0.002 C 
HETATM    9  C   UNL     1     -41.061  55.661 -52.489  1.00  0.00     0.052 C 
ENDROOT
BRANCH   1  10
HETATM   10  C   UNL     1     -44.588  57.541 -55.694  1.00  0.00     0.259 C 
HETATM   11  N   UNL     1     -44.309  57.255 -57.014  1.00  0.00    -0.322 N 
HETATM   12  H   UNL     1     -43.457  56.743 -57.180  1.00  0.00     0.169 HD
HETATM   13  O   UNL     1     -45.701  57.771 -55.231  1.00  0.00    -0.267 OA
BRANCH  11  14
HETATM   14  C   UNL     1     -45.167  57.476 -58.116  1.00  0.00     0.041 A 
HETATM   15  C   UNL     1     -44.941  56.801 -59.335  1.00  0.00    -0.032 A 
HETATM   16  C   UNL     1     -45.760  57.097 -60.443  1.00  0.00     0.009 A 
HETATM   17  C   UNL     1     -46.776  58.047 -60.355  1.00  0.00     0.001 A 
HETATM   18  C   UNL     1     -46.999  58.705 -59.151  1.00  0.00     0.002 A 
HETATM   19  C   UNL     1     -46.203  58.418 -58.040  1.00  0.00     0.030 A 
BRANCH  15  20
HETATM   20  C   UNL     1     -43.936  55.682 -59.491  1.00  0.00     0.036 C 
HETATM   21  C   UNL     1     -44.630  54.357 -59.786  1.00  0.00     0.010 C 
ENDBRANCH  15  20
ENDBRANCH  11  14
ENDBRANCH   1  10
BRANCH   2  22
HETATM   22  N   UNL     1     -42.335  59.726 -55.349  1.00  0.00    -0.319 N 
HETATM   23  C   UNL     1     -42.048  59.890 -56.687  1.00  0.00     0.248 C 
HETATM   24  O   UNL     1     -41.854  58.992 -57.509  1.00  0.00    -0.271 OA
HETATM   25  H   UNL     1     -42.864  60.431 -54.848  1.00  0.00     0.169 HD
BRANCH  23  26
HETATM   26  C   UNL     1     -42.224  61.318 -57.199  1.00  0.00     0.337 C 
BRANCH  26  27
HETATM   27  N   UNL     1     -41.424  61.502 -58.491  1.00  0.00    -0.059 N 
HETATM   28  H   UNL     1     -40.839  60.649 -58.555  1.00  0.00     0.280 HD
HETATM   29  C   UNL     1     -42.307  61.523 -59.735  1.00  0.00     0.261 C 
HETATM   30  C   UNL     1     -41.437  61.692 -60.985  1.00  0.00     0.195 C 
HETATM   31  O   UNL     1     -40.633  62.873 -60.889  1.00  0.00    -0.388 OA
HETATM   32  C   UNL     1     -39.737  62.813 -59.774  1.00  0.00     0.195 C 
HETATM   33  C   UNL     1     -40.510  62.710 -58.454  1.00  0.00     0.261 C 
ENDBRANCH  26  27
ENDBRANCH  23  26
ENDBRANCH   2  22
BRANCH   8  34
HETATM   34  C   UNL     1     -40.783  53.381 -53.811  1.00  0.00    -0.047 C 
HETATM   35  C   UNL     1     -40.031  54.239 -54.841  1.00  0.00     0.015 C 
HETATM   36  C   UNL     1     -39.757  52.407 -53.182  1.00  0.00     0.015 C 
HETATM   37  C   UNL     1     -41.810  52.514 -54.578  1.00  0.00     0.015 C 
ENDBRANCH   8  34
TORSDOF 7
ENDMDL
MODEL 10
REMARK VINA RESULT:      -7.4      2.394      7.103
REMARK  7 active torsions:
REMARK  status: ('A' for Active; 'I' for Inactive)
REMARK    1  A    between atoms: C_2  and  C_3 
REMARK    2  A    between atoms: C_4  and  N_5 
REMARK       I    between atoms: N_5  and  C_6 
REMARK    3  A    between atoms: C_6  and  C_7 
REMARK    4  A    between atoms: C_8  and  N_9 
REMARK       I    between atoms: N_9  and  C_10 
REMARK    5  A    between atoms: C_10  and  C_11 
REMARK    6  A    between atoms: C_11  and  N_12 
REMARK    7  A    between atoms: C_25  and  C_26 
ROOT
HETATM    1  C   UNL     1     -43.150  57.284 -56.095  1.00  0.00     0.073 A 
HETATM    2  C   UNL     1     -43.243  58.594 -55.668  1.00  0.00     0.093 A 
HETATM    3  S   UNL     1     -43.767  59.673 -56.865  1.00  0.00    -0.075 SA
HETATM    4  C   UNL     1     -43.724  58.452 -58.041  1.00  0.00    -0.008 A 
HETATM    5  C   UNL     1     -43.409  57.210 -57.520  1.00  0.00    -0.026 A 
HETATM    6  C   UNL     1     -43.476  55.968 -58.364  1.00  0.00     0.041 C 
HETATM    7  C   UNL     1     -43.746  56.256 -59.854  1.00  0.00     0.010 C 
HETATM    8  C   UNL     1     -44.637  57.490 -60.178  1.00  0.00    -0.002 C 
HETATM    9  C   UNL     1     -44.048  58.735 -59.470  1.00  0.00     0.052 C 
ENDROOT
BRANCH   1  10
HETATM   10  C   UNL     1     -42.966  56.153 -55.179  1.00  0.00     0.259 C 
HETATM   11  N   UNL     1     -41.646  55.894 -54.874  1.00  0.00    -0.322 N 
HETATM   12  H   UNL     1     -41.005  56.658 -55.022  1.00  0.00     0.169 HD
HETATM   13  O   UNL     1     -43.937  55.560 -54.719  1.00  0.00    -0.267 OA
BRANCH  11  14
HETATM   14  C   UNL     1     -41.147  54.732 -54.243  1.00  0.00     0.041 A 
HETATM   15  C   UNL     1     -41.030  54.685 -52.837  1.00  0.00    -0.032 A 
HETATM   16  C   UNL     1     -40.456  53.547 -52.235  1.00  0.00     0.009 A 
HETATM   17  C   UNL     1     -39.997  52.480 -53.005  1.00  0.00     0.001 A 
HETATM   18  C   UNL     1     -40.120  52.527 -54.388  1.00  0.00     0.002 A 
HETATM   19  C   UNL     1     -40.694  53.642 -55.001  1.00  0.00     0.030 A 
BRANCH  15  20
HETATM   20  C   UNL     1     -41.597  55.746 -51.920  1.00  0.00     0.036 C 
HETATM   21  C   UNL     1     -42.477  55.127 -50.841  1.00  0.00     0.010 C 
ENDBRANCH  15  20
ENDBRANCH  11  14
ENDBRANCH   1  10
BRANCH   2  22
HETATM   22  N   UNL     1     -42.982  59.231 -54.476  1.00  0.00    -0.319 N 
HETATM   23  C   UNL     1     -43.917  59.205 -53.463  1.00  0.00     0.248 C 
HETATM   24  O   UNL     1     -45.018  58.651 -53.498  1.00  0.00    -0.271 OA
HETATM   25  H   UNL     1     -41.997  59.329 -54.261  1.00  0.00     0.169 HD
BRANCH  23  26
HETATM   26  C   UNL     1     -43.406  59.722 -52.120  1.00  0.00     0.337 C 
BRANCH  26  27
HETATM   27  N   UNL     1     -42.002  59.169 -51.859  1.00  0.00    -0.059 N 
HETATM   28  H   UNL     1     -42.134  58.144 -51.810  1.00  0.00     0.280 HD
HETATM   29  C   UNL     1     -41.039  59.434 -53.013  1.00  0.00     0.261 C 
HETATM   30  C   UNL     1     -39.665  58.839 -52.688  1.00  0.00     0.195 C 
HETATM   31  O   UNL     1     -39.165  59.363 -51.454  1.00  0.00    -0.388 OA
HETATM   32  C   UNL     1     -40.021  59.034 -50.354  1.00  0.00     0.195 C 
HETATM   33  C   UNL     1     -41.415  59.642 -50.545  1.00  0.00     0.261 C 
ENDBRANCH  26  27
ENDBRANCH  23  26
ENDBRANCH   2  22
BRANCH   8  34
HETATM   34  C   UNL     1     -46.196  57.290 -60.038  1.00  0.00    -0.047 C 
HETATM   35  C   UNL     1     -46.739  57.434 -58.607  1.00  0.00     0.015 C 
HETATM   36  C   UNL     1     -46.956  58.305 -60.925  1.00  0.00     0.015 C 
HETATM   37  C   UNL     1     -46.577  55.879 -60.546  1.00  0.00     0.015 C 
ENDBRANCH   8  34
TORSDOF 7
ENDMDL
