MODEL 1
REMARK VINA RESULT:      -8.4      0.000      0.000
REMARK  5 active torsions:
REMARK  status: ('A' for Active; 'I' for Inactive)
REMARK    1  A    between atoms: C_8  and  C_9 
REMARK    2  A    between atoms: N_10  and  N_11 
REMARK       I    between atoms: N_11  and  C_12 
REMARK    3  A    between atoms: C_12  and  C_13 
REMARK    4  A    between atoms: C_13  and  N_14 
REMARK    5  A    between atoms: N_14  and  C_15 
ROOT
HETATM    1  N   UNL     1     -41.978  55.220 -55.958  1.00  0.00    -0.246 N 
HETATM    2  C   UNL     1     -42.484  56.521 -55.878  1.00  0.00     0.255 C 
HETATM    3  O   UNL     1     -42.901  57.061 -54.856  1.00  0.00    -0.270 OA
HETATM    4  H   UNL     1     -41.357  55.008 -56.735  1.00  0.00     0.192 HD
ENDROOT
BRANCH   1   5
HETATM    5  N   UNL     1     -41.794  54.396 -54.871  1.00  0.00    -0.184 NA
HETATM    6  C   UNL     1     -40.633  54.421 -54.293  1.00  0.00     0.152 C 
BRANCH   6   7
HETATM    7  C   UNL     1     -40.358  53.531 -53.183  1.00  0.00     0.011 A 
HETATM    8  C   UNL     1     -40.090  52.125 -53.258  1.00  0.00     0.004 A 
HETATM    9  C   UNL     1     -39.995  51.196 -54.316  1.00  0.00     0.014 A 
HETATM   10  C   UNL     1     -39.896  51.666 -51.953  1.00  0.00     0.043 A 
HETATM   11  C   UNL     1     -39.712  49.854 -54.035  1.00  0.00     0.001 A 
HETATM   12  C   UNL     1     -39.525  49.429 -52.722  1.00  0.00     0.002 A 
HETATM   13  C   UNL     1     -39.614  50.328 -51.655  1.00  0.00     0.030 A 
HETATM   14  N   UNL     1     -40.042  52.749 -51.118  1.00  0.00    -0.364 N 
HETATM   15  H   UNL     1     -39.960  52.711 -50.111  1.00  0.00     0.165 HD
HETATM   16  C   UNL     1     -40.317  53.875 -51.845  1.00  0.00     0.102 A 
ENDBRANCH   6   7
ENDBRANCH   1   5
BRANCH   2  17
HETATM   17  C   UNL     1     -42.448  57.251 -57.222  1.00  0.00     0.224 C 
BRANCH  17  18
HETATM   18  N   UNL     1     -42.588  56.307 -58.333  1.00  0.00    -0.381 N 
HETATM   19  H   UNL     1     -41.771  56.212 -58.930  1.00  0.00     0.160 HD
BRANCH  18  20
HETATM   20  C   UNL     1     -43.804  56.143 -58.991  1.00  0.00     0.028 A 
HETATM   21  C   UNL     1     -44.786  57.135 -58.837  1.00  0.00     0.032 A 
HETATM   22  C   UNL     1     -45.996  57.076 -59.534  1.00  0.00     0.044 A 
HETATM   23  C   UNL     1     -46.225  56.031 -60.415  1.00  0.00     0.116 A 
HETATM   24  F   UNL     1     -47.378  55.975 -61.093  1.00  0.00    -0.206 F 
HETATM   25  C   UNL     1     -45.264  55.051 -60.612  1.00  0.00     0.044 A 
HETATM   26  C   UNL     1     -44.056  55.114 -59.910  1.00  0.00     0.032 A 
ENDBRANCH  18  20
ENDBRANCH  17  18
ENDBRANCH   2  17
TORSDOF 5
ENDMDL
MODEL 2
REMARK VINA RESULT:      -7.7      2.144      2.418
REMARK  5 active torsions:
REMARK  status: ('A' for Active; 'I' for Inactive)
REMARK    1  A    between atoms: C_8  and  C_9 
REMARK    2  A    between atoms: N_10  and  N_11 
REMARK       I    between atoms: N_11  and  C_12 
REMARK    3  A    between atoms: C_12  and  C_13 
REMARK    4  A    between atoms: C_13  and  N_14 
REMARK    5  A    between atoms: N_14  and  C_15 
ROOT
HETATM    1  N   UNL     1     -42.693  55.885 -54.706  1.00  0.00    -0.246 N 
HETATM    2  C   UNL     1     -43.797  56.730 -54.561  1.00  0.00     0.255 C 
HETATM    3  O   UNL     1     -44.575  56.728 -53.610  1.00  0.00    -0.270 OA
HETATM    4  H   UNL     1     -41.946  56.195 -55.321  1.00  0.00     0.192 HD
ENDROOT
BRANCH   1   5
HETATM    5  N   UNL     1     -42.275  54.991 -53.746  1.00  0.00    -0.184 NA
HETATM    6  C   UNL     1     -41.041  54.595 -53.798  1.00  0.00     0.152 C 
BRANCH   6   7
HETATM    7  C   UNL     1     -40.559  53.607 -52.854  1.00  0.00     0.011 A 
HETATM    8  C   UNL     1     -40.264  52.232 -53.128  1.00  0.00     0.004 A 
HETATM    9  C   UNL     1     -40.319  51.424 -54.284  1.00  0.00     0.014 A 
HETATM   10  C   UNL     1     -39.842  51.648 -51.931  1.00  0.00     0.043 A 
HETATM   11  C   UNL     1     -39.952  50.076 -54.204  1.00  0.00     0.001 A 
HETATM   12  C   UNL     1     -39.536  49.525 -52.995  1.00  0.00     0.002 A 
HETATM   13  C   UNL     1     -39.474  50.301 -51.834  1.00  0.00     0.030 A 
HETATM   14  N   UNL     1     -39.879  52.629 -50.967  1.00  0.00    -0.364 N 
HETATM   15  H   UNL     1     -39.629  52.488 -49.998  1.00  0.00     0.165 HD
HETATM   16  C   UNL     1     -40.305  53.810 -51.510  1.00  0.00     0.102 A 
ENDBRANCH   6   7
ENDBRANCH   1   5
BRANCH   2  17
HETATM   17  C   UNL     1     -43.943  57.714 -55.724  1.00  0.00     0.224 C 
BRANCH  17  18
HETATM   18  N   UNL     1     -44.095  57.001 -56.995  1.00  0.00    -0.381 N 
HETATM   19  H   UNL     1     -44.172  55.990 -56.921  1.00  0.00     0.160 HD
BRANCH  18  20
HETATM   20  C   UNL     1     -43.463  57.447 -58.152  1.00  0.00     0.028 A 
HETATM   21  C   UNL     1     -43.315  58.831 -58.341  1.00  0.00     0.032 A 
HETATM   22  C   UNL     1     -42.618  59.346 -59.438  1.00  0.00     0.044 A 
HETATM   23  C   UNL     1     -42.039  58.474 -60.346  1.00  0.00     0.116 A 
HETATM   24  F   UNL     1     -41.360  58.961 -61.393  1.00  0.00    -0.206 F 
HETATM   25  C   UNL     1     -42.141  57.102 -60.173  1.00  0.00     0.044 A 
HETATM   26  C   UNL     1     -42.842  56.594 -59.075  1.00  0.00     0.032 A 
ENDBRANCH  18  20
ENDBRANCH  17  18
ENDBRANCH   2  17
TORSDOF 5
ENDMDL
MODEL 3
REMARK VINA RESULT:      -7.7      2.322      2.765
REMARK  5 active torsions:
REMARK  status: ('A' for Active; 'I' for Inactive)
REMARK    1  A    between atoms: C_8  and  C_9 
REMARK    2  A    between atoms: N_10  and  N_11 
REMARK       I    between atoms: N_11  and  C_12 
REMARK    3  A    between atoms: C_12  and  C_13 
REMARK    4  A    between atoms: C_13  and  N_14 
REMARK    5  A    between atoms: N_14  and  C_15 
ROOT
HETATM    1  N   UNL     1     -41.949  57.015 -53.317  1.00  0.00    -0.246 N 
HETATM    2  C   UNL     1     -41.179  58.133 -53.654  1.00  0.00     0.255 C 
HETATM    3  O   UNL     1     -40.045  58.366 -53.245  1.00  0.00    -0.270 OA
HETATM    4  H   UNL     1     -42.691  56.748 -53.957  1.00  0.00     0.192 HD
ENDROOT
BRANCH   1   5
HETATM    5  N   UNL     1     -41.495  55.972 -52.542  1.00  0.00    -0.184 NA
HETATM    6  C   UNL     1     -40.963  54.960 -53.156  1.00  0.00     0.152 C 
BRANCH   6   7
HETATM    7  C   UNL     1     -40.524  53.805 -52.401  1.00  0.00     0.011 A 
HETATM    8  C   UNL     1     -40.271  52.491 -52.913  1.00  0.00     0.004 A 
HETATM    9  C   UNL     1     -40.340  51.904 -54.194  1.00  0.00     0.014 A 
HETATM   10  C   UNL     1     -39.881  51.690 -51.837  1.00  0.00     0.043 A 
HETATM   11  C   UNL     1     -40.019  50.551 -54.354  1.00  0.00     0.001 A 
HETATM   12  C   UNL     1     -39.634  49.780 -53.260  1.00  0.00     0.002 A 
HETATM   13  C   UNL     1     -39.558  50.336 -51.979  1.00  0.00     0.030 A 
HETATM   14  N   UNL     1     -39.896  52.486 -50.715  1.00  0.00    -0.364 N 
HETATM   15  H   UNL     1     -39.661  52.167 -49.784  1.00  0.00     0.165 HD
HETATM   16  C   UNL     1     -40.278  53.758 -51.041  1.00  0.00     0.102 A 
ENDBRANCH   6   7
ENDBRANCH   1   5
BRANCH   2  17
HETATM   17  C   UNL     1     -41.892  59.063 -54.638  1.00  0.00     0.224 C 
BRANCH  17  18
HETATM   18  N   UNL     1     -42.992  58.368 -55.311  1.00  0.00    -0.381 N 
HETATM   19  H   UNL     1     -43.657  57.906 -54.696  1.00  0.00     0.160 HD
BRANCH  18  20
HETATM   20  C   UNL     1     -42.802  57.732 -56.534  1.00  0.00     0.028 A 
HETATM   21  C   UNL     1     -43.177  56.384 -56.653  1.00  0.00     0.032 A 
HETATM   22  C   UNL     1     -43.091  55.709 -57.873  1.00  0.00     0.044 A 
HETATM   23  C   UNL     1     -42.650  56.389 -58.998  1.00  0.00     0.116 A 
HETATM   24  F   UNL     1     -42.576  55.750 -60.173  1.00  0.00    -0.206 F 
HETATM   25  C   UNL     1     -42.301  57.728 -58.922  1.00  0.00     0.044 A 
HETATM   26  C   UNL     1     -42.387  58.398 -57.697  1.00  0.00     0.032 A 
ENDBRANCH  18  20
ENDBRANCH  17  18
ENDBRANCH   2  17
TORSDOF 5
ENDMDL
MODEL 4
REMARK VINA RESULT:      -7.5      1.904      2.480
REMARK  5 active torsions:
REMARK  status: ('A' for Active; 'I' for Inactive)
REMARK    1  A    between atoms: C_8  and  C_9 
REMARK    2  A    between atoms: N_10  and  N_11 
REMARK       I    between atoms: N_11  and  C_12 
REMARK    3  A    between atoms: C_12  and  C_13 
REMARK    4  A    between atoms: C_13  and  N_14 
REMARK    5  A    between atoms: N_14  and  C_15 
ROOT
HETATM    1  N   UNL     1     -43.277  55.461 -57.133  1.00  0.00    -0.246 N 
HETATM    2  C   UNL     1     -43.233  56.602 -57.941  1.00  0.00     0.255 C 
HETATM    3  O   UNL     1     -42.629  57.639 -57.676  1.00  0.00    -0.270 OA
HETATM    4  H   UNL     1     -43.493  54.577 -57.585  1.00  0.00     0.192 HD
ENDROOT
BRANCH   1   5
HETATM    5  N   UNL     1     -42.567  55.317 -55.963  1.00  0.00    -0.184 NA
HETATM    6  C   UNL     1     -42.884  54.324 -55.191  1.00  0.00     0.152 C 
BRANCH   6   7
HETATM    7  C   UNL     1     -42.215  54.156 -53.917  1.00  0.00     0.011 A 
HETATM    8  C   UNL     1     -41.244  53.156 -53.584  1.00  0.00     0.004 A 
HETATM    9  C   UNL     1     -40.642  52.094 -54.292  1.00  0.00     0.014 A 
HETATM   10  C   UNL     1     -40.877  53.357 -52.252  1.00  0.00     0.043 A 
HETATM   11  C   UNL     1     -39.703  51.279 -53.650  1.00  0.00     0.001 A 
HETATM   12  C   UNL     1     -39.359  51.506 -52.320  1.00  0.00     0.002 A 
HETATM   13  C   UNL     1     -39.940  52.550 -51.594  1.00  0.00     0.030 A 
HETATM   14  N   UNL     1     -41.596  54.436 -51.792  1.00  0.00    -0.364 N 
HETATM   15  H   UNL     1     -41.536  54.805 -50.853  1.00  0.00     0.165 HD
HETATM   16  C   UNL     1     -42.401  54.925 -52.784  1.00  0.00     0.102 A 
ENDBRANCH   6   7
ENDBRANCH   1   5
BRANCH   2  17
HETATM   17  C   UNL     1     -44.011  56.428 -59.247  1.00  0.00     0.224 C 
BRANCH  17  18
HETATM   18  N   UNL     1     -45.450  56.332 -58.989  1.00  0.00    -0.381 N 
HETATM   19  H   UNL     1     -45.756  55.469 -58.549  1.00  0.00     0.160 HD
BRANCH  18  20
HETATM   20  C   UNL     1     -46.377  56.895 -59.861  1.00  0.00     0.028 A 
HETATM   21  C   UNL     1     -46.429  58.294 -59.969  1.00  0.00     0.032 A 
HETATM   22  C   UNL     1     -47.278  58.923 -60.885  1.00  0.00     0.044 A 
HETATM   23  C   UNL     1     -48.068  58.150 -61.722  1.00  0.00     0.116 A 
HETATM   24  F   UNL     1     -48.875  58.747 -62.609  1.00  0.00    -0.206 F 
HETATM   25  C   UNL     1     -48.019  56.766 -61.662  1.00  0.00     0.044 A 
HETATM   26  C   UNL     1     -47.169  56.143 -60.741  1.00  0.00     0.032 A 
ENDBRANCH  18  20
ENDBRANCH  17  18
ENDBRANCH   2  17
TORSDOF 5
ENDMDL
MODEL 5
REMARK VINA RESULT:      -7.5      1.739      2.101
REMARK  5 active torsions:
REMARK  status: ('A' for Active; 'I' for Inactive)
REMARK    1  A    between atoms: C_8  and  C_9 
REMARK    2  A    between atoms: N_10  and  N_11 
REMARK       I    between atoms: N_11  and  C_12 
REMARK    3  A    between atoms: C_12  and  C_13 
REMARK    4  A    between atoms: C_13  and  N_14 
REMARK    5  A    between atoms: N_14  and  C_15 
ROOT
HETATM    1  N   UNL     1     -44.134  56.381 -54.959  1.00  0.00    -0.246 N 
HETATM    2  C   UNL     1     -44.023  57.620 -55.596  1.00  0.00     0.255 C 
HETATM    3  O   UNL     1     -43.019  58.328 -55.605  1.00  0.00    -0.270 OA
HETATM    4  H   UNL     1     -44.850  55.743 -55.298  1.00  0.00     0.192 HD
ENDROOT
BRANCH   1   5
HETATM    5  N   UNL     1     -43.092  55.743 -54.325  1.00  0.00    -0.184 NA
HETATM    6  C   UNL     1     -43.367  55.080 -53.244  1.00  0.00     0.152 C 
BRANCH   6   7
HETATM    7  C   UNL     1     -42.303  54.440 -52.498  1.00  0.00     0.011 A 
HETATM    8  C   UNL     1     -41.432  53.402 -52.966  1.00  0.00     0.004 A 
HETATM    9  C   UNL     1     -41.297  52.706 -54.186  1.00  0.00     0.014 A 
HETATM   10  C   UNL     1     -40.570  53.075 -51.918  1.00  0.00     0.043 A 
HETATM   11  C   UNL     1     -40.314  51.718 -54.315  1.00  0.00     0.001 A 
HETATM   12  C   UNL     1     -39.470  51.416 -53.249  1.00  0.00     0.002 A 
HETATM   13  C   UNL     1     -39.582  52.089 -52.029  1.00  0.00     0.030 A 
HETATM   14  N   UNL     1     -40.903  53.881 -50.854  1.00  0.00    -0.364 N 
HETATM   15  H   UNL     1     -40.444  53.858 -49.953  1.00  0.00     0.165 HD
HETATM   16  C   UNL     1     -41.940  54.706 -51.191  1.00  0.00     0.102 A 
ENDBRANCH   6   7
ENDBRANCH   1   5
BRANCH   2  17
HETATM   17  C   UNL     1     -45.302  58.019 -56.334  1.00  0.00     0.224 C 
BRANCH  17  18
HETATM   18  N   UNL     1     -45.025  58.307 -57.743  1.00  0.00    -0.381 N 
HETATM   19  H   UNL     1     -45.404  59.182 -58.093  1.00  0.00     0.160 HD
BRANCH  18  20
HETATM   20  C   UNL     1     -44.967  57.287 -58.689  1.00  0.00     0.028 A 
HETATM   21  C   UNL     1     -46.123  56.997 -59.431  1.00  0.00     0.032 A 
HETATM   22  C   UNL     1     -46.113  56.043 -60.453  1.00  0.00     0.044 A 
HETATM   23  C   UNL     1     -44.931  55.386 -60.759  1.00  0.00     0.116 A 
HETATM   24  F   UNL     1     -44.912  54.479 -61.744  1.00  0.00    -0.206 F 
HETATM   25  C   UNL     1     -43.764  55.670 -60.065  1.00  0.00     0.044 A 
HETATM   26  C   UNL     1     -43.783  56.624 -59.042  1.00  0.00     0.032 A 
ENDBRANCH  18  20
ENDBRANCH  17  18
ENDBRANCH   2  17
TORSDOF 5
ENDMDL
MODEL 6
REMARK VINA RESULT:      -7.4      3.027      8.206
REMARK  5 active torsions:
REMARK  status: ('A' for Active; 'I' for Inactive)
REMARK    1  A    between atoms: C_8  and  C_9 
REMARK    2  A    between atoms: N_10  and  N_11 
REMARK       I    between atoms: N_11  and  C_12 
REMARK    3  A    between atoms: C_12  and  C_13 
REMARK    4  A    between atoms: C_13  and  N_14 
REMARK    5  A    between atoms: N_14  and  C_15 
ROOT
HETATM    1  N   UNL     1     -41.431  56.890 -53.698  1.00  0.00    -0.246 N 
HETATM    2  C   UNL     1     -42.186  56.418 -52.621  1.00  0.00     0.255 C 
HETATM    3  O   UNL     1     -43.404  56.531 -52.501  1.00  0.00    -0.270 OA
HETATM    4  H   UNL     1     -40.529  56.451 -53.865  1.00  0.00     0.192 HD
ENDROOT
BRANCH   1   5
HETATM    5  N   UNL     1     -41.971  57.472 -54.823  1.00  0.00    -0.184 NA
HETATM    6  C   UNL     1     -42.145  56.713 -55.861  1.00  0.00     0.152 C 
BRANCH   6   7
HETATM    7  C   UNL     1     -42.652  57.281 -57.094  1.00  0.00     0.011 A 
HETATM    8  C   UNL     1     -43.259  56.569 -58.180  1.00  0.00     0.004 A 
HETATM    9  C   UNL     1     -43.561  55.212 -58.421  1.00  0.00     0.014 A 
HETATM   10  C   UNL     1     -43.584  57.505 -59.164  1.00  0.00     0.043 A 
HETATM   11  C   UNL     1     -44.172  54.842 -59.624  1.00  0.00     0.001 A 
HETATM   12  C   UNL     1     -44.484  55.801 -60.584  1.00  0.00     0.002 A 
HETATM   13  C   UNL     1     -44.195  57.153 -60.373  1.00  0.00     0.030 A 
HETATM   14  N   UNL     1     -43.191  58.738 -58.695  1.00  0.00    -0.364 N 
HETATM   15  H   UNL     1     -43.299  59.604 -59.204  1.00  0.00     0.165 HD
HETATM   16  C   UNL     1     -42.632  58.616 -57.453  1.00  0.00     0.102 A 
ENDBRANCH   6   7
ENDBRANCH   1   5
BRANCH   2  17
HETATM   17  C   UNL     1     -41.333  55.696 -51.575  1.00  0.00     0.224 C 
BRANCH  17  18
HETATM   18  N   UNL     1     -41.672  54.272 -51.517  1.00  0.00    -0.381 N 
HETATM   19  H   UNL     1     -42.003  53.939 -50.616  1.00  0.00     0.160 HD
BRANCH  18  20
HETATM   20  C   UNL     1     -40.955  53.331 -52.251  1.00  0.00     0.028 A 
HETATM   21  C   UNL     1     -40.111  52.446 -51.560  1.00  0.00     0.032 A 
HETATM   22  C   UNL     1     -39.427  51.424 -52.224  1.00  0.00     0.044 A 
HETATM   23  C   UNL     1     -39.603  51.262 -53.590  1.00  0.00     0.116 A 
HETATM   24  F   UNL     1     -38.959  50.277 -54.230  1.00  0.00    -0.206 F 
HETATM   25  C   UNL     1     -40.453  52.099 -54.297  1.00  0.00     0.044 A 
HETATM   26  C   UNL     1     -41.132  53.122 -53.627  1.00  0.00     0.032 A 
ENDBRANCH  18  20
ENDBRANCH  17  18
ENDBRANCH   2  17
TORSDOF 5
ENDMDL
MODEL 7
REMARK VINA RESULT:      -7.4      5.445      6.517
REMARK  5 active torsions:
REMARK  status: ('A' for Active; 'I' for Inactive)
REMARK    1  A    between atoms: C_8  and  C_9 
REMARK    2  A    between atoms: N_10  and  N_11 
REMARK       I    between atoms: N_11  and  C_12 
REMARK    3  A    between atoms: C_12  and  C_13 
REMARK    4  A    between atoms: C_13  and  N_14 
REMARK    5  A    between atoms: N_14  and  C_15 
ROOT
HETATM    1  N   UNL     1     -43.447  56.710 -51.148  1.00  0.00    -0.246 N 
HETATM    2  C   UNL     1     -43.945  57.263 -52.331  1.00  0.00     0.255 C 
HETATM    3  O   UNL     1     -43.904  56.732 -53.438  1.00  0.00    -0.270 OA
HETATM    4  H   UNL     1     -43.833  57.053 -50.272  1.00  0.00     0.192 HD
ENDROOT
BRANCH   1   5
HETATM    5  N   UNL     1     -42.920  55.442 -51.051  1.00  0.00    -0.184 NA
HETATM    6  C   UNL     1     -41.628  55.329 -51.088  1.00  0.00     0.152 C 
BRANCH   6   7
HETATM    7  C   UNL     1     -41.016  54.017 -51.054  1.00  0.00     0.011 A 
HETATM    8  C   UNL     1     -40.629  53.221 -52.181  1.00  0.00     0.004 A 
HETATM    9  C   UNL     1     -40.685  53.402 -53.580  1.00  0.00     0.014 A 
HETATM   10  C   UNL     1     -40.094  52.029 -51.689  1.00  0.00     0.043 A 
HETATM   11  C   UNL     1     -40.209  52.396 -54.428  1.00  0.00     0.001 A 
HETATM   12  C   UNL     1     -39.682  51.219 -53.904  1.00  0.00     0.002 A 
HETATM   13  C   UNL     1     -39.615  51.012 -52.523  1.00  0.00     0.030 A 
HETATM   14  N   UNL     1     -40.153  52.096 -50.316  1.00  0.00    -0.364 N 
HETATM   15  H   UNL     1     -39.838  51.364 -49.693  1.00  0.00     0.165 HD
HETATM   16  C   UNL     1     -40.702  53.285 -49.923  1.00  0.00     0.102 A 
ENDBRANCH   6   7
ENDBRANCH   1   5
BRANCH   2  17
HETATM   17  C   UNL     1     -44.595  58.632 -52.113  1.00  0.00     0.224 C 
BRANCH  17  18
HETATM   18  N   UNL     1     -43.647  59.711 -52.398  1.00  0.00    -0.381 N 
HETATM   19  H   UNL     1     -43.804  60.211 -53.268  1.00  0.00     0.160 HD
BRANCH  18  20
HETATM   20  C   UNL     1     -42.310  59.614 -52.024  1.00  0.00     0.028 A 
HETATM   21  C   UNL     1     -41.969  59.877 -50.687  1.00  0.00     0.032 A 
HETATM   22  C   UNL     1     -40.659  59.716 -50.224  1.00  0.00     0.044 A 
HETATM   23  C   UNL     1     -39.680  59.265 -51.095  1.00  0.00     0.116 A 
HETATM   24  F   UNL     1     -38.426  59.099 -50.655  1.00  0.00    -0.206 F 
HETATM   25  C   UNL     1     -39.989  58.967 -52.414  1.00  0.00     0.044 A 
HETATM   26  C   UNL     1     -41.301  59.132 -52.871  1.00  0.00     0.032 A 
ENDBRANCH  18  20
ENDBRANCH  17  18
ENDBRANCH   2  17
TORSDOF 5
ENDMDL
MODEL 8
REMARK VINA RESULT:      -7.2      4.023      4.852
REMARK  5 active torsions:
REMARK  status: ('A' for Active; 'I' for Inactive)
REMARK    1  A    between atoms: C_8  and  C_9 
REMARK    2  A    between atoms: N_10  and  N_11 
REMARK       I    between atoms: N_11  and  C_12 
REMARK    3  A    between atoms: C_12  and  C_13 
REMARK    4  A    between atoms: C_13  and  N_14 
REMARK    5  A    between atoms: N_14  and  C_15 
ROOT
HETATM    1  N   UNL     1     -41.872  57.847 -50.581  1.00  0.00    -0.246 N 
HETATM    2  C   UNL     1     -41.205  58.973 -51.072  1.00  0.00     0.255 C 
HETATM    3  O   UNL     1     -40.005  59.036 -51.325  1.00  0.00    -0.270 OA
HETATM    4  H   UNL     1     -42.875  57.792 -50.739  1.00  0.00     0.192 HD
ENDROOT
BRANCH   1   5
HETATM    5  N   UNL     1     -41.279  56.618 -50.400  1.00  0.00    -0.184 NA
HETATM    6  C   UNL     1     -41.431  55.738 -51.341  1.00  0.00     0.152 C 
BRANCH   6   7
HETATM    7  C   UNL     1     -40.884  54.407 -51.181  1.00  0.00     0.011 A 
HETATM    8  C   UNL     1     -40.539  53.490 -52.228  1.00  0.00     0.004 A 
HETATM    9  C   UNL     1     -40.590  53.540 -53.637  1.00  0.00     0.014 A 
HETATM   10  C   UNL     1     -40.062  52.325 -51.623  1.00  0.00     0.043 A 
HETATM   11  C   UNL     1     -40.165  52.436 -54.385  1.00  0.00     0.001 A 
HETATM   12  C   UNL     1     -39.695  51.290 -53.750  1.00  0.00     0.002 A 
HETATM   13  C   UNL     1     -39.634  51.211 -52.356  1.00  0.00     0.030 A 
HETATM   14  N   UNL     1     -40.114  52.524 -50.263  1.00  0.00    -0.364 N 
HETATM   15  H   UNL     1     -39.834  51.841 -49.573  1.00  0.00     0.165 HD
HETATM   16  C   UNL     1     -40.604  53.771 -49.986  1.00  0.00     0.102 A 
ENDBRANCH   6   7
ENDBRANCH   1   5
BRANCH   2  17
HETATM   17  C   UNL     1     -42.144  60.160 -51.300  1.00  0.00     0.224 C 
BRANCH  17  18
HETATM   18  N   UNL     1     -42.763  60.089 -52.626  1.00  0.00    -0.381 N 
HETATM   19  H   UNL     1     -43.540  60.726 -52.779  1.00  0.00     0.160 HD
BRANCH  18  20
HETATM   20  C   UNL     1     -42.867  58.881 -53.309  1.00  0.00     0.028 A 
HETATM   21  C   UNL     1     -44.058  58.146 -53.189  1.00  0.00     0.032 A 
HETATM   22  C   UNL     1     -44.261  56.967 -53.913  1.00  0.00     0.044 A 
HETATM   23  C   UNL     1     -43.279  56.525 -54.786  1.00  0.00     0.116 A 
HETATM   24  F   UNL     1     -43.473  55.403 -55.490  1.00  0.00    -0.206 F 
HETATM   25  C   UNL     1     -42.105  57.244 -54.949  1.00  0.00     0.044 A 
HETATM   26  C   UNL     1     -41.906  58.421 -54.221  1.00  0.00     0.032 A 
ENDBRANCH  18  20
ENDBRANCH  17  18
ENDBRANCH   2  17
TORSDOF 5
ENDMDL
MODEL 9
REMARK VINA RESULT:      -7.2      1.914      2.036
REMARK  5 active torsions:
REMARK  status: ('A' for Active; 'I' for Inactive)
REMARK    1  A    between atoms: C_8  and  C_9 
REMARK    2  A    between atoms: N_10  and  N_11 
REMARK       I    between atoms: N_11  and  C_12 
REMARK    3  A    between atoms: C_12  and  C_13 
REMARK    4  A    between atoms: C_13  and  N_14 
REMARK    5  A    between atoms: N_14  and  C_15 
ROOT
HETATM    1  N   UNL     1     -42.440  56.099 -54.670  1.00  0.00    -0.246 N 
HETATM    2  C   UNL     1     -42.852  55.971 -56.000  1.00  0.00     0.255 C 
HETATM    3  O   UNL     1     -42.912  54.917 -56.628  1.00  0.00    -0.270 OA
HETATM    4  H   UNL     1     -42.754  56.921 -54.161  1.00  0.00     0.192 HD
ENDROOT
BRANCH   1   5
HETATM    5  N   UNL     1     -42.131  55.036 -53.852  1.00  0.00    -0.184 NA
HETATM    6  C   UNL     1     -40.928  54.985 -53.369  1.00  0.00     0.152 C 
BRANCH   6   7
HETATM    7  C   UNL     1     -40.525  53.858 -52.553  1.00  0.00     0.011 A 
HETATM    8  C   UNL     1     -40.262  52.523 -53.003  1.00  0.00     0.004 A 
HETATM    9  C   UNL     1     -40.288  51.886 -54.262  1.00  0.00     0.014 A 
HETATM   10  C   UNL     1     -39.917  51.764 -51.883  1.00  0.00     0.043 A 
HETATM   11  C   UNL     1     -39.971  50.526 -54.356  1.00  0.00     0.001 A 
HETATM   12  C   UNL     1     -39.631  49.798 -53.220  1.00  0.00     0.002 A 
HETATM   13  C   UNL     1     -39.598  50.403 -51.959  1.00  0.00     0.030 A 
HETATM   14  N   UNL     1     -39.968  52.603 -50.794  1.00  0.00    -0.364 N 
HETATM   15  H   UNL     1     -39.770  52.320 -49.844  1.00  0.00     0.165 HD
HETATM   16  C   UNL     1     -40.329  53.863 -51.184  1.00  0.00     0.102 A 
ENDBRANCH   6   7
ENDBRANCH   1   5
BRANCH   2  17
HETATM   17  C   UNL     1     -43.261  57.308 -56.621  1.00  0.00     0.224 C 
BRANCH  17  18
HETATM   18  N   UNL     1     -44.707  57.357 -56.850  1.00  0.00    -0.381 N 
HETATM   19  H   UNL     1     -45.228  56.549 -56.521  1.00  0.00     0.160 HD
BRANCH  18  20
HETATM   20  C   UNL     1     -45.236  57.959 -57.987  1.00  0.00     0.028 A 
HETATM   21  C   UNL     1     -44.349  58.484 -58.941  1.00  0.00     0.032 A 
HETATM   22  C   UNL     1     -44.809  59.027 -60.144  1.00  0.00     0.044 A 
HETATM   23  C   UNL     1     -46.169  59.027 -60.415  1.00  0.00     0.116 A 
HETATM   24  F   UNL     1     -46.615  59.536 -61.570  1.00  0.00    -0.206 F 
HETATM   25  C   UNL     1     -47.070  58.490 -59.508  1.00  0.00     0.044 A 
HETATM   26  C   UNL     1     -46.603  57.950 -58.305  1.00  0.00     0.032 A 
ENDBRANCH  18  20
ENDBRANCH  17  18
ENDBRANCH   2  17
TORSDOF 5
ENDMDL
MODEL 10
REMARK VINA RESULT:      -7.2      2.010      3.001
REMARK  5 active torsions:
REMARK  status: ('A' for Active; 'I' for Inactive)
REMARK    1  A    between atoms: C_8  and  C_9 
REMARK    2  A    between atoms: N_10  and  N_11 
REMARK       I    between atoms: N_11  and  C_12 
REMARK    3  A    between atoms: C_12  and  C_13 
REMARK    4  A    between atoms: C_13  and  N_14 
REMARK    5  A    between atoms: N_14  and  C_15 
ROOT
HETATM    1  N   UNL     1     -44.361  56.018 -55.029  1.00  0.00    -0.246 N 
HETATM    2  C   UNL     1     -44.472  57.409 -54.951  1.00  0.00     0.255 C 
HETATM    3  O   UNL     1     -44.007  58.111 -54.056  1.00  0.00    -0.270 OA
HETATM    4  H   UNL     1     -44.463  55.591 -55.945  1.00  0.00     0.192 HD
ENDROOT
BRANCH   1   5
HETATM    5  N   UNL     1     -43.628  55.252 -54.149  1.00  0.00    -0.184 NA
HETATM    6  C   UNL     1     -42.376  55.058 -54.428  1.00  0.00     0.152 C 
BRANCH   6   7
HETATM    7  C   UNL     1     -41.569  54.210 -53.575  1.00  0.00     0.011 A 
HETATM    8  C   UNL     1     -41.137  54.501 -52.239  1.00  0.00     0.004 A 
HETATM    9  C   UNL     1     -41.323  55.588 -51.359  1.00  0.00     0.014 A 
HETATM   10  C   UNL     1     -40.373  53.417 -51.801  1.00  0.00     0.043 A 
HETATM   11  C   UNL     1     -40.745  55.554 -50.085  1.00  0.00     0.001 A 
HETATM   12  C   UNL     1     -39.989  54.457 -49.680  1.00  0.00     0.002 A 
HETATM   13  C   UNL     1     -39.788  53.367 -50.531  1.00  0.00     0.030 A 
HETATM   14  N   UNL     1     -40.341  52.503 -52.829  1.00  0.00    -0.364 N 
HETATM   15  H   UNL     1     -39.852  51.619 -52.794  1.00  0.00     0.165 HD
HETATM   16  C   UNL     1     -41.057  52.967 -53.898  1.00  0.00     0.102 A 
ENDBRANCH   6   7
ENDBRANCH   1   5
BRANCH   2  17
HETATM   17  C   UNL     1     -45.232  58.006 -56.137  1.00  0.00     0.224 C 
BRANCH  17  18
HETATM   18  N   UNL     1     -44.377  58.072 -57.325  1.00  0.00    -0.381 N 
HETATM   19  H   UNL     1     -44.118  59.008 -57.624  1.00  0.00     0.160 HD
BRANCH  18  20
HETATM   20  C   UNL     1     -44.512  57.153 -58.362  1.00  0.00     0.028 A 
HETATM   21  C   UNL     1     -45.639  57.246 -59.195  1.00  0.00     0.032 A 
HETATM   22  C   UNL     1     -45.796  56.409 -60.304  1.00  0.00     0.044 A 
HETATM   23  C   UNL     1     -44.808  55.485 -60.604  1.00  0.00     0.116 A 
HETATM   24  F   UNL     1     -44.947  54.688 -61.672  1.00  0.00    -0.206 F 
HETATM   25  C   UNL     1     -43.668  55.388 -59.820  1.00  0.00     0.044 A 
HETATM   26  C   UNL     1     -43.519  56.226 -58.710  1.00  0.00     0.032 A 
ENDBRANCH  18  20
ENDBRANCH  17  18
ENDBRANCH   2  17
TORSDOF 5
ENDMDL
