MODEL 1
REMARK VINA RESULT:      -8.0      0.000      0.000
REMARK  6 active torsions:
REMARK  status: ('A' for Active; 'I' for Inactive)
REMARK    1  A    between atoms: C_2  and  S_3 
REMARK    2  A    between atoms: C_2  and  C_18 
REMARK    3  A    between atoms: S_3  and  C_4 
REMARK    4  A    between atoms: C_4  and  C_5 
REMARK       I    between atoms: C_5  and  N_6 
REMARK    5  A    between atoms: N_6  and  C_7 
REMARK    6  A    between atoms: C_10  and  C_11 
REMARK       I    between atoms: C_11  and  N_12 
ROOT
HETATM    1  C   UNL     1     -43.198  57.753 -52.716  1.00  0.00     0.231 C 
HETATM    2  N   UNL     1     -42.267  57.548 -53.721  1.00  0.00    -0.327 N 
HETATM    3  O   UNL     1     -44.416  57.627 -52.818  1.00  0.00    -0.272 OA
HETATM    4  H   UNL     1     -41.295  57.500 -53.440  1.00  0.00     0.169 HD
ENDROOT
BRANCH   1   5
HETATM    5  C   UNL     1     -42.559  58.207 -51.408  1.00  0.00     0.177 C 
BRANCH   5   6
HETATM    6  S   UNL     1     -41.020  57.306 -51.031  1.00  0.00    -0.147 SA
BRANCH   6   7
HETATM    7  C   UNL     1     -41.655  55.679 -50.457  1.00  0.00     0.113 C 
HETATM    8  C   UNL     1     -41.277  55.406 -49.002  1.00  0.00     0.029 C 
BRANCH   7   9
HETATM    9  C   UNL     1     -41.268  54.560 -51.371  1.00  0.00     0.118 A 
HETATM   10  N   UNL     1     -41.684  54.354 -52.606  1.00  0.00    -0.232 NA
HETATM   11  C   UNL     1     -41.024  53.225 -53.038  1.00  0.00     0.085 A 
HETATM   12  C   UNL     1     -40.200  52.721 -52.039  1.00  0.00     0.062 A 
HETATM   13  C   UNL     1     -41.085  52.562 -54.271  1.00  0.00     0.034 A 
HETATM   14  N   UNL     1     -40.375  53.582 -50.989  1.00  0.00    -0.342 N 
HETATM   15  C   UNL     1     -39.426  51.570 -52.189  1.00  0.00     0.032 A 
HETATM   16  H   UNL     1     -39.960  53.495 -50.072  1.00  0.00     0.167 HD
HETATM   17  C   UNL     1     -39.504  50.918 -53.425  1.00  0.00     0.002 A 
HETATM   18  C   UNL     1     -40.319  51.403 -54.451  1.00  0.00     0.002 A 
ENDBRANCH   7   9
ENDBRANCH   6   7
ENDBRANCH   5   6
ENDBRANCH   1   5
BRANCH   2  19
HETATM   19  C   UNL     1     -42.509  57.201 -55.066  1.00  0.00     0.034 A 
HETATM   20  C   UNL     1     -42.641  58.124 -56.104  1.00  0.00     0.030 A 
HETATM   21  C   UNL     1     -42.891  57.693 -57.415  1.00  0.00     0.019 A 
HETATM   22  C   UNL     1     -42.996  56.327 -57.700  1.00  0.00     0.032 A 
HETATM   23  C   UNL     1     -42.874  55.401 -56.661  1.00  0.00     0.019 A 
HETATM   24  C   UNL     1     -42.629  55.836 -55.356  1.00  0.00     0.030 A 
BRANCH  22  25
HETATM   25  C   UNL     1     -43.262  55.814 -59.073  1.00  0.00     0.251 C 
HETATM   26  N   UNL     1     -44.498  55.241 -59.289  1.00  0.00    -0.361 N 
HETATM   27  C   UNL     1     -44.868  54.699 -60.572  1.00  0.00     0.149 C 
HETATM   28  H   UNL     1     -45.184  55.218 -58.548  1.00  0.00     0.162 HD
HETATM   29  O   UNL     1     -42.412  55.938 -59.947  1.00  0.00    -0.268 OA
ENDBRANCH  22  25
ENDBRANCH   2  19
TORSDOF 6
ENDMDL
MODEL 2
REMARK VINA RESULT:      -7.7      2.811      7.204
REMARK  6 active torsions:
REMARK  status: ('A' for Active; 'I' for Inactive)
REMARK    1  A    between atoms: C_2  and  S_3 
REMARK    2  A    between atoms: C_2  and  C_18 
REMARK    3  A    between atoms: S_3  and  C_4 
REMARK    4  A    between atoms: C_4  and  C_5 
REMARK       I    between atoms: C_5  and  N_6 
REMARK    5  A    between atoms: N_6  and  C_7 
REMARK    6  A    between atoms: C_10  and  C_11 
REMARK       I    between atoms: C_11  and  N_12 
ROOT
HETATM    1  C   UNL     1     -42.564  56.097 -56.708  1.00  0.00     0.231 C 
HETATM    2  N   UNL     1     -41.643  56.228 -55.682  1.00  0.00    -0.327 N 
HETATM    3  O   UNL     1     -43.203  55.084 -56.985  1.00  0.00    -0.272 OA
HETATM    4  H   UNL     1     -41.343  57.169 -55.456  1.00  0.00     0.169 HD
ENDROOT
BRANCH   1   5
HETATM    5  C   UNL     1     -42.707  57.371 -57.535  1.00  0.00     0.177 C 
BRANCH   5   6
HETATM    6  S   UNL     1     -43.924  58.530 -56.830  1.00  0.00    -0.147 SA
BRANCH   6   7
HETATM    7  C   UNL     1     -42.865  59.947 -56.332  1.00  0.00     0.113 C 
HETATM    8  C   UNL     1     -41.753  60.206 -57.347  1.00  0.00     0.029 C 
BRANCH   7   9
HETATM    9  C   UNL     1     -42.348  59.811 -54.935  1.00  0.00     0.118 A 
HETATM   10  N   UNL     1     -41.302  59.113 -54.532  1.00  0.00    -0.232 NA
HETATM   11  C   UNL     1     -41.213  59.328 -53.175  1.00  0.00     0.085 A 
HETATM   12  C   UNL     1     -42.237  60.158 -52.736  1.00  0.00     0.062 A 
HETATM   13  C   UNL     1     -40.288  58.835 -52.244  1.00  0.00     0.034 A 
HETATM   14  N   UNL     1     -42.946  60.449 -53.870  1.00  0.00    -0.342 N 
HETATM   15  C   UNL     1     -42.407  60.530 -51.402  1.00  0.00     0.032 A 
HETATM   16  H   UNL     1     -43.793  60.997 -53.918  1.00  0.00     0.167 HD
HETATM   17  C   UNL     1     -41.477  60.024 -50.486  1.00  0.00     0.002 A 
HETATM   18  C   UNL     1     -40.434  59.190 -50.897  1.00  0.00     0.002 A 
ENDBRANCH   7   9
ENDBRANCH   6   7
ENDBRANCH   5   6
ENDBRANCH   1   5
BRANCH   2  19
HETATM   19  C   UNL     1     -41.209  55.238 -54.778  1.00  0.00     0.034 A 
HETATM   20  C   UNL     1     -40.536  54.073 -55.151  1.00  0.00     0.030 A 
HETATM   21  C   UNL     1     -40.148  53.133 -54.186  1.00  0.00     0.019 A 
HETATM   22  C   UNL     1     -40.417  53.361 -52.832  1.00  0.00     0.032 A 
HETATM   23  C   UNL     1     -41.098  54.521 -52.456  1.00  0.00     0.019 A 
HETATM   24  C   UNL     1     -41.486  55.453 -53.422  1.00  0.00     0.030 A 
BRANCH  22  25
HETATM   25  C   UNL     1     -40.028  52.396 -51.765  1.00  0.00     0.251 C 
HETATM   26  N   UNL     1     -39.749  51.108 -52.170  1.00  0.00    -0.361 N 
HETATM   27  C   UNL     1     -39.373  50.083 -51.229  1.00  0.00     0.149 C 
HETATM   28  H   UNL     1     -39.777  50.866 -53.150  1.00  0.00     0.162 HD
HETATM   29  O   UNL     1     -39.944  52.773 -50.602  1.00  0.00    -0.268 OA
ENDBRANCH  22  25
ENDBRANCH   2  19
TORSDOF 6
ENDMDL
MODEL 3
REMARK VINA RESULT:      -7.7      2.889      6.853
REMARK  6 active torsions:
REMARK  status: ('A' for Active; 'I' for Inactive)
REMARK    1  A    between atoms: C_2  and  S_3 
REMARK    2  A    between atoms: C_2  and  C_18 
REMARK    3  A    between atoms: S_3  and  C_4 
REMARK    4  A    between atoms: C_4  and  C_5 
REMARK       I    between atoms: C_5  and  N_6 
REMARK    5  A    between atoms: N_6  and  C_7 
REMARK    6  A    between atoms: C_10  and  C_11 
REMARK       I    between atoms: C_11  and  N_12 
ROOT
HETATM    1  C   UNL     1     -41.233  58.813 -53.890  1.00  0.00     0.231 C 
HETATM    2  N   UNL     1     -41.887  57.627 -54.177  1.00  0.00    -0.327 N 
HETATM    3  O   UNL     1     -40.128  58.923 -53.363  1.00  0.00    -0.272 OA
HETATM    4  H   UNL     1     -42.697  57.688 -54.783  1.00  0.00     0.169 HD
ENDROOT
BRANCH   1   5
HETATM    5  C   UNL     1     -42.053  60.042 -54.267  1.00  0.00     0.177 C 
BRANCH   5   6
HETATM    6  S   UNL     1     -42.186  60.267 -56.071  1.00  0.00    -0.147 SA
BRANCH   6   7
HETATM    7  C   UNL     1     -43.944  59.834 -56.387  1.00  0.00     0.113 C 
HETATM    8  C   UNL     1     -44.741  59.721 -55.089  1.00  0.00     0.029 C 
BRANCH   7   9
HETATM    9  C   UNL     1     -44.086  58.624 -57.256  1.00  0.00     0.118 A 
HETATM   10  N   UNL     1     -43.307  57.559 -57.282  1.00  0.00    -0.232 NA
HETATM   11  C   UNL     1     -43.865  56.712 -58.213  1.00  0.00     0.085 A 
HETATM   12  C   UNL     1     -44.998  57.280 -58.782  1.00  0.00     0.062 A 
HETATM   13  C   UNL     1     -43.451  55.442 -58.637  1.00  0.00     0.034 A 
HETATM   14  N   UNL     1     -45.116  58.494 -58.162  1.00  0.00    -0.342 N 
HETATM   15  C   UNL     1     -45.756  56.655 -59.774  1.00  0.00     0.032 A 
HETATM   16  H   UNL     1     -45.810  59.200 -58.363  1.00  0.00     0.167 HD
HETATM   17  C   UNL     1     -45.325  55.389 -60.188  1.00  0.00     0.002 A 
HETATM   18  C   UNL     1     -44.192  54.790 -59.632  1.00  0.00     0.002 A 
ENDBRANCH   7   9
ENDBRANCH   6   7
ENDBRANCH   5   6
ENDBRANCH   1   5
BRANCH   2  19
HETATM   19  C   UNL     1     -41.460  56.314 -53.895  1.00  0.00     0.034 A 
HETATM   20  C   UNL     1     -41.492  55.733 -52.625  1.00  0.00     0.030 A 
HETATM   21  C   UNL     1     -41.038  54.421 -52.430  1.00  0.00     0.019 A 
HETATM   22  C   UNL     1     -40.562  53.670 -53.511  1.00  0.00     0.032 A 
HETATM   23  C   UNL     1     -40.520  54.252 -54.780  1.00  0.00     0.019 A 
HETATM   24  C   UNL     1     -40.970  55.562 -54.970  1.00  0.00     0.030 A 
BRANCH  22  25
HETATM   25  C   UNL     1     -40.066  52.274 -53.360  1.00  0.00     0.251 C 
HETATM   26  N   UNL     1     -40.306  51.417 -54.414  1.00  0.00    -0.361 N 
HETATM   27  C   UNL     1     -39.884  50.039 -54.382  1.00  0.00     0.149 C 
HETATM   28  H   UNL     1     -40.762  51.755 -55.250  1.00  0.00     0.162 HD
HETATM   29  O   UNL     1     -39.456  51.948 -52.349  1.00  0.00    -0.268 OA
ENDBRANCH  22  25
ENDBRANCH   2  19
TORSDOF 6
ENDMDL
MODEL 4
REMARK VINA RESULT:      -7.6      2.695      6.096
REMARK  6 active torsions:
REMARK  status: ('A' for Active; 'I' for Inactive)
REMARK    1  A    between atoms: C_2  and  S_3 
REMARK    2  A    between atoms: C_2  and  C_18 
REMARK    3  A    between atoms: S_3  and  C_4 
REMARK    4  A    between atoms: C_4  and  C_5 
REMARK       I    between atoms: C_5  and  N_6 
REMARK    5  A    between atoms: N_6  and  C_7 
REMARK    6  A    between atoms: C_10  and  C_11 
REMARK       I    between atoms: C_11  and  N_12 
ROOT
HETATM    1  C   UNL     1     -42.874  56.398 -56.118  1.00  0.00     0.231 C 
HETATM    2  N   UNL     1     -42.160  56.138 -54.960  1.00  0.00    -0.327 N 
HETATM    3  O   UNL     1     -43.105  55.598 -57.023  1.00  0.00    -0.272 OA
HETATM    4  H   UNL     1     -42.217  56.832 -54.225  1.00  0.00     0.169 HD
ENDROOT
BRANCH   1   5
HETATM    5  C   UNL     1     -43.347  57.845 -56.204  1.00  0.00     0.177 C 
BRANCH   5   6
HETATM    6  S   UNL     1     -45.037  58.067 -55.559  1.00  0.00    -0.147 SA
BRANCH   6   7
HETATM    7  C   UNL     1     -44.734  58.958 -53.980  1.00  0.00     0.113 C 
HETATM    8  C   UNL     1     -44.066  60.312 -54.213  1.00  0.00     0.029 C 
BRANCH   7   9
HETATM    9  C   UNL     1     -44.000  58.119 -52.982  1.00  0.00     0.118 A 
HETATM   10  N   UNL     1     -42.758  58.275 -52.563  1.00  0.00    -0.232 NA
HETATM   11  C   UNL     1     -42.554  57.285 -51.629  1.00  0.00     0.085 A 
HETATM   12  C   UNL     1     -43.688  56.495 -51.488  1.00  0.00     0.062 A 
HETATM   13  C   UNL     1     -41.417  56.989 -50.864  1.00  0.00     0.034 A 
HETATM   14  N   UNL     1     -44.591  57.041 -52.360  1.00  0.00    -0.342 N 
HETATM   15  C   UNL     1     -43.761  55.401 -50.625  1.00  0.00     0.032 A 
HETATM   16  H   UNL     1     -45.518  56.690 -52.554  1.00  0.00     0.167 HD
HETATM   17  C   UNL     1     -42.615  55.118 -49.874  1.00  0.00     0.002 A 
HETATM   18  C   UNL     1     -41.460  55.896 -49.989  1.00  0.00     0.002 A 
ENDBRANCH   7   9
ENDBRANCH   6   7
ENDBRANCH   5   6
ENDBRANCH   1   5
BRANCH   2  19
HETATM   19  C   UNL     1     -41.516  54.939 -54.592  1.00  0.00     0.034 A 
HETATM   20  C   UNL     1     -40.440  54.381 -55.283  1.00  0.00     0.030 A 
HETATM   21  C   UNL     1     -39.864  53.177 -54.853  1.00  0.00     0.019 A 
HETATM   22  C   UNL     1     -40.351  52.529 -53.713  1.00  0.00     0.032 A 
HETATM   23  C   UNL     1     -41.434  53.081 -53.025  1.00  0.00     0.019 A 
HETATM   24  C   UNL     1     -42.008  54.279 -53.459  1.00  0.00     0.030 A 
BRANCH  22  25
HETATM   25  C   UNL     1     -39.778  51.249 -53.212  1.00  0.00     0.251 C 
HETATM   26  N   UNL     1     -39.762  51.073 -51.844  1.00  0.00    -0.361 N 
HETATM   27  C   UNL     1     -39.223  49.881 -51.240  1.00  0.00     0.149 C 
HETATM   28  H   UNL     1     -40.160  51.775 -51.237  1.00  0.00     0.162 HD
HETATM   29  O   UNL     1     -39.377  50.406 -54.007  1.00  0.00    -0.268 OA
ENDBRANCH  22  25
ENDBRANCH   2  19
TORSDOF 6
ENDMDL
MODEL 5
REMARK VINA RESULT:      -7.6      2.827      6.912
REMARK  6 active torsions:
REMARK  status: ('A' for Active; 'I' for Inactive)
REMARK    1  A    between atoms: C_2  and  S_3 
REMARK    2  A    between atoms: C_2  and  C_18 
REMARK    3  A    between atoms: S_3  and  C_4 
REMARK    4  A    between atoms: C_4  and  C_5 
REMARK       I    between atoms: C_5  and  N_6 
REMARK    5  A    between atoms: N_6  and  C_7 
REMARK    6  A    between atoms: C_10  and  C_11 
REMARK       I    between atoms: C_11  and  N_12 
ROOT
HETATM    1  C   UNL     1     -40.902  58.655 -53.672  1.00  0.00     0.231 C 
HETATM    2  N   UNL     1     -41.645  57.507 -53.890  1.00  0.00    -0.327 N 
HETATM    3  O   UNL     1     -39.742  58.703 -53.270  1.00  0.00    -0.272 OA
HETATM    4  H   UNL     1     -42.513  57.616 -54.402  1.00  0.00     0.169 HD
ENDROOT
BRANCH   1   5
HETATM    5  C   UNL     1     -41.693  59.929 -53.951  1.00  0.00     0.177 C 
BRANCH   5   6
HETATM    6  S   UNL     1     -43.098  59.647 -55.078  1.00  0.00    -0.147 SA
BRANCH   6   7
HETATM    7  C   UNL     1     -42.251  59.305 -56.673  1.00  0.00     0.113 C 
HETATM    8  C   UNL     1     -41.895  60.593 -57.413  1.00  0.00     0.029 C 
BRANCH   7   9
HETATM    9  C   UNL     1     -43.014  58.343 -57.529  1.00  0.00     0.118 A 
HETATM   10  N   UNL     1     -44.232  58.493 -58.014  1.00  0.00    -0.232 NA
HETATM   11  C   UNL     1     -44.477  57.364 -58.762  1.00  0.00     0.085 A 
HETATM   12  C   UNL     1     -43.393  56.496 -58.718  1.00  0.00     0.062 A 
HETATM   13  C   UNL     1     -45.612  57.001 -59.500  1.00  0.00     0.034 A 
HETATM   14  N   UNL     1     -42.478  57.138 -57.927  1.00  0.00    -0.342 N 
HETATM   15  C   UNL     1     -43.369  55.261 -59.368  1.00  0.00     0.032 A 
HETATM   16  H   UNL     1     -41.580  56.773 -57.640  1.00  0.00     0.167 HD
HETATM   17  C   UNL     1     -44.512  54.914 -60.096  1.00  0.00     0.002 A 
HETATM   18  C   UNL     1     -45.618  55.766 -60.163  1.00  0.00     0.002 A 
ENDBRANCH   7   9
ENDBRANCH   6   7
ENDBRANCH   5   6
ENDBRANCH   1   5
BRANCH   2  19
HETATM   19  C   UNL     1     -41.259  56.171 -53.663  1.00  0.00     0.034 A 
HETATM   20  C   UNL     1     -41.396  55.511 -52.440  1.00  0.00     0.030 A 
HETATM   21  C   UNL     1     -40.976  54.181 -52.297  1.00  0.00     0.019 A 
HETATM   22  C   UNL     1     -40.429  53.493 -53.385  1.00  0.00     0.032 A 
HETATM   23  C   UNL     1     -40.283  54.153 -54.607  1.00  0.00     0.019 A 
HETATM   24  C   UNL     1     -40.699  55.481 -54.744  1.00  0.00     0.030 A 
BRANCH  22  25
HETATM   25  C   UNL     1     -39.966  52.080 -53.289  1.00  0.00     0.251 C 
HETATM   26  N   UNL     1     -40.252  51.263 -54.362  1.00  0.00    -0.361 N 
HETATM   27  C   UNL     1     -39.864  49.875 -54.382  1.00  0.00     0.149 C 
HETATM   28  H   UNL     1     -40.718  51.637 -55.176  1.00  0.00     0.162 HD
HETATM   29  O   UNL     1     -39.341  51.708 -52.303  1.00  0.00    -0.268 OA
ENDBRANCH  22  25
ENDBRANCH   2  19
TORSDOF 6
ENDMDL
MODEL 6
REMARK VINA RESULT:      -7.0     15.197     16.867
REMARK  6 active torsions:
REMARK  status: ('A' for Active; 'I' for Inactive)
REMARK    1  A    between atoms: C_2  and  S_3 
REMARK    2  A    between atoms: C_2  and  C_18 
REMARK    3  A    between atoms: S_3  and  C_4 
REMARK    4  A    between atoms: C_4  and  C_5 
REMARK       I    between atoms: C_5  and  N_6 
REMARK    5  A    between atoms: N_6  and  C_7 
REMARK    6  A    between atoms: C_10  and  C_11 
REMARK       I    between atoms: C_11  and  N_12 
ROOT
HETATM    1  C   UNL     1     -35.466  41.822 -52.654  1.00  0.00     0.231 C 
HETATM    2  N   UNL     1     -34.812  41.377 -53.790  1.00  0.00    -0.327 N 
HETATM    3  O   UNL     1     -36.604  42.283 -52.605  1.00  0.00    -0.272 OA
HETATM    4  H   UNL     1     -33.959  40.848 -53.647  1.00  0.00     0.169 HD
ENDROOT
BRANCH   1   5
HETATM    5  C   UNL     1     -34.602  41.723 -51.401  1.00  0.00     0.177 C 
BRANCH   5   6
HETATM    6  S   UNL     1     -34.728  40.095 -50.591  1.00  0.00    -0.147 SA
BRANCH   6   7
HETATM    7  C   UNL     1     -33.109  39.330 -51.005  1.00  0.00     0.113 C 
HETATM    8  C   UNL     1     -31.953  40.033 -50.296  1.00  0.00     0.029 C 
BRANCH   7   9
HETATM    9  C   UNL     1     -32.893  39.214 -52.481  1.00  0.00     0.118 A 
HETATM   10  N   UNL     1     -32.114  39.963 -53.238  1.00  0.00    -0.232 NA
HETATM   11  C   UNL     1     -32.225  39.448 -54.510  1.00  0.00     0.085 A 
HETATM   12  C   UNL     1     -33.104  38.373 -54.535  1.00  0.00     0.062 A 
HETATM   13  C   UNL     1     -31.611  39.854 -55.703  1.00  0.00     0.034 A 
HETATM   14  N   UNL     1     -33.519  38.245 -53.236  1.00  0.00    -0.342 N 
HETATM   15  C   UNL     1     -33.426  37.668 -55.695  1.00  0.00     0.032 A 
HETATM   16  H   UNL     1     -34.203  37.587 -52.892  1.00  0.00     0.167 HD
HETATM   17  C   UNL     1     -32.808  38.091 -56.877  1.00  0.00     0.002 A 
HETATM   18  C   UNL     1     -31.915  39.167 -56.885  1.00  0.00     0.002 A 
ENDBRANCH   7   9
ENDBRANCH   6   7
ENDBRANCH   5   6
ENDBRANCH   1   5
BRANCH   2  19
HETATM   19  C   UNL     1     -35.279  41.394 -55.120  1.00  0.00     0.034 A 
HETATM   20  C   UNL     1     -34.984  42.400 -56.042  1.00  0.00     0.030 A 
HETATM   21  C   UNL     1     -35.499  42.345 -57.345  1.00  0.00     0.019 A 
HETATM   22  C   UNL     1     -36.303  41.271 -57.742  1.00  0.00     0.032 A 
HETATM   23  C   UNL     1     -36.606  40.268 -56.818  1.00  0.00     0.019 A 
HETATM   24  C   UNL     1     -36.094  40.329 -55.519  1.00  0.00     0.030 A 
BRANCH  22  25
HETATM   25  C   UNL     1     -36.877  41.162 -59.112  1.00  0.00     0.251 C 
HETATM   26  N   UNL     1     -37.002  39.890 -59.630  1.00  0.00    -0.361 N 
HETATM   27  C   UNL     1     -37.534  39.658 -60.949  1.00  0.00     0.149 C 
HETATM   28  H   UNL     1     -36.746  39.087 -59.073  1.00  0.00     0.162 HD
HETATM   29  O   UNL     1     -37.235  42.172 -59.706  1.00  0.00    -0.268 OA
ENDBRANCH  22  25
ENDBRANCH   2  19
TORSDOF 6
ENDMDL
MODEL 7
REMARK VINA RESULT:      -6.9      1.617      2.062
REMARK  6 active torsions:
REMARK  status: ('A' for Active; 'I' for Inactive)
REMARK    1  A    between atoms: C_2  and  S_3 
REMARK    2  A    between atoms: C_2  and  C_18 
REMARK    3  A    between atoms: S_3  and  C_4 
REMARK    4  A    between atoms: C_4  and  C_5 
REMARK       I    between atoms: C_5  and  N_6 
REMARK    5  A    between atoms: N_6  and  C_7 
REMARK    6  A    between atoms: C_10  and  C_11 
REMARK       I    between atoms: C_11  and  N_12 
ROOT
HETATM    1  C   UNL     1     -43.383  57.266 -53.434  1.00  0.00     0.231 C 
HETATM    2  N   UNL     1     -43.549  58.176 -54.465  1.00  0.00    -0.327 N 
HETATM    3  O   UNL     1     -43.662  56.069 -53.471  1.00  0.00    -0.272 OA
HETATM    4  H   UNL     1     -43.097  59.076 -54.355  1.00  0.00     0.169 HD
ENDROOT
BRANCH   1   5
HETATM    5  C   UNL     1     -42.829  57.907 -52.167  1.00  0.00     0.177 C 
BRANCH   5   6
HETATM    6  S   UNL     1     -41.190  57.253 -51.711  1.00  0.00    -0.147 SA
BRANCH   6   7
HETATM    7  C   UNL     1     -41.625  55.703 -50.824  1.00  0.00     0.113 C 
HETATM    8  C   UNL     1     -41.197  55.751 -49.358  1.00  0.00     0.029 C 
BRANCH   7   9
HETATM    9  C   UNL     1     -41.125  54.482 -51.529  1.00  0.00     0.118 A 
HETATM   10  N   UNL     1     -40.281  53.579 -51.067  1.00  0.00    -0.232 NA
HETATM   11  C   UNL     1     -40.160  52.637 -52.064  1.00  0.00     0.085 A 
HETATM   12  C   UNL     1     -40.932  52.982 -53.167  1.00  0.00     0.062 A 
HETATM   13  C   UNL     1     -39.398  51.462 -52.105  1.00  0.00     0.034 A 
HETATM   14  N   UNL     1     -41.532  54.159 -52.805  1.00  0.00    -0.342 N 
HETATM   15  C   UNL     1     -40.987  52.222 -54.335  1.00  0.00     0.032 A 
HETATM   16  H   UNL     1     -42.134  54.724 -53.388  1.00  0.00     0.167 HD
HETATM   17  C   UNL     1     -40.216  51.054 -54.360  1.00  0.00     0.002 A 
HETATM   18  C   UNL     1     -39.432  50.678 -53.266  1.00  0.00     0.002 A 
ENDBRANCH   7   9
ENDBRANCH   6   7
ENDBRANCH   5   6
ENDBRANCH   1   5
BRANCH   2  19
HETATM   19  C   UNL     1     -44.103  57.946 -55.740  1.00  0.00     0.034 A 
HETATM   20  C   UNL     1     -45.376  58.368 -56.131  1.00  0.00     0.030 A 
HETATM   21  C   UNL     1     -45.855  58.089 -57.419  1.00  0.00     0.019 A 
HETATM   22  C   UNL     1     -45.055  57.398 -58.335  1.00  0.00     0.032 A 
HETATM   23  C   UNL     1     -43.785  56.967 -57.944  1.00  0.00     0.019 A 
HETATM   24  C   UNL     1     -43.313  57.243 -56.658  1.00  0.00     0.030 A 
BRANCH  22  25
HETATM   25  C   UNL     1     -45.514  57.074 -59.715  1.00  0.00     0.251 C 
HETATM   26  N   UNL     1     -46.870  56.888 -59.886  1.00  0.00    -0.361 N 
HETATM   27  C   UNL     1     -47.433  56.561 -61.172  1.00  0.00     0.149 C 
HETATM   28  H   UNL     1     -47.502  57.010 -59.108  1.00  0.00     0.162 HD
HETATM   29  O   UNL     1     -44.701  57.012 -60.630  1.00  0.00    -0.268 OA
ENDBRANCH  22  25
ENDBRANCH   2  19
TORSDOF 6
ENDMDL
MODEL 8
REMARK VINA RESULT:      -6.9      1.738      2.569
REMARK  6 active torsions:
REMARK  status: ('A' for Active; 'I' for Inactive)
REMARK    1  A    between atoms: C_2  and  S_3 
REMARK    2  A    between atoms: C_2  and  C_18 
REMARK    3  A    between atoms: S_3  and  C_4 
REMARK    4  A    between atoms: C_4  and  C_5 
REMARK       I    between atoms: C_5  and  N_6 
REMARK    5  A    between atoms: N_6  and  C_7 
REMARK    6  A    between atoms: C_10  and  C_11 
REMARK       I    between atoms: C_11  and  N_12 
ROOT
HETATM    1  C   UNL     1     -44.282  59.013 -53.624  1.00  0.00     0.231 C 
HETATM    2  N   UNL     1     -43.222  58.473 -54.333  1.00  0.00    -0.327 N 
HETATM    3  O   UNL     1     -45.470  58.947 -53.933  1.00  0.00    -0.272 OA
HETATM    4  H   UNL     1     -42.328  58.439 -53.859  1.00  0.00     0.169 HD
ENDROOT
BRANCH   1   5
HETATM    5  C   UNL     1     -43.832  59.766 -52.377  1.00  0.00     0.177 C 
BRANCH   5   6
HETATM    6  S   UNL     1     -42.027  60.011 -52.321  1.00  0.00    -0.147 SA
BRANCH   6   7
HETATM    7  C   UNL     1     -41.555  59.067 -50.815  1.00  0.00     0.113 C 
HETATM    8  C   UNL     1     -40.320  59.660 -50.141  1.00  0.00     0.029 C 
BRANCH   7   9
HETATM    9  C   UNL     1     -41.418  57.601 -51.079  1.00  0.00     0.118 A 
HETATM   10  N   UNL     1     -41.389  56.997 -52.253  1.00  0.00    -0.232 NA
HETATM   11  C   UNL     1     -41.216  55.659 -51.978  1.00  0.00     0.085 A 
HETATM   12  C   UNL     1     -41.156  55.438 -50.608  1.00  0.00     0.062 A 
HETATM   13  C   UNL     1     -41.111  54.567 -52.850  1.00  0.00     0.034 A 
HETATM   14  N   UNL     1     -41.291  56.685 -50.058  1.00  0.00    -0.342 N 
HETATM   15  C   UNL     1     -41.006  54.173 -50.038  1.00  0.00     0.032 A 
HETATM   16  H   UNL     1     -41.339  56.899 -49.072  1.00  0.00     0.167 HD
HETATM   17  C   UNL     1     -40.909  53.094 -50.924  1.00  0.00     0.002 A 
HETATM   18  C   UNL     1     -40.961  53.284 -52.308  1.00  0.00     0.002 A 
ENDBRANCH   7   9
ENDBRANCH   6   7
ENDBRANCH   5   6
ENDBRANCH   1   5
BRANCH   2  19
HETATM   19  C   UNL     1     -43.266  57.784 -55.562  1.00  0.00     0.034 A 
HETATM   20  C   UNL     1     -42.914  56.442 -55.723  1.00  0.00     0.030 A 
HETATM   21  C   UNL     1     -42.977  55.836 -56.986  1.00  0.00     0.019 A 
HETATM   22  C   UNL     1     -43.409  56.566 -58.099  1.00  0.00     0.032 A 
HETATM   23  C   UNL     1     -43.753  57.911 -57.942  1.00  0.00     0.019 A 
HETATM   24  C   UNL     1     -43.685  58.512 -56.682  1.00  0.00     0.030 A 
BRANCH  22  25
HETATM   25  C   UNL     1     -43.494  55.973 -59.463  1.00  0.00     0.251 C 
HETATM   26  N   UNL     1     -44.723  55.476 -59.844  1.00  0.00    -0.361 N 
HETATM   27  C   UNL     1     -44.927  54.869 -61.135  1.00  0.00     0.149 C 
HETATM   28  H   UNL     1     -45.518  55.558 -59.227  1.00  0.00     0.162 HD
HETATM   29  O   UNL     1     -42.508  55.970 -60.190  1.00  0.00    -0.268 OA
ENDBRANCH  22  25
ENDBRANCH   2  19
TORSDOF 6
ENDMDL
MODEL 9
REMARK VINA RESULT:      -6.8     14.797     16.879
REMARK  6 active torsions:
REMARK  status: ('A' for Active; 'I' for Inactive)
REMARK    1  A    between atoms: C_2  and  S_3 
REMARK    2  A    between atoms: C_2  and  C_18 
REMARK    3  A    between atoms: S_3  and  C_4 
REMARK    4  A    between atoms: C_4  and  C_5 
REMARK       I    between atoms: C_5  and  N_6 
REMARK    5  A    between atoms: N_6  and  C_7 
REMARK    6  A    between atoms: C_10  and  C_11 
REMARK       I    between atoms: C_11  and  N_12 
ROOT
HETATM    1  C   UNL     1     -35.840  41.906 -55.404  1.00  0.00     0.231 C 
HETATM    2  N   UNL     1     -37.041  41.770 -56.080  1.00  0.00    -0.327 N 
HETATM    3  O   UNL     1     -34.733  41.570 -55.818  1.00  0.00    -0.272 OA
HETATM    4  H   UNL     1     -37.838  42.265 -55.697  1.00  0.00     0.169 HD
ENDROOT
BRANCH   1   5
HETATM    5  C   UNL     1     -36.014  42.507 -54.013  1.00  0.00     0.177 C 
BRANCH   5   6
HETATM    6  S   UNL     1     -36.692  41.313 -52.814  1.00  0.00    -0.147 SA
BRANCH   6   7
HETATM    7  C   UNL     1     -35.195  40.824 -51.866  1.00  0.00     0.113 C 
HETATM    8  C   UNL     1     -34.507  42.032 -51.232  1.00  0.00     0.029 C 
BRANCH   7   9
HETATM    9  C   UNL     1     -34.254  39.987 -52.675  1.00  0.00     0.118 A 
HETATM   10  N   UNL     1     -34.331  38.690 -52.904  1.00  0.00    -0.232 NA
HETATM   11  C   UNL     1     -33.265  38.393 -53.723  1.00  0.00     0.085 A 
HETATM   12  C   UNL     1     -32.510  39.529 -53.985  1.00  0.00     0.062 A 
HETATM   13  C   UNL     1     -32.869  37.168 -54.277  1.00  0.00     0.034 A 
HETATM   14  N   UNL     1     -33.155  40.528 -53.305  1.00  0.00    -0.342 N 
HETATM   15  C   UNL     1     -31.356  39.523 -54.770  1.00  0.00     0.032 A 
HETATM   16  H   UNL     1     -32.855  41.490 -53.235  1.00  0.00     0.167 HD
HETATM   17  C   UNL     1     -30.973  38.290 -55.310  1.00  0.00     0.002 A 
HETATM   18  C   UNL     1     -31.714  37.130 -55.069  1.00  0.00     0.002 A 
ENDBRANCH   7   9
ENDBRANCH   6   7
ENDBRANCH   5   6
ENDBRANCH   1   5
BRANCH   2  19
HETATM   19  C   UNL     1     -37.261  41.188 -57.345  1.00  0.00     0.034 A 
HETATM   20  C   UNL     1     -36.931  41.797 -58.557  1.00  0.00     0.030 A 
HETATM   21  C   UNL     1     -37.193  41.151 -59.774  1.00  0.00     0.019 A 
HETATM   22  C   UNL     1     -37.775  39.878 -59.786  1.00  0.00     0.032 A 
HETATM   23  C   UNL     1     -38.114  39.271 -58.575  1.00  0.00     0.019 A 
HETATM   24  C   UNL     1     -37.855  39.921 -57.364  1.00  0.00     0.030 A 
BRANCH  22  25
HETATM   25  C   UNL     1     -38.076  39.147 -61.048  1.00  0.00     0.251 C 
HETATM   26  N   UNL     1     -37.153  39.267 -62.066  1.00  0.00    -0.361 N 
HETATM   27  C   UNL     1     -37.338  38.615 -63.338  1.00  0.00     0.149 C 
HETATM   28  H   UNL     1     -36.305  39.798 -61.924  1.00  0.00     0.162 HD
HETATM   29  O   UNL     1     -39.088  38.460 -61.130  1.00  0.00    -0.268 OA
ENDBRANCH  22  25
ENDBRANCH   2  19
TORSDOF 6
ENDMDL
MODEL 10
REMARK VINA RESULT:      -6.8      2.231      2.960
REMARK  6 active torsions:
REMARK  status: ('A' for Active; 'I' for Inactive)
REMARK    1  A    between atoms: C_2  and  S_3 
REMARK    2  A    between atoms: C_2  and  C_18 
REMARK    3  A    between atoms: S_3  and  C_4 
REMARK    4  A    between atoms: C_4  and  C_5 
REMARK       I    between atoms: C_5  and  N_6 
REMARK    5  A    between atoms: N_6  and  C_7 
REMARK    6  A    between atoms: C_10  and  C_11 
REMARK       I    between atoms: C_11  and  N_12 
ROOT
HETATM    1  C   UNL     1     -42.323  59.790 -53.877  1.00  0.00     0.231 C 
HETATM    2  N   UNL     1     -43.596  59.398 -54.257  1.00  0.00    -0.327 N 
HETATM    3  O   UNL     1     -41.316  59.767 -54.581  1.00  0.00    -0.272 OA
HETATM    4  H   UNL     1     -44.356  59.655 -53.638  1.00  0.00     0.169 HD
ENDROOT
BRANCH   1   5
HETATM    5  C   UNL     1     -42.259  60.247 -52.424  1.00  0.00     0.177 C 
BRANCH   5   6
HETATM    6  S   UNL     1     -42.898  58.993 -51.266  1.00  0.00    -0.147 SA
BRANCH   6   7
HETATM    7  C   UNL     1     -41.381  58.042 -50.849  1.00  0.00     0.113 C 
HETATM    8  C   UNL     1     -40.140  58.933 -50.840  1.00  0.00     0.029 C 
BRANCH   7   9
HETATM    9  C   UNL     1     -41.211  56.830 -51.710  1.00  0.00     0.118 A 
HETATM   10  N   UNL     1     -41.293  55.566 -51.340  1.00  0.00    -0.232 NA
HETATM   11  C   UNL     1     -41.099  54.829 -52.486  1.00  0.00     0.085 A 
HETATM   12  C   UNL     1     -40.875  55.660 -53.577  1.00  0.00     0.062 A 
HETATM   13  C   UNL     1     -41.089  53.440 -52.673  1.00  0.00     0.034 A 
HETATM   14  N   UNL     1     -40.947  56.925 -53.059  1.00  0.00    -0.342 N 
HETATM   15  C   UNL     1     -40.626  55.187 -54.866  1.00  0.00     0.032 A 
HETATM   16  H   UNL     1     -40.787  57.785 -53.565  1.00  0.00     0.167 HD
HETATM   17  C   UNL     1     -40.614  53.797 -55.033  1.00  0.00     0.002 A 
HETATM   18  C   UNL     1     -40.840  52.935 -53.956  1.00  0.00     0.002 A 
ENDBRANCH   7   9
ENDBRANCH   6   7
ENDBRANCH   5   6
ENDBRANCH   1   5
BRANCH   2  19
HETATM   19  C   UNL     1     -44.000  58.854 -55.493  1.00  0.00     0.034 A 
HETATM   20  C   UNL     1     -43.490  57.674 -56.037  1.00  0.00     0.030 A 
HETATM   21  C   UNL     1     -43.941  57.208 -57.279  1.00  0.00     0.019 A 
HETATM   22  C   UNL     1     -44.924  57.913 -57.983  1.00  0.00     0.032 A 
HETATM   23  C   UNL     1     -45.430  59.099 -57.445  1.00  0.00     0.019 A 
HETATM   24  C   UNL     1     -44.974  59.562 -56.208  1.00  0.00     0.030 A 
BRANCH  22  25
HETATM   25  C   UNL     1     -45.439  57.465 -59.307  1.00  0.00     0.251 C 
HETATM   26  N   UNL     1     -46.540  56.634 -59.291  1.00  0.00    -0.361 N 
HETATM   27  C   UNL     1     -47.123  56.126 -60.507  1.00  0.00     0.149 C 
HETATM   28  H   UNL     1     -46.979  56.389 -58.415  1.00  0.00     0.162 HD
HETATM   29  O   UNL     1     -44.903  57.858 -60.336  1.00  0.00    -0.268 OA
ENDBRANCH  22  25
ENDBRANCH   2  19
TORSDOF 6
ENDMDL
