MODEL 1
REMARK VINA RESULT:      -7.9      0.000      0.000
REMARK  9 active torsions:
REMARK  status: ('A' for Active; 'I' for Inactive)
REMARK    1  A    between atoms: C_2  and  N_3 
REMARK    2  A    between atoms: C_4  and  S_5 
REMARK    3  A    between atoms: S_5  and  C_6 
REMARK    4  A    between atoms: C_6  and  C_7 
REMARK       I    between atoms: C_7  and  N_8 
REMARK    5  A    between atoms: N_8  and  C_9 
REMARK    6  A    between atoms: C_9  and  C_10 
REMARK    7  A    between atoms: C_10  and  C_11 
REMARK    8  A    between atoms: C_14  and  O_15 
REMARK    9  A    between atoms: C_22  and  C_23 
ROOT
HETATM    1  S   UNL     1     -43.626  57.273 -52.851  1.00  0.00    -0.081 SA
ENDROOT
BRANCH   1   2
HETATM    2  C   UNL     1     -42.329  56.202 -53.249  1.00  0.00     0.192 A 
HETATM    3  N   UNL     1     -42.321  54.862 -52.970  1.00  0.00    -0.308 N 
HETATM    4  C   UNL     1     -41.094  54.400 -53.410  1.00  0.00     0.165 A 
HETATM    5  N   UNL     1     -40.427  55.419 -53.925  1.00  0.00    -0.128 NA
HETATM    6  N   UNL     1     -41.205  56.545 -53.829  1.00  0.00    -0.122 NA
BRANCH   3   7
HETATM    7  C   UNL     1     -43.355  54.090 -52.314  1.00  0.00     0.128 C 
HETATM    8  C   UNL     1     -43.367  54.281 -50.807  1.00  0.00     0.027 C 
ENDBRANCH   3   7
BRANCH   4   9
HETATM    9  C   UNL     1     -40.582  53.038 -53.264  1.00  0.00     0.018 A 
HETATM   10  C   UNL     1     -39.979  52.610 -52.061  1.00  0.00    -0.048 A 
HETATM   11  C   UNL     1     -39.801  53.541 -50.890  1.00  0.00     0.049 C 
HETATM   12  C   UNL     1     -39.499  51.294 -51.964  1.00  0.00     0.007 A 
HETATM   13  C   UNL     1     -39.614  50.411 -53.038  1.00  0.00     0.001 A 
HETATM   14  C   UNL     1     -40.192  50.836 -54.228  1.00  0.00     0.001 A 
HETATM   15  C   UNL     1     -40.666  52.145 -54.344  1.00  0.00     0.016 A 
ENDBRANCH   4   9
ENDBRANCH   1   2
BRANCH   1  16
HETATM   16  C   UNL     1     -43.174  58.712 -53.866  1.00  0.00     0.185 C 
BRANCH  16  17
HETATM   17  C   UNL     1     -43.599  58.474 -55.306  1.00  0.00     0.227 C 
HETATM   18  N   UNL     1     -42.564  58.155 -56.167  1.00  0.00    -0.360 N 
HETATM   19  H   UNL     1     -41.614  58.316 -55.856  1.00  0.00     0.162 HD
HETATM   20  O   UNL     1     -44.772  58.535 -55.670  1.00  0.00    -0.273 OA
BRANCH  18  21
HETATM   21  C   UNL     1     -42.791  58.012 -57.596  1.00  0.00     0.127 C 
BRANCH  21  22
HETATM   22  C   UNL     1     -42.965  56.549 -58.003  1.00  0.00     0.058 C 
BRANCH  22  23
HETATM   23  C   UNL     1     -44.110  56.375 -58.969  1.00  0.00    -0.057 A 
HETATM   24  C   UNL     1     -44.075  55.371 -59.942  1.00  0.00     0.010 A 
HETATM   25  C   UNL     1     -45.119  55.245 -60.861  1.00  0.00     0.037 A 
HETATM   26  C   UNL     1     -46.209  56.116 -60.829  1.00  0.00     0.068 A 
HETATM   27  C   UNL     1     -46.251  57.116 -59.858  1.00  0.00     0.037 A 
HETATM   28  C   UNL     1     -45.207  57.245 -58.935  1.00  0.00     0.010 A 
BRANCH  26  29
HETATM   29  O   UNL     1     -47.154  55.887 -61.792  1.00  0.00    -0.356 OA
HETATM   30  C   UNL     1     -48.177  56.864 -61.932  1.00  0.00     0.210 C 
ENDBRANCH  26  29
ENDBRANCH  22  23
ENDBRANCH  21  22
ENDBRANCH  18  21
ENDBRANCH  16  17
ENDBRANCH   1  16
TORSDOF 9
ENDMDL
MODEL 2
REMARK VINA RESULT:      -7.6      1.578      2.107
REMARK  9 active torsions:
REMARK  status: ('A' for Active; 'I' for Inactive)
REMARK    1  A    between atoms: C_2  and  N_3 
REMARK    2  A    between atoms: C_4  and  S_5 
REMARK    3  A    between atoms: S_5  and  C_6 
REMARK    4  A    between atoms: C_6  and  C_7 
REMARK       I    between atoms: C_7  and  N_8 
REMARK    5  A    between atoms: N_8  and  C_9 
REMARK    6  A    between atoms: C_9  and  C_10 
REMARK    7  A    between atoms: C_10  and  C_11 
REMARK    8  A    between atoms: C_14  and  O_15 
REMARK    9  A    between atoms: C_22  and  C_23 
ROOT
HETATM    1  S   UNL     1     -43.755  57.167 -52.885  1.00  0.00    -0.081 SA
ENDROOT
BRANCH   1   2
HETATM    2  C   UNL     1     -42.463  56.105 -53.319  1.00  0.00     0.192 A 
HETATM    3  N   UNL     1     -42.397  54.784 -52.965  1.00  0.00    -0.308 N 
HETATM    4  C   UNL     1     -41.195  54.326 -53.471  1.00  0.00     0.165 A 
HETATM    5  N   UNL     1     -40.596  55.327 -54.093  1.00  0.00    -0.128 NA
HETATM    6  N   UNL     1     -41.395  56.439 -54.002  1.00  0.00    -0.122 NA
BRANCH   3   7
HETATM    7  C   UNL     1     -43.357  54.029 -52.189  1.00  0.00     0.128 C 
HETATM    8  C   UNL     1     -43.284  54.334 -50.703  1.00  0.00     0.027 C 
ENDBRANCH   3   7
BRANCH   4   9
HETATM    9  C   UNL     1     -40.635  52.987 -53.287  1.00  0.00     0.018 A 
HETATM   10  C   UNL     1     -40.009  52.617 -52.077  1.00  0.00    -0.048 A 
HETATM   11  C   UNL     1     -39.853  53.590 -50.937  1.00  0.00     0.049 C 
HETATM   12  C   UNL     1     -39.483  51.321 -51.943  1.00  0.00     0.007 A 
HETATM   13  C   UNL     1     -39.577  50.402 -52.988  1.00  0.00     0.001 A 
HETATM   14  C   UNL     1     -40.179  50.770 -54.186  1.00  0.00     0.001 A 
HETATM   15  C   UNL     1     -40.698  52.058 -54.338  1.00  0.00     0.016 A 
ENDBRANCH   4   9
ENDBRANCH   1   2
BRANCH   1  16
HETATM   16  C   UNL     1     -42.808  58.643 -52.406  1.00  0.00     0.185 C 
BRANCH  16  17
HETATM   17  C   UNL     1     -42.545  59.500 -53.634  1.00  0.00     0.227 C 
HETATM   18  N   UNL     1     -43.290  59.155 -54.748  1.00  0.00    -0.360 N 
HETATM   19  H   UNL     1     -43.766  58.262 -54.749  1.00  0.00     0.162 HD
HETATM   20  O   UNL     1     -41.752  60.440 -53.628  1.00  0.00    -0.273 OA
BRANCH  18  21
HETATM   21  C   UNL     1     -43.069  59.803 -56.030  1.00  0.00     0.127 C 
BRANCH  21  22
HETATM   22  C   UNL     1     -41.929  59.150 -56.811  1.00  0.00     0.058 C 
BRANCH  22  23
HETATM   23  C   UNL     1     -42.449  58.199 -57.860  1.00  0.00    -0.057 A 
HETATM   24  C   UNL     1     -42.371  58.524 -59.218  1.00  0.00     0.010 A 
HETATM   25  C   UNL     1     -42.894  57.658 -60.180  1.00  0.00     0.037 A 
HETATM   26  C   UNL     1     -43.507  56.460 -59.807  1.00  0.00     0.068 A 
HETATM   27  C   UNL     1     -43.583  56.129 -58.455  1.00  0.00     0.037 A 
HETATM   28  C   UNL     1     -43.059  56.994 -57.487  1.00  0.00     0.010 A 
BRANCH  26  29
HETATM   29  O   UNL     1     -43.985  55.712 -60.848  1.00  0.00    -0.356 OA
HETATM   30  C   UNL     1     -44.899  54.672 -60.525  1.00  0.00     0.210 C 
ENDBRANCH  26  29
ENDBRANCH  22  23
ENDBRANCH  21  22
ENDBRANCH  18  21
ENDBRANCH  16  17
ENDBRANCH   1  16
TORSDOF 9
ENDMDL
MODEL 3
REMARK VINA RESULT:      -7.5      2.185      3.109
REMARK  9 active torsions:
REMARK  status: ('A' for Active; 'I' for Inactive)
REMARK    1  A    between atoms: C_2  and  N_3 
REMARK    2  A    between atoms: C_4  and  S_5 
REMARK    3  A    between atoms: S_5  and  C_6 
REMARK    4  A    between atoms: C_6  and  C_7 
REMARK       I    between atoms: C_7  and  N_8 
REMARK    5  A    between atoms: N_8  and  C_9 
REMARK    6  A    between atoms: C_9  and  C_10 
REMARK    7  A    between atoms: C_10  and  C_11 
REMARK    8  A    between atoms: C_14  and  O_15 
REMARK    9  A    between atoms: C_22  and  C_23 
ROOT
HETATM    1  S   UNL     1     -43.695  59.502 -51.370  1.00  0.00    -0.081 SA
ENDROOT
BRANCH   1   2
HETATM    2  C   UNL     1     -43.568  58.046 -52.292  1.00  0.00     0.192 A 
HETATM    3  N   UNL     1     -42.465  57.234 -52.307  1.00  0.00    -0.308 N 
HETATM    4  C   UNL     1     -42.765  56.221 -53.197  1.00  0.00     0.165 A 
HETATM    5  N   UNL     1     -43.982  56.428 -53.670  1.00  0.00    -0.128 NA
HETATM    6  N   UNL     1     -44.485  57.569 -53.098  1.00  0.00    -0.122 NA
BRANCH   3   7
HETATM    7  C   UNL     1     -41.227  57.414 -51.579  1.00  0.00     0.128 C 
HETATM    8  C   UNL     1     -41.228  56.711 -50.233  1.00  0.00     0.027 C 
ENDBRANCH   3   7
BRANCH   4   9
HETATM    9  C   UNL     1     -41.867  55.142 -53.611  1.00  0.00     0.018 A 
HETATM   10  C   UNL     1     -41.836  53.912 -52.919  1.00  0.00    -0.048 A 
HETATM   11  C   UNL     1     -42.693  53.665 -51.706  1.00  0.00     0.049 C 
HETATM   12  C   UNL     1     -40.957  52.904 -53.349  1.00  0.00     0.007 A 
HETATM   13  C   UNL     1     -40.123  53.106 -54.448  1.00  0.00     0.001 A 
HETATM   14  C   UNL     1     -40.140  54.323 -55.121  1.00  0.00     0.001 A 
HETATM   15  C   UNL     1     -41.001  55.339 -54.699  1.00  0.00     0.016 A 
ENDBRANCH   4   9
ENDBRANCH   1   2
BRANCH   1  16
HETATM   16  C   UNL     1     -44.196  60.664 -52.675  1.00  0.00     0.185 C 
BRANCH  16  17
HETATM   17  C   UNL     1     -43.184  60.626 -53.809  1.00  0.00     0.227 C 
HETATM   18  N   UNL     1     -43.690  60.181 -55.017  1.00  0.00    -0.360 N 
HETATM   19  H   UNL     1     -44.589  59.716 -55.020  1.00  0.00     0.162 HD
HETATM   20  O   UNL     1     -42.017  60.985 -53.667  1.00  0.00    -0.273 OA
BRANCH  18  21
HETATM   21  C   UNL     1     -42.822  59.978 -56.166  1.00  0.00     0.127 C 
BRANCH  21  22
HETATM   22  C   UNL     1     -42.160  58.600 -56.145  1.00  0.00     0.058 C 
BRANCH  22  23
HETATM   23  C   UNL     1     -42.550  57.779 -57.348  1.00  0.00    -0.057 A 
HETATM   24  C   UNL     1     -43.277  56.594 -57.197  1.00  0.00     0.010 A 
HETATM   25  C   UNL     1     -43.595  55.817 -58.313  1.00  0.00     0.037 A 
HETATM   26  C   UNL     1     -43.193  56.203 -59.592  1.00  0.00     0.068 A 
HETATM   27  C   UNL     1     -42.472  57.386 -59.749  1.00  0.00     0.037 A 
HETATM   28  C   UNL     1     -42.151  58.169 -58.633  1.00  0.00     0.010 A 
BRANCH  26  29
HETATM   29  O   UNL     1     -43.562  55.346 -60.593  1.00  0.00    -0.356 OA
HETATM   30  C   UNL     1     -44.932  55.359 -60.975  1.00  0.00     0.210 C 
ENDBRANCH  26  29
ENDBRANCH  22  23
ENDBRANCH  21  22
ENDBRANCH  18  21
ENDBRANCH  16  17
ENDBRANCH   1  16
TORSDOF 9
ENDMDL
MODEL 4
REMARK VINA RESULT:      -7.5      3.154      7.875
REMARK  9 active torsions:
REMARK  status: ('A' for Active; 'I' for Inactive)
REMARK    1  A    between atoms: C_2  and  N_3 
REMARK    2  A    between atoms: C_4  and  S_5 
REMARK    3  A    between atoms: S_5  and  C_6 
REMARK    4  A    between atoms: C_6  and  C_7 
REMARK       I    between atoms: C_7  and  N_8 
REMARK    5  A    between atoms: N_8  and  C_9 
REMARK    6  A    between atoms: C_9  and  C_10 
REMARK    7  A    between atoms: C_10  and  C_11 
REMARK    8  A    between atoms: C_14  and  O_15 
REMARK    9  A    between atoms: C_22  and  C_23 
ROOT
HETATM    1  S   UNL     1     -44.583  57.662 -52.527  1.00  0.00    -0.081 SA
ENDROOT
BRANCH   1   2
HETATM    2  C   UNL     1     -44.559  57.962 -54.228  1.00  0.00     0.192 A 
HETATM    3  N   UNL     1     -43.788  57.271 -55.124  1.00  0.00    -0.308 N 
HETATM    4  C   UNL     1     -44.036  57.855 -56.352  1.00  0.00     0.165 A 
HETATM    5  N   UNL     1     -44.913  58.830 -56.180  1.00  0.00    -0.128 NA
HETATM    6  N   UNL     1     -45.244  58.891 -54.850  1.00  0.00    -0.122 NA
BRANCH   3   7
HETATM    7  C   UNL     1     -42.872  56.186 -54.847  1.00  0.00     0.128 C 
HETATM    8  C   UNL     1     -43.548  54.826 -54.863  1.00  0.00     0.027 C 
ENDBRANCH   3   7
BRANCH   4   9
HETATM    9  C   UNL     1     -43.387  57.512 -57.618  1.00  0.00     0.018 A 
HETATM   10  C   UNL     1     -42.398  58.348 -58.180  1.00  0.00    -0.048 A 
HETATM   11  C   UNL     1     -41.993  59.644 -57.529  1.00  0.00     0.049 C 
HETATM   12  C   UNL     1     -41.801  57.982 -59.398  1.00  0.00     0.007 A 
HETATM   13  C   UNL     1     -42.173  56.806 -60.050  1.00  0.00     0.001 A 
HETATM   14  C   UNL     1     -43.159  55.991 -59.505  1.00  0.00     0.001 A 
HETATM   15  C   UNL     1     -43.769  56.346 -58.300  1.00  0.00     0.016 A 
ENDBRANCH   4   9
ENDBRANCH   1   2
BRANCH   1  16
HETATM   16  C   UNL     1     -43.153  58.656 -52.007  1.00  0.00     0.185 C 
BRANCH  16  17
HETATM   17  C   UNL     1     -41.993  57.737 -51.659  1.00  0.00     0.227 C 
HETATM   18  N   UNL     1     -42.238  56.872 -50.607  1.00  0.00    -0.360 N 
HETATM   19  H   UNL     1     -43.041  57.050 -50.017  1.00  0.00     0.162 HD
HETATM   20  O   UNL     1     -40.931  57.745 -52.280  1.00  0.00    -0.273 OA
BRANCH  18  21
HETATM   21  C   UNL     1     -41.191  56.013 -50.080  1.00  0.00     0.127 C 
BRANCH  21  22
HETATM   22  C   UNL     1     -41.670  54.572 -49.903  1.00  0.00     0.058 C 
BRANCH  22  23
HETATM   23  C   UNL     1     -41.061  53.655 -50.934  1.00  0.00    -0.057 A 
HETATM   24  C   UNL     1     -40.366  52.505 -50.543  1.00  0.00     0.010 A 
HETATM   25  C   UNL     1     -39.768  51.685 -51.502  1.00  0.00     0.037 A 
HETATM   26  C   UNL     1     -39.846  51.997 -52.860  1.00  0.00     0.068 A 
HETATM   27  C   UNL     1     -40.542  53.139 -53.255  1.00  0.00     0.037 A 
HETATM   28  C   UNL     1     -41.144  53.964 -52.298  1.00  0.00     0.010 A 
BRANCH  26  29
HETATM   29  O   UNL     1     -39.208  51.116 -53.689  1.00  0.00    -0.356 OA
HETATM   30  C   UNL     1     -39.999  50.080 -54.256  1.00  0.00     0.210 C 
ENDBRANCH  26  29
ENDBRANCH  22  23
ENDBRANCH  21  22
ENDBRANCH  18  21
ENDBRANCH  16  17
ENDBRANCH   1  16
TORSDOF 9
ENDMDL
MODEL 5
REMARK VINA RESULT:      -7.4      1.873      2.704
REMARK  9 active torsions:
REMARK  status: ('A' for Active; 'I' for Inactive)
REMARK    1  A    between atoms: C_2  and  N_3 
REMARK    2  A    between atoms: C_4  and  S_5 
REMARK    3  A    between atoms: S_5  and  C_6 
REMARK    4  A    between atoms: C_6  and  C_7 
REMARK       I    between atoms: C_7  and  N_8 
REMARK    5  A    between atoms: N_8  and  C_9 
REMARK    6  A    between atoms: C_9  and  C_10 
REMARK    7  A    between atoms: C_10  and  C_11 
REMARK    8  A    between atoms: C_14  and  O_15 
REMARK    9  A    between atoms: C_22  and  C_23 
ROOT
HETATM    1  S   UNL     1     -43.312  60.346 -52.502  1.00  0.00    -0.081 SA
ENDROOT
BRANCH   1   2
HETATM    2  C   UNL     1     -42.147  59.138 -52.914  1.00  0.00     0.192 A 
HETATM    3  N   UNL     1     -42.445  57.819 -53.128  1.00  0.00    -0.308 N 
HETATM    4  C   UNL     1     -41.234  57.204 -53.382  1.00  0.00     0.165 A 
HETATM    5  N   UNL     1     -40.282  58.120 -53.326  1.00  0.00    -0.128 NA
HETATM    6  N   UNL     1     -40.857  59.332 -53.039  1.00  0.00    -0.122 NA
BRANCH   3   7
HETATM    7  C   UNL     1     -43.745  57.186 -53.062  1.00  0.00     0.128 C 
HETATM    8  C   UNL     1     -44.390  57.022 -54.428  1.00  0.00     0.027 C 
ENDBRANCH   3   7
BRANCH   4   9
HETATM    9  C   UNL     1     -41.021  55.772 -53.599  1.00  0.00     0.018 A 
HETATM   10  C   UNL     1     -40.995  54.866 -52.517  1.00  0.00    -0.048 A 
HETATM   11  C   UNL     1     -41.145  55.331 -51.092  1.00  0.00     0.049 C 
HETATM   12  C   UNL     1     -40.787  53.501 -52.770  1.00  0.00     0.007 A 
HETATM   13  C   UNL     1     -40.609  53.035 -54.073  1.00  0.00     0.001 A 
HETATM   14  C   UNL     1     -40.619  53.929 -55.139  1.00  0.00     0.001 A 
HETATM   15  C   UNL     1     -40.815  55.291 -54.902  1.00  0.00     0.016 A 
ENDBRANCH   4   9
ENDBRANCH   1   2
BRANCH   1  16
HETATM   16  C   UNL     1     -43.152  61.447 -53.939  1.00  0.00     0.185 C 
BRANCH  16  17
HETATM   17  C   UNL     1     -43.392  60.658 -55.216  1.00  0.00     0.227 C 
HETATM   18  N   UNL     1     -42.242  60.276 -55.882  1.00  0.00    -0.360 N 
HETATM   19  H   UNL     1     -41.368  60.716 -55.622  1.00  0.00     0.162 HD
HETATM   20  O   UNL     1     -44.519  60.362 -55.609  1.00  0.00    -0.273 OA
BRANCH  18  21
HETATM   21  C   UNL     1     -42.306  59.617 -57.176  1.00  0.00     0.127 C 
BRANCH  21  22
HETATM   22  C   UNL     1     -42.200  58.097 -57.049  1.00  0.00     0.058 C 
BRANCH  22  23
HETATM   23  C   UNL     1     -43.183  57.395 -57.952  1.00  0.00    -0.057 A 
HETATM   24  C   UNL     1     -44.394  58.005 -58.297  1.00  0.00     0.010 A 
HETATM   25  C   UNL     1     -45.317  57.330 -59.098  1.00  0.00     0.037 A 
HETATM   26  C   UNL     1     -45.053  56.040 -59.563  1.00  0.00     0.068 A 
HETATM   27  C   UNL     1     -43.846  55.431 -59.226  1.00  0.00     0.037 A 
HETATM   28  C   UNL     1     -42.917  56.103 -58.424  1.00  0.00     0.010 A 
BRANCH  26  29
HETATM   29  O   UNL     1     -46.047  55.493 -60.328  1.00  0.00    -0.356 OA
HETATM   30  C   UNL     1     -47.146  56.335 -60.652  1.00  0.00     0.210 C 
ENDBRANCH  26  29
ENDBRANCH  22  23
ENDBRANCH  21  22
ENDBRANCH  18  21
ENDBRANCH  16  17
ENDBRANCH   1  16
TORSDOF 9
ENDMDL
MODEL 6
REMARK VINA RESULT:      -7.3      3.273      7.635
REMARK  9 active torsions:
REMARK  status: ('A' for Active; 'I' for Inactive)
REMARK    1  A    between atoms: C_2  and  N_3 
REMARK    2  A    between atoms: C_4  and  S_5 
REMARK    3  A    between atoms: S_5  and  C_6 
REMARK    4  A    between atoms: C_6  and  C_7 
REMARK       I    between atoms: C_7  and  N_8 
REMARK    5  A    between atoms: N_8  and  C_9 
REMARK    6  A    between atoms: C_9  and  C_10 
REMARK    7  A    between atoms: C_10  and  C_11 
REMARK    8  A    between atoms: C_14  and  O_15 
REMARK    9  A    between atoms: C_22  and  C_23 
ROOT
HETATM    1  S   UNL     1     -43.011  61.234 -52.913  1.00  0.00    -0.081 SA
ENDROOT
BRANCH   1   2
HETATM    2  C   UNL     1     -43.651  59.867 -53.756  1.00  0.00     0.192 A 
HETATM    3  N   UNL     1     -43.133  59.366 -54.920  1.00  0.00    -0.308 N 
HETATM    4  C   UNL     1     -43.961  58.318 -55.271  1.00  0.00     0.165 A 
HETATM    5  N   UNL     1     -44.908  58.210 -54.355  1.00  0.00    -0.128 NA
HETATM    6  N   UNL     1     -44.708  59.178 -53.403  1.00  0.00    -0.122 NA
BRANCH   3   7
HETATM    7  C   UNL     1     -41.985  59.852 -55.656  1.00  0.00     0.128 C 
HETATM    8  C   UNL     1     -42.359  60.859 -56.731  1.00  0.00     0.027 C 
ENDBRANCH   3   7
BRANCH   4   9
HETATM    9  C   UNL     1     -43.863  57.510 -56.487  1.00  0.00     0.018 A 
HETATM   10  C   UNL     1     -44.554  57.874 -57.663  1.00  0.00    -0.048 A 
HETATM   11  C   UNL     1     -45.451  59.082 -57.711  1.00  0.00     0.049 C 
HETATM   12  C   UNL     1     -44.433  57.069 -58.808  1.00  0.00     0.007 A 
HETATM   13  C   UNL     1     -43.639  55.922 -58.793  1.00  0.00     0.001 A 
HETATM   14  C   UNL     1     -42.971  55.554 -57.631  1.00  0.00     0.001 A 
HETATM   15  C   UNL     1     -43.089  56.338 -56.482  1.00  0.00     0.016 A 
ENDBRANCH   4   9
ENDBRANCH   1   2
BRANCH   1  16
HETATM   16  C   UNL     1     -42.370  60.417 -51.421  1.00  0.00     0.185 C 
BRANCH  16  17
HETATM   17  C   UNL     1     -41.470  59.259 -51.820  1.00  0.00     0.227 C 
HETATM   18  N   UNL     1     -42.038  58.008 -51.665  1.00  0.00    -0.360 N 
HETATM   19  H   UNL     1     -42.882  57.928 -51.112  1.00  0.00     0.162 HD
HETATM   20  O   UNL     1     -40.337  59.425 -52.268  1.00  0.00    -0.273 OA
BRANCH  18  21
HETATM   21  C   UNL     1     -41.266  56.798 -51.893  1.00  0.00     0.127 C 
BRANCH  21  22
HETATM   22  C   UNL     1     -41.749  56.036 -53.128  1.00  0.00     0.058 C 
BRANCH  22  23
HETATM   23  C   UNL     1     -41.160  54.649 -53.189  1.00  0.00    -0.057 A 
HETATM   24  C   UNL     1     -40.782  53.983 -52.018  1.00  0.00     0.010 A 
HETATM   25  C   UNL     1     -40.197  52.717 -52.086  1.00  0.00     0.037 A 
HETATM   26  C   UNL     1     -39.976  52.097 -53.317  1.00  0.00     0.068 A 
HETATM   27  C   UNL     1     -40.356  52.753 -54.487  1.00  0.00     0.037 A 
HETATM   28  C   UNL     1     -40.943  54.023 -54.423  1.00  0.00     0.010 A 
BRANCH  26  29
HETATM   29  O   UNL     1     -39.388  50.864 -53.240  1.00  0.00    -0.356 OA
HETATM   30  C   UNL     1     -39.622  49.972 -54.322  1.00  0.00     0.210 C 
ENDBRANCH  26  29
ENDBRANCH  22  23
ENDBRANCH  21  22
ENDBRANCH  18  21
ENDBRANCH  16  17
ENDBRANCH   1  16
TORSDOF 9
ENDMDL
MODEL 7
REMARK VINA RESULT:      -7.2      1.764      3.037
REMARK  9 active torsions:
REMARK  status: ('A' for Active; 'I' for Inactive)
REMARK    1  A    between atoms: C_2  and  N_3 
REMARK    2  A    between atoms: C_4  and  S_5 
REMARK    3  A    between atoms: S_5  and  C_6 
REMARK    4  A    between atoms: C_6  and  C_7 
REMARK       I    between atoms: C_7  and  N_8 
REMARK    5  A    between atoms: N_8  and  C_9 
REMARK    6  A    between atoms: C_9  and  C_10 
REMARK    7  A    between atoms: C_10  and  C_11 
REMARK    8  A    between atoms: C_14  and  O_15 
REMARK    9  A    between atoms: C_22  and  C_23 
ROOT
HETATM    1  S   UNL     1     -43.301  58.442 -51.403  1.00  0.00    -0.081 SA
ENDROOT
BRANCH   1   2
HETATM    2  C   UNL     1     -43.095  56.728 -51.477  1.00  0.00     0.192 A 
HETATM    3  N   UNL     1     -42.006  56.104 -52.024  1.00  0.00    -0.308 N 
HETATM    4  C   UNL     1     -42.265  54.751 -51.919  1.00  0.00     0.165 A 
HETATM    5  N   UNL     1     -43.440  54.596 -51.334  1.00  0.00    -0.128 NA
HETATM    6  N   UNL     1     -43.956  55.836 -51.053  1.00  0.00    -0.122 NA
BRANCH   3   7
HETATM    7  C   UNL     1     -40.844  56.723 -52.626  1.00  0.00     0.128 C 
HETATM    8  C   UNL     1     -41.067  57.107 -54.079  1.00  0.00     0.027 C 
ENDBRANCH   3   7
BRANCH   4   9
HETATM    9  C   UNL     1     -41.425  53.669 -52.435  1.00  0.00     0.018 A 
HETATM   10  C   UNL     1     -41.522  53.246 -53.778  1.00  0.00    -0.048 A 
HETATM   11  C   UNL     1     -42.515  53.859 -54.730  1.00  0.00     0.049 C 
HETATM   12  C   UNL     1     -40.698  52.203 -54.231  1.00  0.00     0.007 A 
HETATM   13  C   UNL     1     -39.789  51.586 -53.371  1.00  0.00     0.001 A 
HETATM   14  C   UNL     1     -39.704  51.990 -52.043  1.00  0.00     0.001 A 
HETATM   15  C   UNL     1     -40.524  53.020 -51.575  1.00  0.00     0.016 A 
ENDBRANCH   4   9
ENDBRANCH   1   2
BRANCH   1  16
HETATM   16  C   UNL     1     -45.075  58.567 -51.775  1.00  0.00     0.185 C 
BRANCH  16  17
HETATM   17  C   UNL     1     -45.269  59.278 -53.104  1.00  0.00     0.227 C 
HETATM   18  N   UNL     1     -44.658  58.662 -54.182  1.00  0.00    -0.360 N 
HETATM   19  H   UNL     1     -43.968  57.946 -53.997  1.00  0.00     0.162 HD
HETATM   20  O   UNL     1     -45.936  60.305 -53.215  1.00  0.00    -0.273 OA
BRANCH  18  21
HETATM   21  C   UNL     1     -44.653  59.279 -55.497  1.00  0.00     0.127 C 
BRANCH  21  22
HETATM   22  C   UNL     1     -43.390  58.932 -56.286  1.00  0.00     0.058 C 
BRANCH  22  23
HETATM   23  C   UNL     1     -43.640  57.817 -57.271  1.00  0.00    -0.057 A 
HETATM   24  C   UNL     1     -44.685  57.906 -58.197  1.00  0.00     0.010 A 
HETATM   25  C   UNL     1     -44.937  56.851 -59.076  1.00  0.00     0.037 A 
HETATM   26  C   UNL     1     -44.159  55.692 -59.044  1.00  0.00     0.068 A 
HETATM   27  C   UNL     1     -43.114  55.600 -58.126  1.00  0.00     0.037 A 
HETATM   28  C   UNL     1     -42.857  56.656 -57.243  1.00  0.00     0.010 A 
BRANCH  26  29
HETATM   29  O   UNL     1     -44.521  54.734 -59.951  1.00  0.00    -0.356 OA
HETATM   30  C   UNL     1     -45.061  55.189 -61.185  1.00  0.00     0.210 C 
ENDBRANCH  26  29
ENDBRANCH  22  23
ENDBRANCH  21  22
ENDBRANCH  18  21
ENDBRANCH  16  17
ENDBRANCH   1  16
TORSDOF 9
ENDMDL
MODEL 8
REMARK VINA RESULT:      -7.0      3.393      5.811
REMARK  9 active torsions:
REMARK  status: ('A' for Active; 'I' for Inactive)
REMARK    1  A    between atoms: C_2  and  N_3 
REMARK    2  A    between atoms: C_4  and  S_5 
REMARK    3  A    between atoms: S_5  and  C_6 
REMARK    4  A    between atoms: C_6  and  C_7 
REMARK       I    between atoms: C_7  and  N_8 
REMARK    5  A    between atoms: N_8  and  C_9 
REMARK    6  A    between atoms: C_9  and  C_10 
REMARK    7  A    between atoms: C_10  and  C_11 
REMARK    8  A    between atoms: C_14  and  O_15 
REMARK    9  A    between atoms: C_22  and  C_23 
ROOT
HETATM    1  S   UNL     1     -44.234  60.029 -52.872  1.00  0.00    -0.081 SA
ENDROOT
BRANCH   1   2
HETATM    2  C   UNL     1     -44.074  58.596 -51.919  1.00  0.00     0.192 A 
HETATM    3  N   UNL     1     -42.918  57.873 -51.800  1.00  0.00    -0.308 N 
HETATM    4  C   UNL     1     -43.237  56.796 -50.995  1.00  0.00     0.165 A 
HETATM    5  N   UNL     1     -44.512  56.893 -50.657  1.00  0.00    -0.128 NA
HETATM    6  N   UNL     1     -45.033  58.024 -51.232  1.00  0.00    -0.122 NA
BRANCH   3   7
HETATM    7  C   UNL     1     -41.638  58.148 -52.417  1.00  0.00     0.128 C 
HETATM    8  C   UNL     1     -40.760  59.055 -51.573  1.00  0.00     0.027 C 
ENDBRANCH   3   7
BRANCH   4   9
HETATM    9  C   UNL     1     -42.346  55.692 -50.636  1.00  0.00     0.018 A 
HETATM   10  C   UNL     1     -42.474  54.425 -51.244  1.00  0.00    -0.048 A 
HETATM   11  C   UNL     1     -43.551  54.138 -52.257  1.00  0.00     0.049 C 
HETATM   12  C   UNL     1     -41.599  53.392 -50.869  1.00  0.00     0.007 A 
HETATM   13  C   UNL     1     -40.610  53.608 -49.910  1.00  0.00     0.001 A 
HETATM   14  C   UNL     1     -40.493  54.851 -49.298  1.00  0.00     0.001 A 
HETATM   15  C   UNL     1     -41.363  55.885 -49.653  1.00  0.00     0.016 A 
ENDBRANCH   4   9
ENDBRANCH   1   2
BRANCH   1  16
HETATM   16  C   UNL     1     -44.951  59.326 -54.387  1.00  0.00     0.185 C 
BRANCH  16  17
HETATM   17  C   UNL     1     -43.841  58.781 -55.271  1.00  0.00     0.227 C 
HETATM   18  N   UNL     1     -43.753  57.401 -55.300  1.00  0.00    -0.360 N 
HETATM   19  H   UNL     1     -44.252  56.873 -54.594  1.00  0.00     0.162 HD
HETATM   20  O   UNL     1     -43.098  59.509 -55.927  1.00  0.00    -0.273 OA
BRANCH  18  21
HETATM   21  C   UNL     1     -42.674  56.730 -56.005  1.00  0.00     0.127 C 
BRANCH  21  22
HETATM   22  C   UNL     1     -42.971  55.247 -56.227  1.00  0.00     0.058 C 
BRANCH  22  23
HETATM   23  C   UNL     1     -41.988  54.369 -55.493  1.00  0.00    -0.057 A 
HETATM   24  C   UNL     1     -42.288  53.028 -55.233  1.00  0.00     0.010 A 
HETATM   25  C   UNL     1     -41.391  52.233 -54.515  1.00  0.00     0.037 A 
HETATM   26  C   UNL     1     -40.188  52.761 -54.042  1.00  0.00     0.068 A 
HETATM   27  C   UNL     1     -39.883  54.096 -54.303  1.00  0.00     0.037 A 
HETATM   28  C   UNL     1     -40.779  54.896 -55.023  1.00  0.00     0.010 A 
BRANCH  26  29
HETATM   29  O   UNL     1     -39.409  51.877 -53.346  1.00  0.00    -0.356 OA
HETATM   30  C   UNL     1     -39.697  50.495 -53.518  1.00  0.00     0.210 C 
ENDBRANCH  26  29
ENDBRANCH  22  23
ENDBRANCH  21  22
ENDBRANCH  18  21
ENDBRANCH  16  17
ENDBRANCH   1  16
TORSDOF 9
ENDMDL
MODEL 9
REMARK VINA RESULT:      -7.0      3.506      7.047
REMARK  9 active torsions:
REMARK  status: ('A' for Active; 'I' for Inactive)
REMARK    1  A    between atoms: C_2  and  N_3 
REMARK    2  A    between atoms: C_4  and  S_5 
REMARK    3  A    between atoms: S_5  and  C_6 
REMARK    4  A    between atoms: C_6  and  C_7 
REMARK       I    between atoms: C_7  and  N_8 
REMARK    5  A    between atoms: N_8  and  C_9 
REMARK    6  A    between atoms: C_9  and  C_10 
REMARK    7  A    between atoms: C_10  and  C_11 
REMARK    8  A    between atoms: C_14  and  O_15 
REMARK    9  A    between atoms: C_22  and  C_23 
ROOT
HETATM    1  S   UNL     1     -42.638  56.661 -56.433  1.00  0.00    -0.081 SA
ENDROOT
BRANCH   1   2
HETATM    2  C   UNL     1     -42.737  56.197 -54.772  1.00  0.00     0.192 A 
HETATM    3  N   UNL     1     -41.696  55.673 -54.052  1.00  0.00    -0.308 N 
HETATM    4  C   UNL     1     -42.212  55.404 -52.799  1.00  0.00     0.165 A 
HETATM    5  N   UNL     1     -43.485  55.760 -52.787  1.00  0.00    -0.128 NA
HETATM    6  N   UNL     1     -43.810  56.262 -54.022  1.00  0.00    -0.122 NA
BRANCH   3   7
HETATM    7  C   UNL     1     -40.349  55.413 -54.512  1.00  0.00     0.128 C 
HETATM    8  C   UNL     1     -40.186  54.023 -55.103  1.00  0.00     0.027 C 
ENDBRANCH   3   7
BRANCH   4   9
HETATM    9  C   UNL     1     -41.502  54.763 -51.692  1.00  0.00     0.018 A 
HETATM   10  C   UNL     1     -40.993  55.521 -50.615  1.00  0.00    -0.048 A 
HETATM   11  C   UNL     1     -41.123  57.020 -50.571  1.00  0.00     0.049 C 
HETATM   12  C   UNL     1     -40.316  54.865 -49.574  1.00  0.00     0.007 A 
HETATM   13  C   UNL     1     -40.144  53.480 -49.594  1.00  0.00     0.001 A 
HETATM   14  C   UNL     1     -40.630  52.735 -50.663  1.00  0.00     0.001 A 
HETATM   15  C   UNL     1     -41.297  53.374 -51.710  1.00  0.00     0.016 A 
ENDBRANCH   4   9
ENDBRANCH   1   2
BRANCH   1  16
HETATM   16  C   UNL     1     -43.540  58.238 -56.379  1.00  0.00     0.185 C 
BRANCH  16  17
HETATM   17  C   UNL     1     -42.719  59.269 -55.621  1.00  0.00     0.227 C 
HETATM   18  N   UNL     1     -43.196  59.569 -54.358  1.00  0.00    -0.360 N 
HETATM   19  H   UNL     1     -44.135  59.277 -54.117  1.00  0.00     0.162 HD
HETATM   20  O   UNL     1     -41.699  59.775 -56.086  1.00  0.00    -0.273 OA
BRANCH  18  21
HETATM   21  C   UNL     1     -42.590  60.619 -53.555  1.00  0.00     0.127 C 
BRANCH  21  22
HETATM   22  C   UNL     1     -42.201  60.120 -52.163  1.00  0.00     0.058 C 
BRANCH  22  23
HETATM   23  C   UNL     1     -43.303  60.357 -51.161  1.00  0.00    -0.057 A 
HETATM   24  C   UNL     1     -43.230  61.427 -50.262  1.00  0.00     0.010 A 
HETATM   25  C   UNL     1     -44.232  61.614 -49.308  1.00  0.00     0.037 A 
HETATM   26  C   UNL     1     -45.318  60.739 -49.231  1.00  0.00     0.068 A 
HETATM   27  C   UNL     1     -45.398  59.675 -50.127  1.00  0.00     0.037 A 
HETATM   28  C   UNL     1     -44.395  59.484 -51.085  1.00  0.00     0.010 A 
BRANCH  26  29
HETATM   29  O   UNL     1     -46.220  61.032 -48.245  1.00  0.00    -0.356 OA
HETATM   30  C   UNL     1     -45.939  60.527 -46.946  1.00  0.00     0.210 C 
ENDBRANCH  26  29
ENDBRANCH  22  23
ENDBRANCH  21  22
ENDBRANCH  18  21
ENDBRANCH  16  17
ENDBRANCH   1  16
TORSDOF 9
ENDMDL
MODEL 10
REMARK VINA RESULT:      -6.9      2.854      8.159
REMARK  9 active torsions:
REMARK  status: ('A' for Active; 'I' for Inactive)
REMARK    1  A    between atoms: C_2  and  N_3 
REMARK    2  A    between atoms: C_4  and  S_5 
REMARK    3  A    between atoms: S_5  and  C_6 
REMARK    4  A    between atoms: C_6  and  C_7 
REMARK       I    between atoms: C_7  and  N_8 
REMARK    5  A    between atoms: N_8  and  C_9 
REMARK    6  A    between atoms: C_9  and  C_10 
REMARK    7  A    between atoms: C_10  and  C_11 
REMARK    8  A    between atoms: C_14  and  O_15 
REMARK    9  A    between atoms: C_22  and  C_23 
ROOT
HETATM    1  S   UNL     1     -43.509  60.119 -54.792  1.00  0.00    -0.081 SA
ENDROOT
BRANCH   1   2
HETATM    2  C   UNL     1     -44.059  59.760 -56.390  1.00  0.00     0.192 A 
HETATM    3  N   UNL     1     -44.373  58.504 -56.835  1.00  0.00    -0.308 N 
HETATM    4  C   UNL     1     -44.719  58.659 -58.164  1.00  0.00     0.165 A 
HETATM    5  N   UNL     1     -44.618  59.940 -58.474  1.00  0.00    -0.128 NA
HETATM    6  N   UNL     1     -44.210  60.629 -57.360  1.00  0.00    -0.122 NA
BRANCH   3   7
HETATM    7  C   UNL     1     -44.318  57.264 -56.090  1.00  0.00     0.128 C 
HETATM    8  C   UNL     1     -43.082  56.441 -56.409  1.00  0.00     0.027 C 
ENDBRANCH   3   7
BRANCH   4   9
HETATM    9  C   UNL     1     -45.062  57.586 -59.098  1.00  0.00     0.018 A 
HETATM   10  C   UNL     1     -44.068  56.938 -59.863  1.00  0.00    -0.048 A 
HETATM   11  C   UNL     1     -42.620  57.344 -59.786  1.00  0.00     0.049 C 
HETATM   12  C   UNL     1     -44.443  55.914 -60.749  1.00  0.00     0.007 A 
HETATM   13  C   UNL     1     -45.778  55.532 -60.875  1.00  0.00     0.001 A 
HETATM   14  C   UNL     1     -46.760  56.180 -60.133  1.00  0.00     0.001 A 
HETATM   15  C   UNL     1     -46.405  57.207 -59.256  1.00  0.00     0.016 A 
ENDBRANCH   4   9
ENDBRANCH   1   2
BRANCH   1  16
HETATM   16  C   UNL     1     -41.739  59.746 -54.972  1.00  0.00     0.185 C 
BRANCH  16  17
HETATM   17  C   UNL     1     -41.244  59.012 -53.736  1.00  0.00     0.227 C 
HETATM   18  N   UNL     1     -41.418  57.640 -53.772  1.00  0.00    -0.360 N 
HETATM   19  H   UNL     1     -42.036  57.253 -54.474  1.00  0.00     0.162 HD
HETATM   20  O   UNL     1     -40.709  59.591 -52.792  1.00  0.00    -0.273 OA
BRANCH  18  21
HETATM   21  C   UNL     1     -41.102  56.811 -52.621  1.00  0.00     0.127 C 
BRANCH  21  22
HETATM   22  C   UNL     1     -42.050  55.618 -52.500  1.00  0.00     0.058 C 
BRANCH  22  23
HETATM   23  C   UNL     1     -41.363  54.325 -52.862  1.00  0.00    -0.057 A 
HETATM   24  C   UNL     1     -40.745  53.546 -51.877  1.00  0.00     0.010 A 
HETATM   25  C   UNL     1     -40.073  52.373 -52.226  1.00  0.00     0.037 A 
HETATM   26  C   UNL     1     -40.001  51.960 -53.558  1.00  0.00     0.068 A 
HETATM   27  C   UNL     1     -40.618  52.730 -54.542  1.00  0.00     0.037 A 
HETATM   28  C   UNL     1     -41.294  53.906 -54.197  1.00  0.00     0.010 A 
BRANCH  26  29
HETATM   29  O   UNL     1     -39.304  50.800 -53.761  1.00  0.00    -0.356 OA
HETATM   30  C   UNL     1     -39.636  49.698 -52.926  1.00  0.00     0.210 C 
ENDBRANCH  26  29
ENDBRANCH  22  23
ENDBRANCH  21  22
ENDBRANCH  18  21
ENDBRANCH  16  17
ENDBRANCH   1  16
TORSDOF 9
ENDMDL
