MODEL 1
REMARK VINA RESULT:      -7.4      0.000      0.000
REMARK  5 active torsions:
REMARK  status: ('A' for Active; 'I' for Inactive)
REMARK    1  A    between atoms: C_2  and  O_3 
REMARK    2  A    between atoms: O_3  and  C_4 
REMARK    3  A    between atoms: C_8  and  N_9 
REMARK       I    between atoms: N_9  and  C_10 
REMARK       I    between atoms: C_10  and  N_11 
REMARK    4  A    between atoms: N_11  and  C_12 
REMARK    5  A    between atoms: C_12  and  C_13 
ROOT
HETATM    1  N   UNL     1     -43.640  54.676 -53.203  1.00  0.00    -0.309 N 
HETATM    2  C   UNL     1     -42.762  54.285 -52.245  1.00  0.00     0.321 C 
HETATM    3  N   UNL     1     -41.442  54.274 -52.534  1.00  0.00    -0.337 N 
HETATM    4  O   UNL     1     -43.201  53.923 -51.154  1.00  0.00    -0.247 OA
HETATM    5  H   UNL     1     -44.587  54.489 -52.895  1.00  0.00     0.170 HD
HETATM    6  H   UNL     1     -41.179  54.100 -53.494  1.00  0.00     0.164 HD
ENDROOT
BRANCH   1   7
HETATM    7  C   UNL     1     -43.508  55.295 -54.459  1.00  0.00     0.038 A 
HETATM    8  C   UNL     1     -43.852  56.614 -54.748  1.00  0.00     0.056 A 
HETATM    9  C   UNL     1     -43.662  57.125 -56.042  1.00  0.00     0.069 A 
HETATM   10  C   UNL     1     -43.148  56.324 -57.074  1.00  0.00     0.090 A 
HETATM   11 CL   UNL     1     -44.088  58.781 -56.324  1.00  0.00    -0.081 Cl
HETATM   12  C   UNL     1     -42.847  54.993 -56.790  1.00  0.00     0.041 A 
HETATM   13  C   UNL     1     -43.028  54.487 -55.498  1.00  0.00     0.032 A 
BRANCH  10  14
HETATM   14  O   UNL     1     -42.988  56.910 -58.302  1.00  0.00    -0.350 OA
BRANCH  14  15
HETATM   15  C   UNL     1     -42.766  56.057 -59.423  1.00  0.00     0.171 C 
HETATM   16  C   UNL     1     -44.086  55.883 -60.153  1.00  0.00     0.034 C 
ENDBRANCH  14  15
ENDBRANCH  10  14
ENDBRANCH   1   7
BRANCH   3  17
HETATM   17  C   UNL     1     -40.489  53.783 -51.562  1.00  0.00     0.183 C 
BRANCH  17  18
HETATM   18  C   UNL     1     -40.169  52.315 -51.753  1.00  0.00     0.053 A 
HETATM   19  N   UNL     1     -40.027  51.535 -50.647  1.00  0.00    -0.264 NA
HETATM   20  C   UNL     1     -39.751  50.225 -50.835  1.00  0.00     0.118 A 
HETATM   21  C   UNL     1     -39.582  49.648 -52.078  1.00  0.00     0.043 A 
HETATM   22  C   UNL     1     -39.705  50.470 -53.189  1.00  0.00     0.037 A 
HETATM   23 CL   UNL     1     -39.492  49.813 -54.766  1.00  0.00    -0.084 Cl
HETATM   24  C   UNL     1     -40.002  51.818 -53.041  1.00  0.00     0.052 A 
ENDBRANCH  17  18
ENDBRANCH   3  17
TORSDOF 5
ENDMDL
MODEL 2
REMARK VINA RESULT:      -7.2      2.791      7.495
REMARK  5 active torsions:
REMARK  status: ('A' for Active; 'I' for Inactive)
REMARK    1  A    between atoms: C_2  and  O_3 
REMARK    2  A    between atoms: O_3  and  C_4 
REMARK    3  A    between atoms: C_8  and  N_9 
REMARK       I    between atoms: N_9  and  C_10 
REMARK       I    between atoms: C_10  and  N_11 
REMARK    4  A    between atoms: N_11  and  C_12 
REMARK    5  A    between atoms: C_12  and  C_13 
ROOT
HETATM    1  N   UNL     1     -43.495  55.234 -53.471  1.00  0.00    -0.309 N 
HETATM    2  C   UNL     1     -43.679  56.250 -54.351  1.00  0.00     0.321 C 
HETATM    3  N   UNL     1     -42.608  56.739 -55.016  1.00  0.00    -0.337 N 
HETATM    4  O   UNL     1     -44.810  56.714 -54.492  1.00  0.00    -0.247 OA
HETATM    5  H   UNL     1     -44.348  55.079 -52.946  1.00  0.00     0.170 HD
HETATM    6  H   UNL     1     -41.713  56.693 -54.551  1.00  0.00     0.164 HD
ENDROOT
BRANCH   1   7
HETATM    7  C   UNL     1     -42.425  54.369 -53.182  1.00  0.00     0.038 A 
HETATM    8  C   UNL     1     -41.705  54.345 -51.990  1.00  0.00     0.056 A 
HETATM    9  C   UNL     1     -40.661  53.424 -51.813  1.00  0.00     0.069 A 
HETATM   10  C   UNL     1     -40.303  52.524 -52.830  1.00  0.00     0.090 A 
HETATM   11 CL   UNL     1     -39.825  53.434 -50.295  1.00  0.00    -0.081 Cl
HETATM   12  C   UNL     1     -40.997  52.581 -54.037  1.00  0.00     0.041 A 
HETATM   13  C   UNL     1     -42.044  53.495 -54.209  1.00  0.00     0.032 A 
BRANCH  10  14
HETATM   14  O   UNL     1     -39.278  51.654 -52.565  1.00  0.00    -0.350 OA
BRANCH  14  15
HETATM   15  C   UNL     1     -39.596  50.269 -52.446  1.00  0.00     0.171 C 
HETATM   16  C   UNL     1     -39.558  49.900 -50.974  1.00  0.00     0.034 C 
ENDBRANCH  14  15
ENDBRANCH  10  14
ENDBRANCH   1   7
BRANCH   3  17
HETATM   17  C   UNL     1     -42.758  57.877 -55.898  1.00  0.00     0.183 C 
BRANCH  17  18
HETATM   18  C   UNL     1     -42.693  57.491 -57.360  1.00  0.00     0.053 A 
HETATM   19  N   UNL     1     -41.970  58.275 -58.205  1.00  0.00    -0.264 NA
HETATM   20  C   UNL     1     -41.913  57.911 -59.506  1.00  0.00     0.118 A 
HETATM   21  C   UNL     1     -42.565  56.809 -60.022  1.00  0.00     0.043 A 
HETATM   22  C   UNL     1     -43.318  56.040 -59.146  1.00  0.00     0.037 A 
HETATM   23 CL   UNL     1     -44.166  54.661 -59.731  1.00  0.00    -0.084 Cl
HETATM   24  C   UNL     1     -43.391  56.371 -57.800  1.00  0.00     0.052 A 
ENDBRANCH  17  18
ENDBRANCH   3  17
TORSDOF 5
ENDMDL
MODEL 3
REMARK VINA RESULT:      -7.1      2.526      7.550
REMARK  5 active torsions:
REMARK  status: ('A' for Active; 'I' for Inactive)
REMARK    1  A    between atoms: C_2  and  O_3 
REMARK    2  A    between atoms: O_3  and  C_4 
REMARK    3  A    between atoms: C_8  and  N_9 
REMARK       I    between atoms: N_9  and  C_10 
REMARK       I    between atoms: C_10  and  N_11 
REMARK    4  A    between atoms: N_11  and  C_12 
REMARK    5  A    between atoms: C_12  and  C_13 
ROOT
HETATM    1  N   UNL     1     -43.861  55.641 -53.403  1.00  0.00    -0.309 N 
HETATM    2  C   UNL     1     -43.977  56.584 -54.373  1.00  0.00     0.321 C 
HETATM    3  N   UNL     1     -42.865  56.985 -55.028  1.00  0.00    -0.337 N 
HETATM    4  O   UNL     1     -45.086  57.064 -54.602  1.00  0.00    -0.247 OA
HETATM    5  H   UNL     1     -44.740  55.555 -52.906  1.00  0.00     0.170 HD
HETATM    6  H   UNL     1     -41.992  56.955 -54.521  1.00  0.00     0.164 HD
ENDROOT
BRANCH   1   7
HETATM    7  C   UNL     1     -42.831  54.776 -52.996  1.00  0.00     0.038 A 
HETATM    8  C   UNL     1     -42.162  53.874 -53.821  1.00  0.00     0.056 A 
HETATM    9  C   UNL     1     -41.138  53.067 -53.301  1.00  0.00     0.069 A 
HETATM   10  C   UNL     1     -40.779  53.129 -51.944  1.00  0.00     0.090 A 
HETATM   11 CL   UNL     1     -40.331  51.987 -54.389  1.00  0.00    -0.081 Cl
HETATM   12  C   UNL     1     -41.481  54.001 -51.114  1.00  0.00     0.041 A 
HETATM   13  C   UNL     1     -42.496  54.811 -51.636  1.00  0.00     0.032 A 
BRANCH  10  14
HETATM   14  O   UNL     1     -39.761  52.312 -51.526  1.00  0.00    -0.350 OA
BRANCH  14  15
HETATM   15  C   UNL     1     -40.082  51.264 -50.614  1.00  0.00     0.171 C 
HETATM   16  C   UNL     1     -39.492  49.972 -51.151  1.00  0.00     0.034 C 
ENDBRANCH  14  15
ENDBRANCH  10  14
ENDBRANCH   1   7
BRANCH   3  17
HETATM   17  C   UNL     1     -42.943  58.047 -56.008  1.00  0.00     0.183 C 
BRANCH  17  18
HETATM   18  C   UNL     1     -42.785  57.541 -57.426  1.00  0.00     0.053 A 
HETATM   19  N   UNL     1     -41.978  58.235 -58.275  1.00  0.00    -0.264 NA
HETATM   20  C   UNL     1     -41.840  57.765 -59.535  1.00  0.00     0.118 A 
HETATM   21  C   UNL     1     -42.488  56.642 -60.009  1.00  0.00     0.043 A 
HETATM   22  C   UNL     1     -43.326  55.966 -59.133  1.00  0.00     0.037 A 
HETATM   23 CL   UNL     1     -44.174  54.567 -59.668  1.00  0.00    -0.084 Cl
HETATM   24  C   UNL     1     -43.485  56.408 -57.826  1.00  0.00     0.052 A 
ENDBRANCH  17  18
ENDBRANCH   3  17
TORSDOF 5
ENDMDL
MODEL 4
REMARK VINA RESULT:      -6.8      3.858      7.395
REMARK  5 active torsions:
REMARK  status: ('A' for Active; 'I' for Inactive)
REMARK    1  A    between atoms: C_2  and  O_3 
REMARK    2  A    between atoms: O_3  and  C_4 
REMARK    3  A    between atoms: C_8  and  N_9 
REMARK       I    between atoms: N_9  and  C_10 
REMARK       I    between atoms: C_10  and  N_11 
REMARK    4  A    between atoms: N_11  and  C_12 
REMARK    5  A    between atoms: C_12  and  C_13 
ROOT
HETATM    1  N   UNL     1     -43.771  55.050 -53.730  1.00  0.00    -0.309 N 
HETATM    2  C   UNL     1     -43.925  56.379 -53.960  1.00  0.00     0.321 C 
HETATM    3  N   UNL     1     -42.876  57.204 -53.743  1.00  0.00    -0.337 N 
HETATM    4  O   UNL     1     -45.023  56.793 -54.328  1.00  0.00    -0.247 OA
HETATM    5  H   UNL     1     -44.672  54.588 -53.789  1.00  0.00     0.170 HD
HETATM    6  H   UNL     1     -42.216  56.936 -53.027  1.00  0.00     0.164 HD
ENDROOT
BRANCH   1   7
HETATM    7  C   UNL     1     -42.665  54.220 -53.480  1.00  0.00     0.038 A 
HETATM    8  C   UNL     1     -42.133  53.942 -52.222  1.00  0.00     0.056 A 
HETATM    9  C   UNL     1     -41.029  53.085 -52.096  1.00  0.00     0.069 A 
HETATM   10  C   UNL     1     -40.422  52.507 -53.223  1.00  0.00     0.090 A 
HETATM   11 CL   UNL     1     -40.435  52.764 -50.500  1.00  0.00    -0.081 Cl
HETATM   12  C   UNL     1     -40.931  52.823 -54.482  1.00  0.00     0.041 A 
HETATM   13  C   UNL     1     -42.037  53.671 -54.606  1.00  0.00     0.032 A 
BRANCH  10  14
HETATM   14  O   UNL     1     -39.356  51.675 -53.005  1.00  0.00    -0.350 OA
BRANCH  14  15
HETATM   15  C   UNL     1     -39.599  50.271 -52.992  1.00  0.00     0.171 C 
HETATM   16  C   UNL     1     -39.545  49.768 -54.424  1.00  0.00     0.034 C 
ENDBRANCH  14  15
ENDBRANCH  10  14
ENDBRANCH   1   7
BRANCH   3  17
HETATM   17  C   UNL     1     -43.032  58.634 -53.899  1.00  0.00     0.183 C 
BRANCH  17  18
HETATM   18  C   UNL     1     -42.708  59.395 -52.631  1.00  0.00     0.053 A 
HETATM   19  N   UNL     1     -43.659  60.215 -52.107  1.00  0.00    -0.264 NA
HETATM   20  C   UNL     1     -43.357  60.880 -50.969  1.00  0.00     0.118 A 
HETATM   21  C   UNL     1     -42.136  60.790 -50.330  1.00  0.00     0.043 A 
HETATM   22  C   UNL     1     -41.174  59.967 -50.898  1.00  0.00     0.037 A 
HETATM   23 CL   UNL     1     -39.627  59.824 -50.156  1.00  0.00    -0.084 Cl
HETATM   24  C   UNL     1     -41.448  59.257 -52.058  1.00  0.00     0.052 A 
ENDBRANCH  17  18
ENDBRANCH   3  17
TORSDOF 5
ENDMDL
MODEL 5
REMARK VINA RESULT:      -6.8      3.218      7.645
REMARK  5 active torsions:
REMARK  status: ('A' for Active; 'I' for Inactive)
REMARK    1  A    between atoms: C_2  and  O_3 
REMARK    2  A    between atoms: O_3  and  C_4 
REMARK    3  A    between atoms: C_8  and  N_9 
REMARK       I    between atoms: N_9  and  C_10 
REMARK       I    between atoms: C_10  and  N_11 
REMARK    4  A    between atoms: N_11  and  C_12 
REMARK    5  A    between atoms: C_12  and  C_13 
ROOT
HETATM    1  N   UNL     1     -41.234  57.361 -54.210  1.00  0.00    -0.309 N 
HETATM    2  C   UNL     1     -42.110  58.011 -55.018  1.00  0.00     0.321 C 
HETATM    3  N   UNL     1     -42.894  57.285 -55.846  1.00  0.00    -0.337 N 
HETATM    4  O   UNL     1     -42.139  59.240 -54.992  1.00  0.00    -0.247 OA
HETATM    5  H   UNL     1     -40.618  58.033 -53.765  1.00  0.00     0.170 HD
HETATM    6  H   UNL     1     -42.526  56.407 -56.182  1.00  0.00     0.164 HD
ENDROOT
BRANCH   1   7
HETATM    7  C   UNL     1     -41.044  56.015 -53.852  1.00  0.00     0.038 A 
HETATM    8  C   UNL     1     -41.342  55.461 -52.608  1.00  0.00     0.056 A 
HETATM    9  C   UNL     1     -41.119  54.096 -52.372  1.00  0.00     0.069 A 
HETATM   10  C   UNL     1     -40.575  53.263 -53.364  1.00  0.00     0.090 A 
HETATM   11 CL   UNL     1     -41.536  53.469 -50.811  1.00  0.00    -0.081 Cl
HETATM   12  C   UNL     1     -40.238  53.832 -54.591  1.00  0.00     0.041 A 
HETATM   13  C   UNL     1     -40.468  55.192 -54.829  1.00  0.00     0.032 A 
BRANCH  10  14
HETATM   14  O   UNL     1     -40.401  51.941 -53.048  1.00  0.00    -0.350 OA
BRANCH  14  15
HETATM   15  C   UNL     1     -39.364  51.228 -53.718  1.00  0.00     0.171 C 
HETATM   16  C   UNL     1     -39.987  50.033 -54.418  1.00  0.00     0.034 C 
ENDBRANCH  14  15
ENDBRANCH  10  14
ENDBRANCH   1   7
BRANCH   3  17
HETATM   17  C   UNL     1     -43.777  57.952 -56.778  1.00  0.00     0.183 C 
BRANCH  17  18
HETATM   18  C   UNL     1     -44.001  57.149 -58.042  1.00  0.00     0.053 A 
HETATM   19  N   UNL     1     -42.950  56.459 -58.565  1.00  0.00    -0.264 NA
HETATM   20  C   UNL     1     -43.168  55.739 -59.688  1.00  0.00     0.118 A 
HETATM   21  C   UNL     1     -44.383  55.687 -60.341  1.00  0.00     0.043 A 
HETATM   22  C   UNL     1     -45.432  56.420 -59.804  1.00  0.00     0.037 A 
HETATM   23 CL   UNL     1     -46.968  56.407 -60.580  1.00  0.00    -0.084 Cl
HETATM   24  C   UNL     1     -45.254  57.162 -58.644  1.00  0.00     0.052 A 
ENDBRANCH  17  18
ENDBRANCH   3  17
TORSDOF 5
ENDMDL
MODEL 6
REMARK VINA RESULT:      -6.7      1.406      2.011
REMARK  5 active torsions:
REMARK  status: ('A' for Active; 'I' for Inactive)
REMARK    1  A    between atoms: C_2  and  O_3 
REMARK    2  A    between atoms: O_3  and  C_4 
REMARK    3  A    between atoms: C_8  and  N_9 
REMARK       I    between atoms: N_9  and  C_10 
REMARK       I    between atoms: C_10  and  N_11 
REMARK    4  A    between atoms: N_11  and  C_12 
REMARK    5  A    between atoms: C_12  and  C_13 
ROOT
HETATM    1  N   UNL     1     -43.610  54.643 -53.130  1.00  0.00    -0.309 N 
HETATM    2  C   UNL     1     -42.677  54.225 -52.236  1.00  0.00     0.321 C 
HETATM    3  N   UNL     1     -41.371  54.456 -52.501  1.00  0.00    -0.337 N 
HETATM    4  O   UNL     1     -43.049  53.622 -51.231  1.00  0.00    -0.247 OA
HETATM    5  H   UNL     1     -44.517  54.270 -52.874  1.00  0.00     0.170 HD
HETATM    6  H   UNL     1     -41.093  54.488 -53.471  1.00  0.00     0.164 HD
ENDROOT
BRANCH   1   7
HETATM    7  C   UNL     1     -43.580  55.479 -54.259  1.00  0.00     0.038 A 
HETATM    8  C   UNL     1     -43.259  55.076 -55.554  1.00  0.00     0.056 A 
HETATM    9  C   UNL     1     -43.275  56.004 -56.607  1.00  0.00     0.069 A 
HETATM   10  C   UNL     1     -43.590  57.354 -56.384  1.00  0.00     0.090 A 
HETATM   11 CL   UNL     1     -42.890  55.427 -58.195  1.00  0.00    -0.081 Cl
HETATM   12  C   UNL     1     -43.868  57.761 -55.080  1.00  0.00     0.041 A 
HETATM   13  C   UNL     1     -43.859  56.833 -54.032  1.00  0.00     0.032 A 
BRANCH  10  14
HETATM   14  O   UNL     1     -43.591  58.186 -57.472  1.00  0.00    -0.350 OA
BRANCH  14  15
HETATM   15  C   UNL     1     -43.215  59.547 -57.270  1.00  0.00     0.171 C 
HETATM   16  C   UNL     1     -41.782  59.717 -57.742  1.00  0.00     0.034 C 
ENDBRANCH  14  15
ENDBRANCH  10  14
ENDBRANCH   1   7
BRANCH   3  17
HETATM   17  C   UNL     1     -40.350  53.949 -51.610  1.00  0.00     0.183 C 
BRANCH  17  18
HETATM   18  C   UNL     1     -40.111  52.464 -51.786  1.00  0.00     0.053 A 
HETATM   19  N   UNL     1     -40.051  51.682 -50.673  1.00  0.00    -0.264 NA
HETATM   20  C   UNL     1     -39.846  50.358 -50.847  1.00  0.00     0.118 A 
HETATM   21  C   UNL     1     -39.672  49.765 -52.082  1.00  0.00     0.043 A 
HETATM   22  C   UNL     1     -39.710  50.587 -53.199  1.00  0.00     0.037 A 
HETATM   23 CL   UNL     1     -39.485  49.910 -54.766  1.00  0.00    -0.084 Cl
HETATM   24  C   UNL     1     -39.931  51.951 -53.065  1.00  0.00     0.052 A 
ENDBRANCH  17  18
ENDBRANCH   3  17
TORSDOF 5
ENDMDL
MODEL 7
REMARK VINA RESULT:      -6.6      3.439      7.755
REMARK  5 active torsions:
REMARK  status: ('A' for Active; 'I' for Inactive)
REMARK    1  A    between atoms: C_2  and  O_3 
REMARK    2  A    between atoms: O_3  and  C_4 
REMARK    3  A    between atoms: C_8  and  N_9 
REMARK       I    between atoms: N_9  and  C_10 
REMARK       I    between atoms: C_10  and  N_11 
REMARK    4  A    between atoms: N_11  and  C_12 
REMARK    5  A    between atoms: C_12  and  C_13 
ROOT
HETATM    1  N   UNL     1     -42.939  57.060 -50.758  1.00  0.00    -0.309 N 
HETATM    2  C   UNL     1     -42.799  58.093 -51.627  1.00  0.00     0.321 C 
HETATM    3  N   UNL     1     -41.680  58.162 -52.383  1.00  0.00    -0.337 N 
HETATM    4  O   UNL     1     -43.680  58.949 -51.675  1.00  0.00    -0.247 OA
HETATM    5  H   UNL     1     -43.743  57.223 -50.162  1.00  0.00     0.170 HD
HETATM    6  H   UNL     1     -40.833  57.773 -51.995  1.00  0.00     0.164 HD
ENDROOT
BRANCH   1   7
HETATM    7  C   UNL     1     -42.252  55.851 -50.554  1.00  0.00     0.038 A 
HETATM    8  C   UNL     1     -41.472  55.543 -49.441  1.00  0.00     0.056 A 
HETATM    9  C   UNL     1     -40.842  54.292 -49.344  1.00  0.00     0.069 A 
HETATM   10  C   UNL     1     -40.961  53.335 -50.364  1.00  0.00     0.090 A 
HETATM   11 CL   UNL     1     -39.908  53.969 -47.921  1.00  0.00    -0.081 Cl
HETATM   12  C   UNL     1     -41.708  53.664 -51.495  1.00  0.00     0.041 A 
HETATM   13  C   UNL     1     -42.342  54.908 -51.587  1.00  0.00     0.032 A 
BRANCH  10  14
HETATM   14  O   UNL     1     -40.321  52.138 -50.180  1.00  0.00    -0.350 OA
BRANCH  14  15
HETATM   15  C   UNL     1     -39.753  51.504 -51.324  1.00  0.00     0.171 C 
HETATM   16  C   UNL     1     -39.600  50.025 -51.018  1.00  0.00     0.034 C 
ENDBRANCH  14  15
ENDBRANCH  10  14
ENDBRANCH   1   7
BRANCH   3  17
HETATM   17  C   UNL     1     -41.463  59.295 -53.257  1.00  0.00     0.183 C 
BRANCH  17  18
HETATM   18  C   UNL     1     -41.796  58.985 -54.702  1.00  0.00     0.053 A 
HETATM   19  N   UNL     1     -41.761  60.002 -55.606  1.00  0.00    -0.264 NA
HETATM   20  C   UNL     1     -42.051  59.708 -56.893  1.00  0.00     0.118 A 
HETATM   21  C   UNL     1     -42.402  58.446 -57.330  1.00  0.00     0.043 A 
HETATM   22  C   UNL     1     -42.456  57.432 -56.385  1.00  0.00     0.037 A 
HETATM   23 CL   UNL     1     -42.902  55.840 -56.864  1.00  0.00    -0.084 Cl
HETATM   24  C   UNL     1     -42.153  57.689 -55.055  1.00  0.00     0.052 A 
ENDBRANCH  17  18
ENDBRANCH   3  17
TORSDOF 5
ENDMDL
MODEL 8
REMARK VINA RESULT:      -6.4      3.308      4.899
REMARK  5 active torsions:
REMARK  status: ('A' for Active; 'I' for Inactive)
REMARK    1  A    between atoms: C_2  and  O_3 
REMARK    2  A    between atoms: O_3  and  C_4 
REMARK    3  A    between atoms: C_8  and  N_9 
REMARK       I    between atoms: N_9  and  C_10 
REMARK       I    between atoms: C_10  and  N_11 
REMARK    4  A    between atoms: N_11  and  C_12 
REMARK    5  A    between atoms: C_12  and  C_13 
ROOT
HETATM    1  N   UNL     1     -44.399  55.972 -54.396  1.00  0.00    -0.309 N 
HETATM    2  C   UNL     1     -43.330  55.206 -54.734  1.00  0.00     0.321 C 
HETATM    3  N   UNL     1     -42.087  55.713 -54.569  1.00  0.00    -0.337 N 
HETATM    4  O   UNL     1     -43.528  54.089 -55.210  1.00  0.00    -0.247 OA
HETATM    5  H   UNL     1     -45.251  55.524 -54.714  1.00  0.00     0.170 HD
HETATM    6  H   UNL     1     -41.978  56.713 -54.653  1.00  0.00     0.164 HD
ENDROOT
BRANCH   1   7
HETATM    7  C   UNL     1     -44.557  57.179 -53.694  1.00  0.00     0.038 A 
HETATM    8  C   UNL     1     -44.916  58.400 -54.260  1.00  0.00     0.056 A 
HETATM    9  C   UNL     1     -45.056  59.539 -53.452  1.00  0.00     0.069 A 
HETATM   10  C   UNL     1     -44.818  59.486 -52.069  1.00  0.00     0.090 A 
HETATM   11 CL   UNL     1     -45.529  61.019 -54.219  1.00  0.00    -0.081 Cl
HETATM   12  C   UNL     1     -44.417  58.271 -51.514  1.00  0.00     0.041 A 
HETATM   13  C   UNL     1     -44.286  57.134 -52.320  1.00  0.00     0.032 A 
BRANCH  10  14
HETATM   14  O   UNL     1     -44.989  60.644 -51.357  1.00  0.00    -0.350 OA
BRANCH  14  15
HETATM   15  C   UNL     1     -44.263  60.788 -50.138  1.00  0.00     0.171 C 
HETATM   16  C   UNL     1     -43.116  61.753 -50.381  1.00  0.00     0.034 C 
ENDBRANCH  14  15
ENDBRANCH  10  14
ENDBRANCH   1   7
BRANCH   3  17
HETATM   17  C   UNL     1     -40.931  54.955 -54.997  1.00  0.00     0.183 C 
BRANCH  17  18
HETATM   18  C   UNL     1     -40.548  53.873 -54.010  1.00  0.00     0.053 A 
HETATM   19  N   UNL     1     -40.514  54.187 -52.686  1.00  0.00    -0.264 NA
HETATM   20  C   UNL     1     -40.180  53.207 -51.817  1.00  0.00     0.118 A 
HETATM   21  C   UNL     1     -39.849  51.923 -52.200  1.00  0.00     0.043 A 
HETATM   22  C   UNL     1     -39.865  51.634 -53.558  1.00  0.00     0.037 A 
HETATM   23 CL   UNL     1     -39.449  50.054 -54.100  1.00  0.00    -0.084 Cl
HETATM   24  C   UNL     1     -40.216  52.608 -54.483  1.00  0.00     0.052 A 
ENDBRANCH  17  18
ENDBRANCH   3  17
TORSDOF 5
ENDMDL
MODEL 9
REMARK VINA RESULT:      -6.4      3.066      7.961
REMARK  5 active torsions:
REMARK  status: ('A' for Active; 'I' for Inactive)
REMARK    1  A    between atoms: C_2  and  O_3 
REMARK    2  A    between atoms: O_3  and  C_4 
REMARK    3  A    between atoms: C_8  and  N_9 
REMARK       I    between atoms: N_9  and  C_10 
REMARK       I    between atoms: C_10  and  N_11 
REMARK    4  A    between atoms: N_11  and  C_12 
REMARK    5  A    between atoms: C_12  and  C_13 
ROOT
HETATM    1  N   UNL     1     -41.241  55.534 -55.469  1.00  0.00    -0.309 N 
HETATM    2  C   UNL     1     -42.253  56.418 -55.661  1.00  0.00     0.321 C 
HETATM    3  N   UNL     1     -43.305  56.400 -54.812  1.00  0.00    -0.337 N 
HETATM    4  O   UNL     1     -42.194  57.186 -56.620  1.00  0.00    -0.247 OA
HETATM    5  H   UNL     1     -40.608  55.565 -56.260  1.00  0.00     0.170 HD
HETATM    6  H   UNL     1     -43.545  55.514 -54.390  1.00  0.00     0.164 HD
ENDROOT
BRANCH   1   7
HETATM    7  C   UNL     1     -40.890  54.658 -54.428  1.00  0.00     0.038 A 
HETATM    8  C   UNL     1     -40.950  54.955 -53.068  1.00  0.00     0.056 A 
HETATM    9  C   UNL     1     -40.584  53.989 -52.117  1.00  0.00     0.069 A 
HETATM   10  C   UNL     1     -40.130  52.719 -52.506  1.00  0.00     0.090 A 
HETATM   11 CL   UNL     1     -40.707  54.419 -50.443  1.00  0.00    -0.081 Cl
HETATM   12  C   UNL     1     -40.030  52.441 -53.869  1.00  0.00     0.041 A 
HETATM   13  C   UNL     1     -40.404  53.402 -54.816  1.00  0.00     0.032 A 
BRANCH  10  14
HETATM   14  O   UNL     1     -39.803  51.837 -51.510  1.00  0.00    -0.350 OA
BRANCH  14  15
HETATM   15  C   UNL     1     -39.444  50.510 -51.888  1.00  0.00     0.171 C 
HETATM   16  C   UNL     1     -39.797  49.579 -50.741  1.00  0.00     0.034 C 
ENDBRANCH  14  15
ENDBRANCH  10  14
ENDBRANCH   1   7
BRANCH   3  17
HETATM   17  C   UNL     1     -44.437  57.272 -55.040  1.00  0.00     0.183 C 
BRANCH  17  18
HETATM   18  C   UNL     1     -44.786  58.100 -53.821  1.00  0.00     0.053 A 
HETATM   19  N   UNL     1     -44.714  57.511 -52.596  1.00  0.00    -0.264 NA
HETATM   20  C   UNL     1     -45.019  58.267 -51.518  1.00  0.00     0.118 A 
HETATM   21  C   UNL     1     -45.420  59.586 -51.595  1.00  0.00     0.043 A 
HETATM   22  C   UNL     1     -45.511  60.156 -52.856  1.00  0.00     0.037 A 
HETATM   23 CL   UNL     1     -46.019  61.793 -53.020  1.00  0.00    -0.084 Cl
HETATM   24  C   UNL     1     -45.194  59.419 -53.989  1.00  0.00     0.052 A 
ENDBRANCH  17  18
ENDBRANCH   3  17
TORSDOF 5
ENDMDL
MODEL 10
REMARK VINA RESULT:      -6.4      3.472      8.362
REMARK  5 active torsions:
REMARK  status: ('A' for Active; 'I' for Inactive)
REMARK    1  A    between atoms: C_2  and  O_3 
REMARK    2  A    between atoms: O_3  and  C_4 
REMARK    3  A    between atoms: C_8  and  N_9 
REMARK       I    between atoms: N_9  and  C_10 
REMARK       I    between atoms: C_10  and  N_11 
REMARK    4  A    between atoms: N_11  and  C_12 
REMARK    5  A    between atoms: C_12  and  C_13 
ROOT
HETATM    1  N   UNL     1     -43.207  54.826 -56.583  1.00  0.00    -0.309 N 
HETATM    2  C   UNL     1     -43.023  55.753 -57.557  1.00  0.00     0.321 C 
HETATM    3  N   UNL     1     -42.239  56.824 -57.298  1.00  0.00    -0.337 N 
HETATM    4  O   UNL     1     -43.602  55.605 -58.632  1.00  0.00    -0.247 OA
HETATM    5  H   UNL     1     -43.929  54.173 -56.867  1.00  0.00     0.170 HD
HETATM    6  H   UNL     1     -42.198  57.149 -56.343  1.00  0.00     0.164 HD
ENDROOT
BRANCH   1   7
HETATM    7  C   UNL     1     -42.601  54.576 -55.340  1.00  0.00     0.038 A 
HETATM    8  C   UNL     1     -43.255  54.575 -54.109  1.00  0.00     0.056 A 
HETATM    9  C   UNL     1     -42.543  54.299 -52.931  1.00  0.00     0.069 A 
HETATM   10  C   UNL     1     -41.163  54.041 -52.957  1.00  0.00     0.090 A 
HETATM   11 CL   UNL     1     -43.425  54.289 -51.440  1.00  0.00    -0.081 Cl
HETATM   12  C   UNL     1     -40.505  54.087 -54.186  1.00  0.00     0.041 A 
HETATM   13  C   UNL     1     -41.218  54.354 -55.361  1.00  0.00     0.032 A 
BRANCH  10  14
HETATM   14  O   UNL     1     -40.552  53.772 -51.761  1.00  0.00    -0.350 OA
BRANCH  14  15
HETATM   15  C   UNL     1     -39.852  52.537 -51.635  1.00  0.00     0.171 C 
HETATM   16  C   UNL     1     -40.311  51.861 -50.354  1.00  0.00     0.034 C 
ENDBRANCH  14  15
ENDBRANCH  10  14
ENDBRANCH   1   7
BRANCH   3  17
HETATM   17  C   UNL     1     -42.090  57.871 -58.285  1.00  0.00     0.183 C 
BRANCH  17  18
HETATM   18  C   UNL     1     -42.326  59.250 -57.708  1.00  0.00     0.053 A 
HETATM   19  N   UNL     1     -43.232  59.384 -56.701  1.00  0.00    -0.264 NA
HETATM   20  C   UNL     1     -43.424  60.621 -56.190  1.00  0.00     0.118 A 
HETATM   21  C   UNL     1     -42.774  61.749 -56.649  1.00  0.00     0.043 A 
HETATM   22  C   UNL     1     -41.875  61.591 -57.694  1.00  0.00     0.037 A 
HETATM   23 CL   UNL     1     -41.043  62.962 -58.320  1.00  0.00    -0.084 Cl
HETATM   24  C   UNL     1     -41.639  60.336 -58.239  1.00  0.00     0.052 A 
ENDBRANCH  17  18
ENDBRANCH   3  17
TORSDOF 5
ENDMDL
