MODEL 1
REMARK VINA RESULT:      -9.0      0.000      0.000
REMARK  4 active torsions:
REMARK  status: ('A' for Active; 'I' for Inactive)
REMARK    1  A    between atoms: C_8  and  C_9 
REMARK    2  A    between atoms: C_9  and  C_10 
REMARK       I    between atoms: C_10  and  N_11 
REMARK    3  A    between atoms: N_11  and  C_12 
REMARK    4  A    between atoms: C_14  and  C_15 
ROOT
HETATM    1  C   UNL     1     -41.601  54.404 -55.353  1.00  0.00     0.226 C 
HETATM    2  N   UNL     1     -41.517  55.547 -56.134  1.00  0.00    -0.327 N 
HETATM    3  O   UNL     1     -42.632  53.838 -54.998  1.00  0.00    -0.273 OA
HETATM    4  H   UNL     1     -40.583  55.853 -56.380  1.00  0.00     0.169 HD
ENDROOT
BRANCH   2   5
HETATM    5  C   UNL     1     -42.583  56.316 -56.652  1.00  0.00     0.035 A 
HETATM    6  C   UNL     1     -43.176  55.874 -57.847  1.00  0.00     0.042 A 
HETATM    7  C   UNL     1     -44.227  56.586 -58.450  1.00  0.00    -0.021 A 
HETATM    8  C   UNL     1     -44.689  57.750 -57.825  1.00  0.00     0.012 A 
HETATM    9  C   UNL     1     -44.110  58.194 -56.635  1.00  0.00     0.003 A 
HETATM   10  C   UNL     1     -43.060  57.482 -56.055  1.00  0.00     0.029 A 
BRANCH   7  11
HETATM   11  C   UNL     1     -44.825  56.150 -59.706  1.00  0.00     0.010 A 
HETATM   12  C   UNL     1     -44.431  55.133 -60.612  1.00  0.00     0.152 A 
HETATM   13  N   UNL     1     -45.241  55.031 -61.668  1.00  0.00    -0.187 NA
HETATM   14  N   UNL     1     -46.161  55.982 -61.449  1.00  0.00    -0.289 N 
HETATM   15  H   UNL     1     -46.900  56.102 -62.133  1.00  0.00     0.188 HD
HETATM   16  C   UNL     1     -45.957  56.679 -60.292  1.00  0.00     0.123 A 
ENDBRANCH   7  11
ENDBRANCH   2   5
BRANCH   1  17
HETATM   17  C   UNL     1     -40.240  53.891 -54.906  1.00  0.00     0.144 C 
BRANCH  17  18
HETATM   18  C   UNL     1     -40.259  53.380 -53.501  1.00  0.00    -0.021 A 
HETATM   19  C   UNL     1     -40.019  52.036 -53.064  1.00  0.00    -0.001 A 
HETATM   20  C   UNL     1     -39.721  50.824 -53.721  1.00  0.00     0.014 A 
HETATM   21  C   UNL     1     -40.108  52.030 -51.671  1.00  0.00     0.042 A 
HETATM   22  C   UNL     1     -39.527  49.659 -52.968  1.00  0.00     0.001 A 
HETATM   23  C   UNL     1     -39.623  49.687 -51.579  1.00  0.00     0.002 A 
HETATM   24  C   UNL     1     -39.917  50.874 -50.903  1.00  0.00     0.030 A 
HETATM   25  N   UNL     1     -40.393  53.315 -51.274  1.00  0.00    -0.365 N 
HETATM   26  H   UNL     1     -40.508  53.608 -50.314  1.00  0.00     0.165 HD
HETATM   27  C   UNL     1     -40.479  54.135 -52.364  1.00  0.00     0.097 A 
ENDBRANCH  17  18
ENDBRANCH   1  17
TORSDOF 4
ENDMDL
MODEL 2
REMARK VINA RESULT:      -8.5      1.807      8.818
REMARK  4 active torsions:
REMARK  status: ('A' for Active; 'I' for Inactive)
REMARK    1  A    between atoms: C_8  and  C_9 
REMARK    2  A    between atoms: C_9  and  C_10 
REMARK       I    between atoms: C_10  and  N_11 
REMARK    3  A    between atoms: N_11  and  C_12 
REMARK    4  A    between atoms: C_14  and  C_15 
ROOT
HETATM    1  C   UNL     1     -42.687  56.229 -56.561  1.00  0.00     0.226 C 
HETATM    2  N   UNL     1     -41.524  55.593 -56.154  1.00  0.00    -0.327 N 
HETATM    3  O   UNL     1     -43.672  56.463 -55.865  1.00  0.00    -0.273 OA
HETATM    4  H   UNL     1     -40.784  55.528 -56.843  1.00  0.00     0.169 HD
ENDROOT
BRANCH   2   5
HETATM    5  C   UNL     1     -41.239  55.053 -54.880  1.00  0.00     0.035 A 
HETATM    6  C   UNL     1     -40.829  53.710 -54.825  1.00  0.00     0.042 A 
HETATM    7  C   UNL     1     -40.546  53.079 -53.601  1.00  0.00    -0.021 A 
HETATM    8  C   UNL     1     -40.668  53.825 -52.423  1.00  0.00     0.012 A 
HETATM    9  C   UNL     1     -41.070  55.161 -52.467  1.00  0.00     0.003 A 
HETATM   10  C   UNL     1     -41.357  55.770 -53.689  1.00  0.00     0.029 A 
BRANCH   7  11
HETATM   11  C   UNL     1     -40.151  51.678 -53.537  1.00  0.00     0.010 A 
HETATM   12  C   UNL     1     -40.206  50.656 -54.519  1.00  0.00     0.152 A 
HETATM   13  N   UNL     1     -39.748  49.482 -54.078  1.00  0.00    -0.187 NA
HETATM   14  N   UNL     1     -39.398  49.740 -52.809  1.00  0.00    -0.289 N 
HETATM   15  H   UNL     1     -39.015  48.983 -52.253  1.00  0.00     0.188 HD
HETATM   16  C   UNL     1     -39.619  51.036 -52.437  1.00  0.00     0.123 A 
ENDBRANCH   7  11
ENDBRANCH   2   5
BRANCH   1  17
HETATM   17  C   UNL     1     -42.671  56.605 -58.036  1.00  0.00     0.144 C 
BRANCH  17  18
HETATM   18  C   UNL     1     -43.846  56.051 -58.776  1.00  0.00    -0.021 A 
HETATM   19  C   UNL     1     -44.920  56.788 -59.374  1.00  0.00    -0.001 A 
HETATM   20  C   UNL     1     -45.243  58.158 -59.467  1.00  0.00     0.014 A 
HETATM   21  C   UNL     1     -45.772  55.864 -59.981  1.00  0.00     0.042 A 
HETATM   22  C   UNL     1     -46.397  58.550 -60.157  1.00  0.00     0.001 A 
HETATM   23  C   UNL     1     -47.226  57.602 -60.752  1.00  0.00     0.002 A 
HETATM   24  C   UNL     1     -46.929  56.239 -60.674  1.00  0.00     0.030 A 
HETATM   25  N   UNL     1     -45.242  54.615 -59.761  1.00  0.00    -0.365 N 
HETATM   26  H   UNL     1     -45.647  53.752 -60.095  1.00  0.00     0.165 HD
HETATM   27  C   UNL     1     -44.082  54.716 -59.044  1.00  0.00     0.097 A 
ENDBRANCH  17  18
ENDBRANCH   1  17
TORSDOF 4
ENDMDL
MODEL 3
REMARK VINA RESULT:      -8.3      1.984      8.903
REMARK  4 active torsions:
REMARK  status: ('A' for Active; 'I' for Inactive)
REMARK    1  A    between atoms: C_8  and  C_9 
REMARK    2  A    between atoms: C_9  and  C_10 
REMARK       I    between atoms: C_10  and  N_11 
REMARK    3  A    between atoms: N_11  and  C_12 
REMARK    4  A    between atoms: C_14  and  C_15 
ROOT
HETATM    1  C   UNL     1     -42.399  56.237 -55.718  1.00  0.00     0.226 C 
HETATM    2  N   UNL     1     -41.141  55.790 -55.340  1.00  0.00    -0.327 N 
HETATM    3  O   UNL     1     -43.477  55.787 -55.337  1.00  0.00    -0.273 OA
HETATM    4  H   UNL     1     -40.353  56.309 -55.708  1.00  0.00     0.169 HD
ENDROOT
BRANCH   2   5
HETATM    5  C   UNL     1     -40.834  54.716 -54.476  1.00  0.00     0.035 A 
HETATM    6  C   UNL     1     -40.951  54.946 -53.094  1.00  0.00     0.042 A 
HETATM    7  C   UNL     1     -40.645  53.944 -52.156  1.00  0.00    -0.021 A 
HETATM    8  C   UNL     1     -40.229  52.694 -52.628  1.00  0.00     0.012 A 
HETATM    9  C   UNL     1     -40.114  52.454 -53.998  1.00  0.00     0.003 A 
HETATM   10  C   UNL     1     -40.412  53.462 -54.916  1.00  0.00     0.029 A 
BRANCH   7  11
HETATM   11  C   UNL     1     -40.734  54.187 -50.721  1.00  0.00     0.010 A 
HETATM   12  C   UNL     1     -41.109  55.351 -50.003  1.00  0.00     0.152 A 
HETATM   13  N   UNL     1     -41.066  55.184 -48.679  1.00  0.00    -0.187 NA
HETATM   14  N   UNL     1     -40.662  53.913 -48.537  1.00  0.00    -0.289 N 
HETATM   15  H   UNL     1     -40.550  53.547 -47.598  1.00  0.00     0.188 HD
HETATM   16  C   UNL     1     -40.449  53.275 -49.726  1.00  0.00     0.123 A 
ENDBRANCH   7  11
ENDBRANCH   2   5
BRANCH   1  17
HETATM   17  C   UNL     1     -42.344  57.368 -56.734  1.00  0.00     0.144 C 
BRANCH  17  18
HETATM   18  C   UNL     1     -43.626  57.516 -57.489  1.00  0.00    -0.021 A 
HETATM   19  C   UNL     1     -44.096  56.698 -58.568  1.00  0.00    -0.001 A 
HETATM   20  C   UNL     1     -43.579  55.580 -59.255  1.00  0.00     0.014 A 
HETATM   21  C   UNL     1     -45.350  57.183 -58.943  1.00  0.00     0.042 A 
HETATM   22  C   UNL     1     -44.326  54.994 -60.284  1.00  0.00     0.001 A 
HETATM   23  C   UNL     1     -45.574  55.503 -60.634  1.00  0.00     0.002 A 
HETATM   24  C   UNL     1     -46.110  56.609 -59.970  1.00  0.00     0.030 A 
HETATM   25  N   UNL     1     -45.633  58.253 -58.129  1.00  0.00    -0.365 N 
HETATM   26  H   UNL     1     -46.483  58.798 -58.171  1.00  0.00     0.165 HD
HETATM   27  C   UNL     1     -44.608  58.458 -57.248  1.00  0.00     0.097 A 
ENDBRANCH  17  18
ENDBRANCH   1  17
TORSDOF 4
ENDMDL
MODEL 4
REMARK VINA RESULT:      -8.2      3.328      5.321
REMARK  4 active torsions:
REMARK  status: ('A' for Active; 'I' for Inactive)
REMARK    1  A    between atoms: C_8  and  C_9 
REMARK    2  A    between atoms: C_9  and  C_10 
REMARK       I    between atoms: C_10  and  N_11 
REMARK    3  A    between atoms: N_11  and  C_12 
REMARK    4  A    between atoms: C_14  and  C_15 
ROOT
HETATM    1  C   UNL     1     -42.325  54.960 -54.911  1.00  0.00     0.226 C 
HETATM    2  N   UNL     1     -42.159  56.337 -54.897  1.00  0.00    -0.327 N 
HETATM    3  O   UNL     1     -43.389  54.352 -54.817  1.00  0.00    -0.273 OA
HETATM    4  H   UNL     1     -41.215  56.675 -55.039  1.00  0.00     0.169 HD
ENDROOT
BRANCH   2   5
HETATM    5  C   UNL     1     -43.159  57.322 -54.738  1.00  0.00     0.035 A 
HETATM    6  C   UNL     1     -43.469  57.721 -53.427  1.00  0.00     0.042 A 
HETATM    7  C   UNL     1     -44.465  58.679 -53.168  1.00  0.00    -0.021 A 
HETATM    8  C   UNL     1     -45.142  59.245 -54.254  1.00  0.00     0.012 A 
HETATM    9  C   UNL     1     -44.839  58.859 -55.560  1.00  0.00     0.003 A 
HETATM   10  C   UNL     1     -43.854  57.900 -55.799  1.00  0.00     0.029 A 
BRANCH   7  11
HETATM   11  C   UNL     1     -44.812  59.074 -51.809  1.00  0.00     0.010 A 
HETATM   12  C   UNL     1     -45.897  58.684 -50.982  1.00  0.00     0.152 A 
HETATM   13  N   UNL     1     -45.876  59.270 -49.783  1.00  0.00    -0.187 NA
HETATM   14  N   UNL     1     -44.780  60.041 -49.831  1.00  0.00    -0.289 N 
HETATM   15  H   UNL     1     -44.550  60.599 -49.015  1.00  0.00     0.188 HD
HETATM   16  C   UNL     1     -44.110  59.961 -51.018  1.00  0.00     0.123 A 
ENDBRANCH   7  11
ENDBRANCH   2   5
BRANCH   1  17
HETATM   17  C   UNL     1     -41.007  54.206 -55.016  1.00  0.00     0.144 C 
BRANCH  17  18
HETATM   18  C   UNL     1     -40.632  53.535 -53.734  1.00  0.00    -0.021 A 
HETATM   19  C   UNL     1     -40.280  52.158 -53.547  1.00  0.00    -0.001 A 
HETATM   20  C   UNL     1     -40.178  51.041 -54.402  1.00  0.00     0.014 A 
HETATM   21  C   UNL     1     -39.975  51.987 -52.195  1.00  0.00     0.042 A 
HETATM   22  C   UNL     1     -39.781  49.804 -53.880  1.00  0.00     0.001 A 
HETATM   23  C   UNL     1     -39.484  49.667 -52.526  1.00  0.00     0.002 A 
HETATM   24  C   UNL     1     -39.577  50.757 -51.657  1.00  0.00     0.030 A 
HETATM   25  N   UNL     1     -40.137  53.206 -51.583  1.00  0.00    -0.365 N 
HETATM   26  H   UNL     1     -39.979  53.382 -50.600  1.00  0.00     0.165 HD
HETATM   27  C   UNL     1     -40.525  54.145 -52.498  1.00  0.00     0.097 A 
ENDBRANCH  17  18
ENDBRANCH   1  17
TORSDOF 4
ENDMDL
MODEL 5
REMARK VINA RESULT:      -8.2      2.205      2.908
REMARK  4 active torsions:
REMARK  status: ('A' for Active; 'I' for Inactive)
REMARK    1  A    between atoms: C_8  and  C_9 
REMARK    2  A    between atoms: C_9  and  C_10 
REMARK       I    between atoms: C_10  and  N_11 
REMARK    3  A    between atoms: N_11  and  C_12 
REMARK    4  A    between atoms: C_14  and  C_15 
ROOT
HETATM    1  C   UNL     1     -42.975  56.006 -52.613  1.00  0.00     0.226 C 
HETATM    2  N   UNL     1     -43.995  56.204 -53.532  1.00  0.00    -0.327 N 
HETATM    3  O   UNL     1     -41.926  56.642 -52.541  1.00  0.00    -0.273 OA
HETATM    4  H   UNL     1     -44.819  55.625 -53.417  1.00  0.00     0.169 HD
ENDROOT
BRANCH   2   5
HETATM    5  C   UNL     1     -44.032  57.141 -54.589  1.00  0.00     0.035 A 
HETATM    6  C   UNL     1     -43.472  56.749 -55.817  1.00  0.00     0.042 A 
HETATM    7  C   UNL     1     -43.442  57.621 -56.920  1.00  0.00    -0.021 A 
HETATM    8  C   UNL     1     -43.998  58.897 -56.775  1.00  0.00     0.012 A 
HETATM    9  C   UNL     1     -44.561  59.293 -55.562  1.00  0.00     0.003 A 
HETATM   10  C   UNL     1     -44.574  58.420 -54.474  1.00  0.00     0.029 A 
BRANCH   7  11
HETATM   11  C   UNL     1     -42.835  57.231 -58.186  1.00  0.00     0.010 A 
HETATM   12  C   UNL     1     -43.025  56.076 -58.985  1.00  0.00     0.152 A 
HETATM   13  N   UNL     1     -42.278  56.076 -60.091  1.00  0.00    -0.187 NA
HETATM   14  N   UNL     1     -41.600  57.231 -60.010  1.00  0.00    -0.289 N 
HETATM   15  H   UNL     1     -40.949  57.459 -60.754  1.00  0.00     0.188 HD
HETATM   16  C   UNL     1     -41.896  57.956 -58.891  1.00  0.00     0.123 A 
ENDBRANCH   7  11
ENDBRANCH   2   5
BRANCH   1  17
HETATM   17  C   UNL     1     -43.247  54.846 -51.667  1.00  0.00     0.144 C 
BRANCH  17  18
HETATM   18  C   UNL     1     -42.021  54.035 -51.396  1.00  0.00    -0.021 A 
HETATM   19  C   UNL     1     -41.284  53.238 -52.333  1.00  0.00    -0.001 A 
HETATM   20  C   UNL     1     -41.430  52.943 -53.704  1.00  0.00     0.014 A 
HETATM   21  C   UNL     1     -40.200  52.687 -51.648  1.00  0.00     0.042 A 
HETATM   22  C   UNL     1     -40.495  52.114 -54.336  1.00  0.00     0.001 A 
HETATM   23  C   UNL     1     -39.424  51.580 -53.624  1.00  0.00     0.002 A 
HETATM   24  C   UNL     1     -39.257  51.855 -52.265  1.00  0.00     0.030 A 
HETATM   25  N   UNL     1     -40.273  53.126 -50.348  1.00  0.00    -0.365 N 
HETATM   26  H   UNL     1     -39.610  52.888 -49.623  1.00  0.00     0.165 HD
HETATM   27  C   UNL     1     -41.359  53.941 -50.187  1.00  0.00     0.097 A 
ENDBRANCH  17  18
ENDBRANCH   1  17
TORSDOF 4
ENDMDL
MODEL 6
REMARK VINA RESULT:      -8.2      2.941      3.963
REMARK  4 active torsions:
REMARK  status: ('A' for Active; 'I' for Inactive)
REMARK    1  A    between atoms: C_8  and  C_9 
REMARK    2  A    between atoms: C_9  and  C_10 
REMARK       I    between atoms: C_10  and  N_11 
REMARK    3  A    between atoms: N_11  and  C_12 
REMARK    4  A    between atoms: C_14  and  C_15 
ROOT
HETATM    1  C   UNL     1     -42.563  55.496 -55.518  1.00  0.00     0.226 C 
HETATM    2  N   UNL     1     -43.320  55.832 -56.630  1.00  0.00    -0.327 N 
HETATM    3  O   UNL     1     -41.392  55.805 -55.312  1.00  0.00    -0.273 OA
HETATM    4  H   UNL     1     -44.290  55.540 -56.616  1.00  0.00     0.169 HD
ENDROOT
BRANCH   2   5
HETATM    5  C   UNL     1     -42.903  56.561 -57.766  1.00  0.00     0.035 A 
HETATM    6  C   UNL     1     -42.576  57.915 -57.578  1.00  0.00     0.042 A 
HETATM    7  C   UNL     1     -42.173  58.727 -58.653  1.00  0.00    -0.021 A 
HETATM    8  C   UNL     1     -42.088  58.154 -59.927  1.00  0.00     0.012 A 
HETATM    9  C   UNL     1     -42.406  56.809 -60.122  1.00  0.00     0.003 A 
HETATM   10  C   UNL     1     -42.814  56.019 -59.047  1.00  0.00     0.029 A 
BRANCH   7  11
HETATM   11  C   UNL     1     -41.863  60.140 -58.470  1.00  0.00     0.010 A 
HETATM   12  C   UNL     1     -41.523  61.141 -59.414  1.00  0.00     0.152 A 
HETATM   13  N   UNL     1     -41.305  62.334 -58.856  1.00  0.00    -0.187 NA
HETATM   14  N   UNL     1     -41.501  62.107 -57.549  1.00  0.00    -0.289 N 
HETATM   15  H   UNL     1     -41.388  62.883 -56.905  1.00  0.00     0.188 HD
HETATM   16  C   UNL     1     -41.835  60.814 -57.266  1.00  0.00     0.123 A 
ENDBRANCH   7  11
ENDBRANCH   2   5
BRANCH   1  17
HETATM   17  C   UNL     1     -43.323  54.627 -54.525  1.00  0.00     0.144 C 
BRANCH  17  18
HETATM   18  C   UNL     1     -42.489  54.253 -53.343  1.00  0.00    -0.021 A 
HETATM   19  C   UNL     1     -41.458  53.258 -53.288  1.00  0.00    -0.001 A 
HETATM   20  C   UNL     1     -40.914  52.351 -54.220  1.00  0.00     0.014 A 
HETATM   21  C   UNL     1     -40.930  53.276 -51.996  1.00  0.00     0.042 A 
HETATM   22  C   UNL     1     -39.872  51.500 -53.831  1.00  0.00     0.001 A 
HETATM   23  C   UNL     1     -39.368  51.543 -52.533  1.00  0.00     0.002 A 
HETATM   24  C   UNL     1     -39.889  52.432 -51.589  1.00  0.00     0.030 A 
HETATM   25  N   UNL     1     -41.611  54.239 -51.291  1.00  0.00    -0.365 N 
HETATM   26  H   UNL     1     -41.434  54.476 -50.324  1.00  0.00     0.165 HD
HETATM   27  C   UNL     1     -42.545  54.837 -52.091  1.00  0.00     0.097 A 
ENDBRANCH  17  18
ENDBRANCH   1  17
TORSDOF 4
ENDMDL
MODEL 7
REMARK VINA RESULT:      -8.1      2.431      8.674
REMARK  4 active torsions:
REMARK  status: ('A' for Active; 'I' for Inactive)
REMARK    1  A    between atoms: C_8  and  C_9 
REMARK    2  A    between atoms: C_9  and  C_10 
REMARK       I    between atoms: C_10  and  N_11 
REMARK    3  A    between atoms: N_11  and  C_12 
REMARK    4  A    between atoms: C_14  and  C_15 
ROOT
HETATM    1  C   UNL     1     -41.734  56.690 -53.929  1.00  0.00     0.226 C 
HETATM    2  N   UNL     1     -42.143  55.545 -53.261  1.00  0.00    -0.327 N 
HETATM    3  O   UNL     1     -40.621  57.207 -53.874  1.00  0.00    -0.273 OA
HETATM    4  H   UNL     1     -43.083  55.223 -53.461  1.00  0.00     0.169 HD
ENDROOT
BRANCH   2   5
HETATM    5  C   UNL     1     -41.392  54.761 -52.358  1.00  0.00     0.035 A 
HETATM    6  C   UNL     1     -41.010  53.477 -52.783  1.00  0.00     0.042 A 
HETATM    7  C   UNL     1     -40.280  52.614 -51.946  1.00  0.00    -0.021 A 
HETATM    8  C   UNL     1     -39.924  53.068 -50.670  1.00  0.00     0.012 A 
HETATM    9  C   UNL     1     -40.295  54.343 -50.241  1.00  0.00     0.003 A 
HETATM   10  C   UNL     1     -41.027  55.183 -51.080  1.00  0.00     0.029 A 
BRANCH   7  11
HETATM   11  C   UNL     1     -39.909  51.270 -52.370  1.00  0.00     0.010 A 
HETATM   12  C   UNL     1     -39.809  50.705 -53.666  1.00  0.00     0.152 A 
HETATM   13  N   UNL     1     -39.435  49.423 -53.651  1.00  0.00    -0.187 NA
HETATM   14  N   UNL     1     -39.294  49.155 -52.344  1.00  0.00    -0.289 N 
HETATM   15  H   UNL     1     -39.011  48.219 -52.073  1.00  0.00     0.188 HD
HETATM   16  C   UNL     1     -39.566  50.224 -51.537  1.00  0.00     0.123 A 
ENDBRANCH   7  11
ENDBRANCH   2   5
BRANCH   1  17
HETATM   17  C   UNL     1     -42.844  57.321 -54.757  1.00  0.00     0.144 C 
BRANCH  17  18
HETATM   18  C   UNL     1     -42.755  56.950 -56.203  1.00  0.00    -0.021 A 
HETATM   19  C   UNL     1     -42.509  57.827 -57.310  1.00  0.00    -0.001 A 
HETATM   20  C   UNL     1     -42.295  59.215 -57.438  1.00  0.00     0.014 A 
HETATM   21  C   UNL     1     -42.479  57.043 -58.464  1.00  0.00     0.042 A 
HETATM   22  C   UNL     1     -42.063  59.765 -58.705  1.00  0.00     0.001 A 
HETATM   23  C   UNL     1     -42.040  58.954 -59.837  1.00  0.00     0.002 A 
HETATM   24  C   UNL     1     -42.249  57.576 -59.738  1.00  0.00     0.030 A 
HETATM   25  N   UNL     1     -42.700  55.742 -58.079  1.00  0.00    -0.365 N 
HETATM   26  H   UNL     1     -42.726  54.953 -58.709  1.00  0.00     0.165 HD
HETATM   27  C   UNL     1     -42.860  55.674 -56.723  1.00  0.00     0.097 A 
ENDBRANCH  17  18
ENDBRANCH   1  17
TORSDOF 4
ENDMDL
MODEL 8
REMARK VINA RESULT:      -8.0      2.698      8.877
REMARK  4 active torsions:
REMARK  status: ('A' for Active; 'I' for Inactive)
REMARK    1  A    between atoms: C_8  and  C_9 
REMARK    2  A    between atoms: C_9  and  C_10 
REMARK       I    between atoms: C_10  and  N_11 
REMARK    3  A    between atoms: N_11  and  C_12 
REMARK    4  A    between atoms: C_14  and  C_15 
ROOT
HETATM    1  C   UNL     1     -42.766  54.465 -55.369  1.00  0.00     0.226 C 
HETATM    2  N   UNL     1     -41.479  53.958 -55.273  1.00  0.00    -0.327 N 
HETATM    3  O   UNL     1     -43.627  54.440 -54.493  1.00  0.00    -0.273 OA
HETATM    4  H   UNL     1     -40.877  54.110 -56.074  1.00  0.00     0.169 HD
ENDROOT
BRANCH   2   5
HETATM    5  C   UNL     1     -40.900  53.281 -54.177  1.00  0.00     0.035 A 
HETATM    6  C   UNL     1     -41.104  53.831 -52.899  1.00  0.00     0.042 A 
HETATM    7  C   UNL     1     -40.548  53.240 -51.750  1.00  0.00    -0.021 A 
HETATM    8  C   UNL     1     -39.791  52.074 -51.901  1.00  0.00     0.012 A 
HETATM    9  C   UNL     1     -39.587  51.517 -53.164  1.00  0.00     0.003 A 
HETATM   10  C   UNL     1     -40.137  52.121 -54.296  1.00  0.00     0.029 A 
BRANCH   7  11
HETATM   11  C   UNL     1     -40.730  53.824 -50.427  1.00  0.00     0.010 A 
HETATM   12  C   UNL     1     -40.485  53.285 -49.138  1.00  0.00     0.152 A 
HETATM   13  N   UNL     1     -40.780  54.135 -48.152  1.00  0.00    -0.187 NA
HETATM   14  N   UNL     1     -41.219  55.225 -48.799  1.00  0.00    -0.289 N 
HETATM   15  H   UNL     1     -41.511  56.025 -48.249  1.00  0.00     0.188 HD
HETATM   16  C   UNL     1     -41.209  55.090 -50.158  1.00  0.00     0.123 A 
ENDBRANCH   7  11
ENDBRANCH   2   5
BRANCH   1  17
HETATM   17  C   UNL     1     -43.069  55.057 -56.738  1.00  0.00     0.144 C 
BRANCH  17  18
HETATM   18  C   UNL     1     -42.749  56.516 -56.809  1.00  0.00    -0.021 A 
HETATM   19  C   UNL     1     -42.529  57.299 -57.990  1.00  0.00    -0.001 A 
HETATM   20  C   UNL     1     -42.520  57.017 -59.372  1.00  0.00     0.014 A 
HETATM   21  C   UNL     1     -42.294  58.612 -57.580  1.00  0.00     0.042 A 
HETATM   22  C   UNL     1     -42.277  58.049 -60.286  1.00  0.00     0.001 A 
HETATM   23  C   UNL     1     -42.046  59.350 -59.844  1.00  0.00     0.002 A 
HETATM   24  C   UNL     1     -42.049  59.656 -58.481  1.00  0.00     0.030 A 
HETATM   25  N   UNL     1     -42.365  58.631 -56.208  1.00  0.00    -0.365 N 
HETATM   26  H   UNL     1     -42.242  59.455 -55.637  1.00  0.00     0.165 HD
HETATM   27  C   UNL     1     -42.644  57.379 -55.734  1.00  0.00     0.097 A 
ENDBRANCH  17  18
ENDBRANCH   1  17
TORSDOF 4
ENDMDL
MODEL 9
REMARK VINA RESULT:      -7.9      2.861      8.914
REMARK  4 active torsions:
REMARK  status: ('A' for Active; 'I' for Inactive)
REMARK    1  A    between atoms: C_8  and  C_9 
REMARK    2  A    between atoms: C_9  and  C_10 
REMARK       I    between atoms: C_10  and  N_11 
REMARK    3  A    between atoms: N_11  and  C_12 
REMARK    4  A    between atoms: C_14  and  C_15 
ROOT
HETATM    1  C   UNL     1     -41.999  57.365 -54.433  1.00  0.00     0.226 C 
HETATM    2  N   UNL     1     -42.297  56.012 -54.486  1.00  0.00    -0.327 N 
HETATM    3  O   UNL     1     -41.060  57.882 -53.832  1.00  0.00    -0.273 OA
HETATM    4  H   UNL     1     -43.080  55.750 -55.073  1.00  0.00     0.169 HD
ENDROOT
BRANCH   2   5
HETATM    5  C   UNL     1     -41.617  54.955 -53.841  1.00  0.00     0.035 A 
HETATM    6  C   UNL     1     -41.575  54.977 -52.437  1.00  0.00     0.042 A 
HETATM    7  C   UNL     1     -40.903  53.980 -51.708  1.00  0.00    -0.021 A 
HETATM    8  C   UNL     1     -40.279  52.945 -52.414  1.00  0.00     0.012 A 
HETATM    9  C   UNL     1     -40.319  52.912 -53.808  1.00  0.00     0.003 A 
HETATM   10  C   UNL     1     -40.983  53.914 -54.517  1.00  0.00     0.029 A 
BRANCH   7  11
HETATM   11  C   UNL     1     -40.829  54.015 -50.253  1.00  0.00     0.010 A 
HETATM   12  C   UNL     1     -41.092  55.068 -49.340  1.00  0.00     0.152 A 
HETATM   13  N   UNL     1     -40.910  54.712 -48.066  1.00  0.00    -0.187 NA
HETATM   14  N   UNL     1     -40.527  53.429 -48.151  1.00  0.00    -0.289 N 
HETATM   15  H   UNL     1     -40.323  52.931 -47.292  1.00  0.00     0.188 HD
HETATM   16  C   UNL     1     -40.462  52.966 -49.434  1.00  0.00     0.123 A 
ENDBRANCH   7  11
ENDBRANCH   2   5
BRANCH   1  17
HETATM   17  C   UNL     1     -43.005  58.224 -55.187  1.00  0.00     0.144 C 
BRANCH  17  18
HETATM   18  C   UNL     1     -42.531  58.581 -56.559  1.00  0.00    -0.021 A 
HETATM   19  C   UNL     1     -42.559  57.752 -57.729  1.00  0.00    -0.001 A 
HETATM   20  C   UNL     1     -42.985  56.434 -57.993  1.00  0.00     0.014 A 
HETATM   21  C   UNL     1     -42.047  58.507 -58.785  1.00  0.00     0.042 A 
HETATM   22  C   UNL     1     -42.883  55.921 -59.292  1.00  0.00     0.001 A 
HETATM   23  C   UNL     1     -42.367  56.701 -60.324  1.00  0.00     0.002 A 
HETATM   24  C   UNL     1     -41.937  58.010 -60.090  1.00  0.00     0.030 A 
HETATM   25  N   UNL     1     -41.717  59.742 -58.282  1.00  0.00    -0.365 N 
HETATM   26  H   UNL     1     -41.328  60.500 -58.826  1.00  0.00     0.165 HD
HETATM   27  C   UNL     1     -42.010  59.800 -56.948  1.00  0.00     0.097 A 
ENDBRANCH  17  18
ENDBRANCH   1  17
TORSDOF 4
ENDMDL
MODEL 10
REMARK VINA RESULT:      -7.7      2.023      8.237
REMARK  4 active torsions:
REMARK  status: ('A' for Active; 'I' for Inactive)
REMARK    1  A    between atoms: C_8  and  C_9 
REMARK    2  A    between atoms: C_9  and  C_10 
REMARK       I    between atoms: C_10  and  N_11 
REMARK    3  A    between atoms: N_11  and  C_12 
REMARK    4  A    between atoms: C_14  and  C_15 
ROOT
HETATM    1  C   UNL     1     -42.801  56.927 -54.804  1.00  0.00     0.226 C 
HETATM    2  N   UNL     1     -41.625  56.810 -54.078  1.00  0.00    -0.327 N 
HETATM    3  O   UNL     1     -43.795  56.213 -54.701  1.00  0.00    -0.273 OA
HETATM    4  H   UNL     1     -40.920  57.517 -54.250  1.00  0.00     0.169 HD
ENDROOT
BRANCH   2   5
HETATM    5  C   UNL     1     -41.309  55.837 -53.104  1.00  0.00     0.035 A 
HETATM    6  C   UNL     1     -40.930  54.564 -53.563  1.00  0.00     0.042 A 
HETATM    7  C   UNL     1     -40.619  53.524 -52.669  1.00  0.00    -0.021 A 
HETATM    8  C   UNL     1     -40.681  53.786 -51.296  1.00  0.00     0.012 A 
HETATM    9  C   UNL     1     -41.051  55.048 -50.829  1.00  0.00     0.003 A 
HETATM   10  C   UNL     1     -41.366  56.066 -51.730  1.00  0.00     0.029 A 
BRANCH   7  11
HETATM   11  C   UNL     1     -40.257  52.193 -53.140  1.00  0.00     0.010 A 
HETATM   12  C   UNL     1     -40.534  51.540 -54.368  1.00  0.00     0.152 A 
HETATM   13  N   UNL     1     -40.029  50.306 -54.430  1.00  0.00    -0.187 NA
HETATM   14  N   UNL     1     -39.426  50.156 -53.241  1.00  0.00    -0.289 N 
HETATM   15  H   UNL     1     -38.960  49.276 -53.047  1.00  0.00     0.188 HD
HETATM   16  C   UNL     1     -39.534  51.253 -52.435  1.00  0.00     0.123 A 
ENDBRANCH   7  11
ENDBRANCH   2   5
BRANCH   1  17
HETATM   17  C   UNL     1     -42.753  58.050 -55.830  1.00  0.00     0.144 C 
BRANCH  17  18
HETATM   18  C   UNL     1     -43.850  57.943 -56.840  1.00  0.00    -0.021 A 
HETATM   19  C   UNL     1     -43.874  57.112 -58.008  1.00  0.00    -0.001 A 
HETATM   20  C   UNL     1     -42.970  56.197 -58.586  1.00  0.00     0.014 A 
HETATM   21  C   UNL     1     -45.105  57.313 -58.636  1.00  0.00     0.042 A 
HETATM   22  C   UNL     1     -43.325  55.522 -59.761  1.00  0.00     0.001 A 
HETATM   23  C   UNL     1     -44.561  55.746 -60.362  1.00  0.00     0.002 A 
HETATM   24  C   UNL     1     -45.475  56.647 -59.811  1.00  0.00     0.030 A 
HETATM   25  N   UNL     1     -45.801  58.229 -57.884  1.00  0.00    -0.365 N 
HETATM   26  H   UNL     1     -46.732  58.560 -58.099  1.00  0.00     0.165 HD
HETATM   27  C   UNL     1     -45.060  58.609 -56.800  1.00  0.00     0.097 A 
ENDBRANCH  17  18
ENDBRANCH   1  17
TORSDOF 4
ENDMDL
