MODEL 1
REMARK VINA RESULT:      -7.5      0.000      0.000
REMARK  5 active torsions:
REMARK  status: ('A' for Active; 'I' for Inactive)
REMARK    1  A    between atoms: C_6  and  N_7 
REMARK       I    between atoms: N_7  and  C_8 
REMARK    2  A    between atoms: C_8  and  C_9 
REMARK    3  A    between atoms: C_9  and  O_10 
REMARK    4  A    between atoms: O_10  and  C_11 
REMARK    5  A    between atoms: C_18  and  C_19 
ROOT
HETATM    1  C   UNL     1     -40.248  54.080 -55.304  1.00  0.00     0.073 C 
HETATM    2  C   UNL     1     -41.562  54.695 -54.990  1.00  0.00     0.065 A 
HETATM    3  N   UNL     1     -42.447  54.919 -55.971  1.00  0.00    -0.177 NA
HETATM    4  N   UNL     1     -43.517  55.427 -55.336  1.00  0.00    -0.262 N 
HETATM    5  H   UNL     1     -44.325  55.691 -55.893  1.00  0.00     0.191 HD
HETATM    6  C   UNL     1     -43.351  55.550 -53.982  1.00  0.00     0.137 A 
HETATM    7  C   UNL     1     -42.075  55.083 -53.724  1.00  0.00     0.046 A 
ENDROOT
BRANCH   6   8
HETATM    8  N   UNL     1     -44.269  56.097 -53.110  1.00  0.00    -0.309 N 
HETATM    9  C   UNL     1     -44.342  57.389 -52.660  1.00  0.00     0.247 C 
HETATM   10  O   UNL     1     -45.082  57.651 -51.708  1.00  0.00    -0.271 OA
HETATM   11  H   UNL     1     -45.015  55.500 -52.770  1.00  0.00     0.170 HD
BRANCH   9  12
HETATM   12  C   UNL     1     -43.662  58.496 -53.458  1.00  0.00     0.278 C 
BRANCH  12  13
HETATM   13  O   UNL     1     -43.352  59.642 -52.673  1.00  0.00    -0.342 OA
BRANCH  13  14
HETATM   14  C   UNL     1     -42.101  59.515 -52.122  1.00  0.00     0.069 A 
HETATM   15  C   UNL     1     -41.051  59.193 -52.978  1.00  0.00     0.037 A 
HETATM   16  C   UNL     1     -39.767  59.017 -52.461  1.00  0.00     0.003 A 
HETATM   17  C   UNL     1     -39.535  59.178 -51.095  1.00  0.00     0.000 A 
HETATM   18  C   UNL     1     -40.582  59.538 -50.246  1.00  0.00     0.003 A 
HETATM   19  C   UNL     1     -41.865  59.719 -50.760  1.00  0.00     0.037 A 
ENDBRANCH  13  14
ENDBRANCH  12  13
ENDBRANCH   9  12
ENDBRANCH   6   8
BRANCH   7  20
HETATM   20  C   UNL     1     -41.570  54.838 -52.388  1.00  0.00    -0.020 A 
HETATM   21  C   UNL     1     -41.456  53.513 -51.942  1.00  0.00     0.014 A 
HETATM   22  C   UNL     1     -41.071  53.242 -50.628  1.00  0.00     0.020 A 
HETATM   23  C   UNL     1     -40.797  54.298 -49.762  1.00  0.00     0.011 A 
HETATM   24 BR   UNL     1     -40.315  53.933 -47.971  1.00  0.00    -0.051 Br
HETATM   25  C   UNL     1     -40.889  55.620 -50.201  1.00  0.00     0.020 A 
HETATM   26  C   UNL     1     -41.273  55.891 -51.518  1.00  0.00     0.014 A 
ENDBRANCH   7  20
TORSDOF 5
ENDMDL
MODEL 2
REMARK VINA RESULT:      -7.3      2.600      5.601
REMARK  5 active torsions:
REMARK  status: ('A' for Active; 'I' for Inactive)
REMARK    1  A    between atoms: C_6  and  N_7 
REMARK       I    between atoms: N_7  and  C_8 
REMARK    2  A    between atoms: C_8  and  C_9 
REMARK    3  A    between atoms: C_9  and  O_10 
REMARK    4  A    between atoms: O_10  and  C_11 
REMARK    5  A    between atoms: C_18  and  C_19 
ROOT
HETATM    1  C   UNL     1     -44.064  59.820 -55.348  1.00  0.00     0.073 C 
HETATM    2  C   UNL     1     -44.277  58.509 -54.685  1.00  0.00     0.065 A 
HETATM    3  N   UNL     1     -45.145  57.632 -55.203  1.00  0.00    -0.177 NA
HETATM    4  N   UNL     1     -45.050  56.562 -54.395  1.00  0.00    -0.262 N 
HETATM    5  H   UNL     1     -45.642  55.758 -54.590  1.00  0.00     0.191 HD
HETATM    6  C   UNL     1     -44.160  56.722 -53.366  1.00  0.00     0.137 A 
HETATM    7  C   UNL     1     -43.639  57.993 -53.525  1.00  0.00     0.046 A 
ENDROOT
BRANCH   6   8
HETATM    8  N   UNL     1     -43.920  55.804 -52.365  1.00  0.00    -0.309 N 
HETATM    9  C   UNL     1     -43.165  54.663 -52.428  1.00  0.00     0.247 C 
HETATM   10  O   UNL     1     -43.248  53.839 -51.513  1.00  0.00    -0.271 OA
HETATM   11  H   UNL     1     -44.312  55.988 -51.448  1.00  0.00     0.170 HD
BRANCH   9  12
HETATM   12  C   UNL     1     -42.109  54.527 -53.519  1.00  0.00     0.278 C 
BRANCH  12  13
HETATM   13  O   UNL     1     -40.796  54.332 -53.006  1.00  0.00    -0.342 OA
BRANCH  13  14
HETATM   14  C   UNL     1     -40.440  53.009 -53.104  1.00  0.00     0.069 A 
HETATM   15  C   UNL     1     -39.933  52.394 -51.962  1.00  0.00     0.037 A 
HETATM   16  C   UNL     1     -39.523  51.061 -52.019  1.00  0.00     0.003 A 
HETATM   17  C   UNL     1     -39.636  50.345 -53.212  1.00  0.00     0.000 A 
HETATM   18  C   UNL     1     -40.180  50.954 -54.343  1.00  0.00     0.003 A 
HETATM   19  C   UNL     1     -40.595  52.284 -54.287  1.00  0.00     0.037 A 
ENDBRANCH  13  14
ENDBRANCH  12  13
ENDBRANCH   9  12
ENDBRANCH   6   8
BRANCH   7  20
HETATM   20  C   UNL     1     -42.504  58.490 -52.775  1.00  0.00    -0.020 A 
HETATM   21  C   UNL     1     -41.216  58.317 -53.305  1.00  0.00     0.014 A 
HETATM   22  C   UNL     1     -40.093  58.689 -52.566  1.00  0.00     0.020 A 
HETATM   23  C   UNL     1     -40.259  59.239 -51.296  1.00  0.00     0.011 A 
HETATM   24 BR   UNL     1     -38.737  59.707 -50.277  1.00  0.00    -0.051 Br
HETATM   25  C   UNL     1     -41.536  59.434 -50.767  1.00  0.00     0.020 A 
HETATM   26  C   UNL     1     -42.661  59.062 -51.510  1.00  0.00     0.014 A 
ENDBRANCH   7  20
TORSDOF 5
ENDMDL
MODEL 3
REMARK VINA RESULT:      -7.3      2.514      4.929
REMARK  5 active torsions:
REMARK  status: ('A' for Active; 'I' for Inactive)
REMARK    1  A    between atoms: C_6  and  N_7 
REMARK       I    between atoms: N_7  and  C_8 
REMARK    2  A    between atoms: C_8  and  C_9 
REMARK    3  A    between atoms: C_9  and  O_10 
REMARK    4  A    between atoms: O_10  and  C_11 
REMARK    5  A    between atoms: C_18  and  C_19 
ROOT
HETATM    1  C   UNL     1     -44.086  59.556 -51.777  1.00  0.00     0.073 C 
HETATM    2  C   UNL     1     -44.319  58.485 -52.777  1.00  0.00     0.065 A 
HETATM    3  N   UNL     1     -44.925  58.774 -53.936  1.00  0.00    -0.177 NA
HETATM    4  N   UNL     1     -44.925  57.607 -54.604  1.00  0.00    -0.262 N 
HETATM    5  H   UNL     1     -45.356  57.580 -55.524  1.00  0.00     0.191 HD
HETATM    6  C   UNL     1     -44.352  56.573 -53.912  1.00  0.00     0.137 A 
HETATM    7  C   UNL     1     -43.949  57.115 -52.707  1.00  0.00     0.046 A 
ENDROOT
BRANCH   6   8
HETATM    8  N   UNL     1     -44.280  55.264 -54.345  1.00  0.00    -0.309 N 
HETATM    9  C   UNL     1     -43.239  54.639 -54.977  1.00  0.00     0.247 C 
HETATM   10  O   UNL     1     -43.429  53.538 -55.500  1.00  0.00    -0.271 OA
HETATM   11  H   UNL     1     -45.070  54.657 -54.153  1.00  0.00     0.170 HD
BRANCH   9  12
HETATM   12  C   UNL     1     -41.835  55.223 -54.858  1.00  0.00     0.278 C 
BRANCH  12  13
HETATM   13  O   UNL     1     -40.822  54.349 -55.345  1.00  0.00    -0.342 OA
BRANCH  13  14
HETATM   14  C   UNL     1     -40.481  53.435 -54.379  1.00  0.00     0.069 A 
HETATM   15  C   UNL     1     -40.466  53.872 -53.057  1.00  0.00     0.037 A 
HETATM   16  C   UNL     1     -40.090  52.992 -52.042  1.00  0.00     0.003 A 
HETATM   17  C   UNL     1     -39.745  51.675 -52.350  1.00  0.00     0.000 A 
HETATM   18  C   UNL     1     -39.798  51.230 -53.671  1.00  0.00     0.003 A 
HETATM   19  C   UNL     1     -40.178  52.107 -54.687  1.00  0.00     0.037 A 
ENDBRANCH  13  14
ENDBRANCH  12  13
ENDBRANCH   9  12
ENDBRANCH   6   8
BRANCH   7  20
HETATM   20  C   UNL     1     -43.105  56.416 -51.759  1.00  0.00    -0.020 A 
HETATM   21  C   UNL     1     -43.606  55.266 -51.129  1.00  0.00     0.014 A 
HETATM   22  C   UNL     1     -42.863  54.626 -50.137  1.00  0.00     0.020 A 
HETATM   23  C   UNL     1     -41.616  55.134 -49.777  1.00  0.00     0.011 A 
HETATM   24 BR   UNL     1     -40.626  54.290 -48.405  1.00  0.00    -0.051 Br
HETATM   25  C   UNL     1     -41.100  56.265 -50.411  1.00  0.00     0.020 A 
HETATM   26  C   UNL     1     -41.844  56.905 -51.407  1.00  0.00     0.014 A 
ENDBRANCH   7  20
TORSDOF 5
ENDMDL
MODEL 4
REMARK VINA RESULT:      -7.3      3.523      6.309
REMARK  5 active torsions:
REMARK  status: ('A' for Active; 'I' for Inactive)
REMARK    1  A    between atoms: C_6  and  N_7 
REMARK       I    between atoms: N_7  and  C_8 
REMARK    2  A    between atoms: C_8  and  C_9 
REMARK    3  A    between atoms: C_9  and  O_10 
REMARK    4  A    between atoms: O_10  and  C_11 
REMARK    5  A    between atoms: C_18  and  C_19 
ROOT
HETATM    1  C   UNL     1     -39.868  59.097 -52.738  1.00  0.00     0.073 C 
HETATM    2  C   UNL     1     -40.739  58.192 -51.946  1.00  0.00     0.065 A 
HETATM    3  N   UNL     1     -40.759  58.285 -50.611  1.00  0.00    -0.177 NA
HETATM    4  N   UNL     1     -41.671  57.372 -50.234  1.00  0.00    -0.262 N 
HETATM    5  H   UNL     1     -41.849  57.251 -49.241  1.00  0.00     0.191 HD
HETATM    6  C   UNL     1     -42.231  56.684 -51.279  1.00  0.00     0.137 A 
HETATM    7  C   UNL     1     -41.636  57.196 -52.417  1.00  0.00     0.046 A 
ENDROOT
BRANCH   6   8
HETATM    8  N   UNL     1     -43.144  55.656 -51.163  1.00  0.00    -0.309 N 
HETATM    9  C   UNL     1     -42.902  54.308 -51.152  1.00  0.00     0.247 C 
HETATM   10  O   UNL     1     -43.850  53.528 -51.275  1.00  0.00    -0.271 OA
HETATM   11  H   UNL     1     -44.119  55.900 -51.033  1.00  0.00     0.170 HD
BRANCH   9  12
HETATM   12  C   UNL     1     -41.505  53.805 -50.802  1.00  0.00     0.278 C 
BRANCH  12  13
HETATM   13  O   UNL     1     -40.581  53.927 -51.877  1.00  0.00    -0.342 OA
BRANCH  13  14
HETATM   14  C   UNL     1     -40.318  52.693 -52.419  1.00  0.00     0.069 A 
HETATM   15  C   UNL     1     -39.811  51.713 -51.569  1.00  0.00     0.037 A 
HETATM   16  C   UNL     1     -39.492  50.454 -52.079  1.00  0.00     0.003 A 
HETATM   17  C   UNL     1     -39.696  50.174 -53.431  1.00  0.00     0.000 A 
HETATM   18  C   UNL     1     -40.240  51.146 -54.270  1.00  0.00     0.003 A 
HETATM   19  C   UNL     1     -40.564  52.404 -53.763  1.00  0.00     0.037 A 
ENDBRANCH  13  14
ENDBRANCH  12  13
ENDBRANCH   9  12
ENDBRANCH   6   8
BRANCH   7  20
HETATM   20  C   UNL     1     -42.092  56.898 -53.759  1.00  0.00    -0.020 A 
HETATM   21  C   UNL     1     -41.525  55.810 -54.440  1.00  0.00     0.014 A 
HETATM   22  C   UNL     1     -41.864  55.555 -55.769  1.00  0.00     0.020 A 
HETATM   23  C   UNL     1     -42.775  56.387 -56.416  1.00  0.00     0.011 A 
HETATM   24 BR   UNL     1     -43.206  56.067 -58.229  1.00  0.00    -0.051 Br
HETATM   25  C   UNL     1     -43.360  57.461 -55.743  1.00  0.00     0.020 A 
HETATM   26  C   UNL     1     -43.021  57.715 -54.410  1.00  0.00     0.014 A 
ENDBRANCH   7  20
TORSDOF 5
ENDMDL
MODEL 5
REMARK VINA RESULT:      -6.8      3.403      6.210
REMARK  5 active torsions:
REMARK  status: ('A' for Active; 'I' for Inactive)
REMARK    1  A    between atoms: C_6  and  N_7 
REMARK       I    between atoms: N_7  and  C_8 
REMARK    2  A    between atoms: C_8  and  C_9 
REMARK    3  A    between atoms: C_9  and  O_10 
REMARK    4  A    between atoms: O_10  and  C_11 
REMARK    5  A    between atoms: C_18  and  C_19 
ROOT
HETATM    1  C   UNL     1     -43.698  56.543 -55.095  1.00  0.00     0.073 C 
HETATM    2  C   UNL     1     -43.312  55.759 -53.896  1.00  0.00     0.065 A 
HETATM    3  N   UNL     1     -43.089  54.443 -54.002  1.00  0.00    -0.177 NA
HETATM    4  N   UNL     1     -42.722  54.073 -52.763  1.00  0.00    -0.262 N 
HETATM    5  H   UNL     1     -42.512  53.092 -52.596  1.00  0.00     0.191 HD
HETATM    6  C   UNL     1     -42.710  55.102 -51.858  1.00  0.00     0.137 A 
HETATM    7  C   UNL     1     -43.099  56.222 -52.570  1.00  0.00     0.046 A 
ENDROOT
BRANCH   6   8
HETATM    8  N   UNL     1     -42.430  54.981 -50.513  1.00  0.00    -0.309 N 
HETATM    9  C   UNL     1     -41.458  54.223 -49.917  1.00  0.00     0.247 C 
HETATM   10  O   UNL     1     -41.497  54.050 -48.695  1.00  0.00    -0.271 OA
HETATM   11  H   UNL     1     -42.975  55.537 -49.863  1.00  0.00     0.170 HD
BRANCH   9  12
HETATM   12  C   UNL     1     -40.255  53.773 -50.739  1.00  0.00     0.278 C 
BRANCH  12  13
HETATM   13  O   UNL     1     -39.837  52.446 -50.437  1.00  0.00    -0.342 OA
BRANCH  13  14
HETATM   14  C   UNL     1     -39.817  51.684 -51.580  1.00  0.00     0.069 A 
HETATM   15  C   UNL     1     -40.010  52.340 -52.793  1.00  0.00     0.037 A 
HETATM   16  C   UNL     1     -40.035  51.606 -53.979  1.00  0.00     0.003 A 
HETATM   17  C   UNL     1     -39.852  50.223 -53.950  1.00  0.00     0.000 A 
HETATM   18  C   UNL     1     -39.621  49.575 -52.737  1.00  0.00     0.003 A 
HETATM   19  C   UNL     1     -39.591  50.306 -51.550  1.00  0.00     0.037 A 
ENDBRANCH  13  14
ENDBRANCH  12  13
ENDBRANCH   9  12
ENDBRANCH   6   8
BRANCH   7  20
HETATM   20  C   UNL     1     -43.017  57.569 -52.045  1.00  0.00    -0.020 A 
HETATM   21  C   UNL     1     -44.191  58.193 -51.597  1.00  0.00     0.014 A 
HETATM   22  C   UNL     1     -44.168  59.525 -51.181  1.00  0.00     0.020 A 
HETATM   23  C   UNL     1     -42.967  60.231 -51.210  1.00  0.00     0.011 A 
HETATM   24 BR   UNL     1     -42.942  62.047 -50.684  1.00  0.00    -0.051 Br
HETATM   25  C   UNL     1     -41.789  59.615 -51.635  1.00  0.00     0.020 A 
HETATM   26  C   UNL     1     -41.813  58.280 -52.050  1.00  0.00     0.014 A 
ENDBRANCH   7  20
TORSDOF 5
ENDMDL
MODEL 6
REMARK VINA RESULT:      -6.7      2.497      5.112
REMARK  5 active torsions:
REMARK  status: ('A' for Active; 'I' for Inactive)
REMARK    1  A    between atoms: C_6  and  N_7 
REMARK       I    between atoms: N_7  and  C_8 
REMARK    2  A    between atoms: C_8  and  C_9 
REMARK    3  A    between atoms: C_9  and  O_10 
REMARK    4  A    between atoms: O_10  and  C_11 
REMARK    5  A    between atoms: C_18  and  C_19 
ROOT
HETATM    1  C   UNL     1     -45.440  58.081 -51.375  1.00  0.00     0.073 C 
HETATM    2  C   UNL     1     -44.394  57.994 -52.425  1.00  0.00     0.065 A 
HETATM    3  N   UNL     1     -44.513  58.715 -53.547  1.00  0.00    -0.177 NA
HETATM    4  N   UNL     1     -43.392  58.435 -54.234  1.00  0.00    -0.262 N 
HETATM    5  H   UNL     1     -43.267  58.868 -55.146  1.00  0.00     0.191 HD
HETATM    6  C   UNL     1     -42.559  57.550 -53.601  1.00  0.00     0.137 A 
HETATM    7  C   UNL     1     -43.192  57.237 -52.412  1.00  0.00     0.046 A 
ENDROOT
BRANCH   6   8
HETATM    8  N   UNL     1     -41.380  57.053 -54.115  1.00  0.00    -0.309 N 
HETATM    9  C   UNL     1     -41.082  55.757 -54.445  1.00  0.00     0.247 C 
HETATM   10  O   UNL     1     -39.908  55.452 -54.672  1.00  0.00    -0.271 OA
HETATM   11  H   UNL     1     -40.635  57.711 -54.317  1.00  0.00     0.170 HD
BRANCH   9  12
HETATM   12  C   UNL     1     -42.218  54.774 -54.708  1.00  0.00     0.278 C 
BRANCH  12  13
HETATM   13  O   UNL     1     -42.483  53.917 -53.602  1.00  0.00    -0.342 OA
BRANCH  13  14
HETATM   14  C   UNL     1     -41.459  53.016 -53.446  1.00  0.00     0.069 A 
HETATM   15  C   UNL     1     -41.225  52.123 -54.489  1.00  0.00     0.037 A 
HETATM   16  C   UNL     1     -40.220  51.162 -54.364  1.00  0.00     0.003 A 
HETATM   17  C   UNL     1     -39.444  51.108 -53.205  1.00  0.00     0.000 A 
HETATM   18  C   UNL     1     -39.657  52.029 -52.179  1.00  0.00     0.003 A 
HETATM   19  C   UNL     1     -40.657  52.993 -52.303  1.00  0.00     0.037 A 
ENDBRANCH  13  14
ENDBRANCH  12  13
ENDBRANCH   9  12
ENDBRANCH   6   8
BRANCH   7  20
HETATM   20  C   UNL     1     -42.557  56.496 -51.342  1.00  0.00    -0.020 A 
HETATM   21  C   UNL     1     -41.275  56.882 -50.922  1.00  0.00     0.014 A 
HETATM   22  C   UNL     1     -40.590  56.130 -49.966  1.00  0.00     0.020 A 
HETATM   23  C   UNL     1     -41.191  54.995 -49.426  1.00  0.00     0.011 A 
HETATM   24 BR   UNL     1     -40.249  53.954 -48.160  1.00  0.00    -0.051 Br
HETATM   25  C   UNL     1     -42.474  54.614 -49.822  1.00  0.00     0.020 A 
HETATM   26  C   UNL     1     -43.160  55.368 -50.779  1.00  0.00     0.014 A 
ENDBRANCH   7  20
TORSDOF 5
ENDMDL
MODEL 7
REMARK VINA RESULT:      -6.7      3.172      5.779
REMARK  5 active torsions:
REMARK  status: ('A' for Active; 'I' for Inactive)
REMARK    1  A    between atoms: C_6  and  N_7 
REMARK       I    between atoms: N_7  and  C_8 
REMARK    2  A    between atoms: C_8  and  C_9 
REMARK    3  A    between atoms: C_9  and  O_10 
REMARK    4  A    between atoms: O_10  and  C_11 
REMARK    5  A    between atoms: C_18  and  C_19 
ROOT
HETATM    1  C   UNL     1     -41.533  60.297 -57.723  1.00  0.00     0.073 C 
HETATM    2  C   UNL     1     -42.054  58.914 -57.580  1.00  0.00     0.065 A 
HETATM    3  N   UNL     1     -42.031  58.080 -58.627  1.00  0.00    -0.177 NA
HETATM    4  N   UNL     1     -42.522  56.929 -58.138  1.00  0.00    -0.262 N 
HETATM    5  H   UNL     1     -42.614  56.138 -58.771  1.00  0.00     0.191 HD
HETATM    6  C   UNL     1     -42.872  56.993 -56.815  1.00  0.00     0.137 A 
HETATM    7  C   UNL     1     -42.583  58.286 -56.421  1.00  0.00     0.046 A 
ENDROOT
BRANCH   6   8
HETATM    8  N   UNL     1     -43.454  55.973 -56.091  1.00  0.00    -0.309 N 
HETATM    9  C   UNL     1     -42.847  54.878 -55.534  1.00  0.00     0.247 C 
HETATM   10  O   UNL     1     -43.548  53.950 -55.122  1.00  0.00    -0.271 OA
HETATM   11  H   UNL     1     -44.449  56.032 -55.903  1.00  0.00     0.170 HD
BRANCH   9  12
HETATM   12  C   UNL     1     -41.347  54.915 -55.264  1.00  0.00     0.278 C 
BRANCH  12  13
HETATM   13  O   UNL     1     -41.031  55.028 -53.880  1.00  0.00    -0.342 OA
BRANCH  13  14
HETATM   14  C   UNL     1     -40.564  53.829 -53.402  1.00  0.00     0.069 A 
HETATM   15  C   UNL     1     -40.455  53.686 -52.021  1.00  0.00     0.037 A 
HETATM   16  C   UNL     1     -39.951  52.500 -51.486  1.00  0.00     0.003 A 
HETATM   17  C   UNL     1     -39.573  51.457 -52.332  1.00  0.00     0.000 A 
HETATM   18  C   UNL     1     -39.719  51.589 -53.712  1.00  0.00     0.003 A 
HETATM   19  C   UNL     1     -40.227  52.771 -54.250  1.00  0.00     0.037 A 
ENDBRANCH  13  14
ENDBRANCH  12  13
ENDBRANCH   9  12
ENDBRANCH   6   8
BRANCH   7  20
HETATM   20  C   UNL     1     -42.602  58.722 -55.040  1.00  0.00    -0.020 A 
HETATM   21  C   UNL     1     -43.772  59.305 -54.532  1.00  0.00     0.014 A 
HETATM   22  C   UNL     1     -43.796  59.830 -53.239  1.00  0.00     0.020 A 
HETATM   23  C   UNL     1     -42.647  59.767 -52.452  1.00  0.00     0.011 A 
HETATM   24 BR   UNL     1     -42.665  60.513 -50.715  1.00  0.00    -0.051 Br
HETATM   25  C   UNL     1     -41.483  59.171 -52.940  1.00  0.00     0.020 A 
HETATM   26  C   UNL     1     -41.462  58.644 -54.235  1.00  0.00     0.014 A 
ENDBRANCH   7  20
TORSDOF 5
ENDMDL
MODEL 8
REMARK VINA RESULT:      -6.6      3.230      4.913
REMARK  5 active torsions:
REMARK  status: ('A' for Active; 'I' for Inactive)
REMARK    1  A    between atoms: C_6  and  N_7 
REMARK       I    between atoms: N_7  and  C_8 
REMARK    2  A    between atoms: C_8  and  C_9 
REMARK    3  A    between atoms: C_9  and  O_10 
REMARK    4  A    between atoms: O_10  and  C_11 
REMARK    5  A    between atoms: C_18  and  C_19 
ROOT
HETATM    1  C   UNL     1     -40.517  54.014 -54.439  1.00  0.00     0.073 C 
HETATM    2  C   UNL     1     -41.885  54.587 -54.498  1.00  0.00     0.065 A 
HETATM    3  N   UNL     1     -42.871  53.903 -55.091  1.00  0.00    -0.177 NA
HETATM    4  N   UNL     1     -43.955  54.680 -54.921  1.00  0.00    -0.262 N 
HETATM    5  H   UNL     1     -44.840  54.363 -55.310  1.00  0.00     0.191 HD
HETATM    6  C   UNL     1     -43.701  55.846 -54.249  1.00  0.00     0.137 A 
HETATM    7  C   UNL     1     -42.349  55.819 -53.963  1.00  0.00     0.046 A 
ENDROOT
BRANCH   6   8
HETATM    8  N   UNL     1     -44.623  56.842 -53.998  1.00  0.00    -0.309 N 
HETATM    9  C   UNL     1     -44.703  58.083 -54.571  1.00  0.00     0.247 C 
HETATM   10  O   UNL     1     -45.444  58.930 -54.064  1.00  0.00    -0.271 OA
HETATM   11  H   UNL     1     -45.365  56.645 -53.336  1.00  0.00     0.170 HD
BRANCH   9  12
HETATM   12  C   UNL     1     -44.029  58.329 -55.916  1.00  0.00     0.278 C 
BRANCH  12  13
HETATM   13  O   UNL     1     -44.664  57.647 -56.992  1.00  0.00    -0.342 OA
BRANCH  13  14
HETATM   14  C   UNL     1     -43.764  57.414 -58.002  1.00  0.00     0.069 A 
HETATM   15  C   UNL     1     -42.984  58.486 -58.429  1.00  0.00     0.037 A 
HETATM   16  C   UNL     1     -42.081  58.310 -59.478  1.00  0.00     0.003 A 
HETATM   17  C   UNL     1     -41.949  57.060 -60.084  1.00  0.00     0.000 A 
HETATM   18  C   UNL     1     -42.704  55.979 -59.629  1.00  0.00     0.003 A 
HETATM   19  C   UNL     1     -43.604  56.151 -58.578  1.00  0.00     0.037 A 
ENDBRANCH  13  14
ENDBRANCH  12  13
ENDBRANCH   9  12
ENDBRANCH   6   8
BRANCH   7  20
HETATM   20  C   UNL     1     -41.702  56.763 -53.075  1.00  0.00    -0.020 A 
HETATM   21  C   UNL     1     -41.035  57.865 -53.630  1.00  0.00     0.014 A 
HETATM   22  C   UNL     1     -40.315  58.738 -52.815  1.00  0.00     0.020 A 
HETATM   23  C   UNL     1     -40.265  58.510 -51.441  1.00  0.00     0.011 A 
HETATM   24 BR   UNL     1     -39.256  59.669 -50.340  1.00  0.00    -0.051 Br
HETATM   25  C   UNL     1     -40.940  57.428 -50.875  1.00  0.00     0.020 A 
HETATM   26  C   UNL     1     -41.663  56.554 -51.693  1.00  0.00     0.014 A 
ENDBRANCH   7  20
TORSDOF 5
ENDMDL
MODEL 9
REMARK VINA RESULT:      -6.5     16.397     18.366
REMARK  5 active torsions:
REMARK  status: ('A' for Active; 'I' for Inactive)
REMARK    1  A    between atoms: C_6  and  N_7 
REMARK       I    between atoms: N_7  and  C_8 
REMARK    2  A    between atoms: C_8  and  C_9 
REMARK    3  A    between atoms: C_9  and  O_10 
REMARK    4  A    between atoms: O_10  and  C_11 
REMARK    5  A    between atoms: C_18  and  C_19 
ROOT
HETATM    1  C   UNL     1     -30.835  38.916 -55.525  1.00  0.00     0.073 C 
HETATM    2  C   UNL     1     -32.017  39.793 -55.332  1.00  0.00     0.065 A 
HETATM    3  N   UNL     1     -32.633  40.327 -56.395  1.00  0.00    -0.177 NA
HETATM    4  N   UNL     1     -33.664  41.008 -55.866  1.00  0.00    -0.262 N 
HETATM    5  H   UNL     1     -34.277  41.518 -56.496  1.00  0.00     0.191 HD
HETATM    6  C   UNL     1     -33.730  40.941 -54.499  1.00  0.00     0.137 A 
HETATM    7  C   UNL     1     -32.659  40.155 -54.117  1.00  0.00     0.046 A 
ENDROOT
BRANCH   6   8
HETATM    8  N   UNL     1     -34.651  41.597 -53.709  1.00  0.00    -0.309 N 
HETATM    9  C   UNL     1     -36.014  41.622 -53.843  1.00  0.00     0.247 C 
HETATM   10  O   UNL     1     -36.666  42.443 -53.193  1.00  0.00    -0.271 OA
HETATM   11  H   UNL     1     -34.308  42.105 -52.901  1.00  0.00     0.170 HD
BRANCH   9  12
HETATM   12  C   UNL     1     -36.705  40.519 -54.639  1.00  0.00     0.278 C 
BRANCH  12  13
HETATM   13  O   UNL     1     -37.914  40.949 -55.256  1.00  0.00    -0.342 OA
BRANCH  13  14
HETATM   14  C   UNL     1     -37.764  40.980 -56.621  1.00  0.00     0.069 A 
HETATM   15  C   UNL     1     -37.148  42.100 -57.174  1.00  0.00     0.037 A 
HETATM   16  C   UNL     1     -37.005  42.196 -58.559  1.00  0.00     0.003 A 
HETATM   17  C   UNL     1     -37.463  41.167 -59.383  1.00  0.00     0.000 A 
HETATM   18  C   UNL     1     -38.044  40.030 -58.822  1.00  0.00     0.003 A 
HETATM   19  C   UNL     1     -38.184  39.929 -57.439  1.00  0.00     0.037 A 
ENDBRANCH  13  14
ENDBRANCH  12  13
ENDBRANCH   9  12
ENDBRANCH   6   8
BRANCH   7  20
HETATM   20  C   UNL     1     -32.477  39.653 -52.771  1.00  0.00    -0.020 A 
HETATM   21  C   UNL     1     -32.947  38.368 -52.460  1.00  0.00     0.014 A 
HETATM   22  C   UNL     1     -32.882  37.891 -51.150  1.00  0.00     0.020 A 
HETATM   23  C   UNL     1     -32.343  38.700 -50.151  1.00  0.00     0.011 A 
HETATM   24 BR   UNL     1     -32.291  38.071 -48.369  1.00  0.00    -0.051 Br
HETATM   25  C   UNL     1     -31.854  39.972 -50.453  1.00  0.00     0.020 A 
HETATM   26  C   UNL     1     -31.918  40.448 -51.766  1.00  0.00     0.014 A 
ENDBRANCH   7  20
TORSDOF 5
ENDMDL
MODEL 10
REMARK VINA RESULT:      -6.5      3.606      6.636
REMARK  5 active torsions:
REMARK  status: ('A' for Active; 'I' for Inactive)
REMARK    1  A    between atoms: C_6  and  N_7 
REMARK       I    between atoms: N_7  and  C_8 
REMARK    2  A    between atoms: C_8  and  C_9 
REMARK    3  A    between atoms: C_9  and  O_10 
REMARK    4  A    between atoms: O_10  and  C_11 
REMARK    5  A    between atoms: C_18  and  C_19 
ROOT
HETATM    1  C   UNL     1     -40.154  59.308 -50.502  1.00  0.00     0.073 C 
HETATM    2  C   UNL     1     -40.883  58.048 -50.790  1.00  0.00     0.065 A 
HETATM    3  N   UNL     1     -40.842  57.037 -49.912  1.00  0.00    -0.177 NA
HETATM    4  N   UNL     1     -41.634  56.098 -50.459  1.00  0.00    -0.262 N 
HETATM    5  H   UNL     1     -41.745  55.216 -49.965  1.00  0.00     0.191 HD
HETATM    6  C   UNL     1     -42.175  56.463 -51.664  1.00  0.00     0.137 A 
HETATM    7  C   UNL     1     -41.697  57.736 -51.912  1.00  0.00     0.046 A 
ENDROOT
BRANCH   6   8
HETATM    8  N   UNL     1     -42.970  55.662 -52.458  1.00  0.00    -0.309 N 
HETATM    9  C   UNL     1     -42.600  54.920 -53.548  1.00  0.00     0.247 C 
HETATM   10  O   UNL     1     -43.476  54.449 -54.278  1.00  0.00    -0.271 OA
HETATM   11  H   UNL     1     -43.948  55.566 -52.208  1.00  0.00     0.170 HD
BRANCH   9  12
HETATM   12  C   UNL     1     -41.135  54.535 -53.725  1.00  0.00     0.278 C 
BRANCH  12  13
HETATM   13  O   UNL     1     -40.559  53.971 -52.551  1.00  0.00    -0.342 OA
BRANCH  13  14
HETATM   14  C   UNL     1     -40.245  52.651 -52.764  1.00  0.00     0.069 A 
HETATM   15  C   UNL     1     -40.394  52.156 -54.057  1.00  0.00     0.037 A 
HETATM   16  C   UNL     1     -40.123  50.813 -54.318  1.00  0.00     0.003 A 
HETATM   17  C   UNL     1     -39.690  49.974 -53.290  1.00  0.00     0.000 A 
HETATM   18  C   UNL     1     -39.506  50.482 -52.005  1.00  0.00     0.003 A 
HETATM   19  C   UNL     1     -39.771  51.826 -51.742  1.00  0.00     0.037 A 
ENDBRANCH  13  14
ENDBRANCH  12  13
ENDBRANCH   9  12
ENDBRANCH   6   8
BRANCH   7  20
HETATM   20  C   UNL     1     -42.191  58.579 -52.980  1.00  0.00    -0.020 A 
HETATM   21  C   UNL     1     -43.421  59.234 -52.810  1.00  0.00     0.014 A 
HETATM   22  C   UNL     1     -43.978  59.972 -53.855  1.00  0.00     0.020 A 
HETATM   23  C   UNL     1     -43.302  60.058 -55.071  1.00  0.00     0.011 A 
HETATM   24 BR   UNL     1     -44.074  61.024 -56.501  1.00  0.00    -0.051 Br
HETATM   25  C   UNL     1     -42.069  59.427 -55.245  1.00  0.00     0.020 A 
HETATM   26  C   UNL     1     -41.511  58.689 -54.196  1.00  0.00     0.014 A 
ENDBRANCH   7  20
TORSDOF 5
ENDMDL
