MODEL 1
REMARK VINA RESULT:      -8.3      0.000      0.000
REMARK  5 active torsions:
REMARK  status: ('A' for Active; 'I' for Inactive)
REMARK    1  A    between atoms: O_2  and  C_3 
REMARK    2  A    between atoms: C_6  and  N_7 
REMARK       I    between atoms: N_7  and  C_8 
REMARK    3  A    between atoms: C_8  and  C_9 
REMARK    4  A    between atoms: C_9  and  N_10 
REMARK    5  A    between atoms: N_10  and  C_11 
ROOT
HETATM    1  C   UNL     1     -41.051  55.452 -54.847  1.00  0.00     0.195 C 
ENDROOT
BRANCH   1   2
HETATM    2  C   UNL     1     -42.381  55.620 -55.593  1.00  0.00     0.235 C 
HETATM    3  N   UNL     1     -42.232  56.156 -56.862  1.00  0.00    -0.326 N 
HETATM    4  H   UNL     1     -41.281  56.426 -57.102  1.00  0.00     0.169 HD
HETATM    5  O   UNL     1     -43.440  55.310 -55.051  1.00  0.00    -0.272 OA
BRANCH   3   6
HETATM    6  C   UNL     1     -43.238  56.375 -57.824  1.00  0.00     0.034 A 
HETATM    7  C   UNL     1     -43.463  55.534 -58.917  1.00  0.00     0.032 A 
HETATM    8  C   UNL     1     -44.476  55.812 -59.845  1.00  0.00     0.039 A 
HETATM    9  C   UNL     1     -45.278  56.940 -59.692  1.00  0.00     0.068 A 
HETATM   10  C   UNL     1     -45.052  57.788 -58.607  1.00  0.00     0.039 A 
HETATM   11  C   UNL     1     -44.042  57.508 -57.677  1.00  0.00     0.032 A 
BRANCH   9  12
HETATM   12  O   UNL     1     -46.295  57.321 -60.523  1.00  0.00    -0.356 OA
HETATM   13  C   UNL     1     -47.291  56.343 -60.803  1.00  0.00     0.210 C 
ENDBRANCH   9  12
ENDBRANCH   3   6
ENDBRANCH   1   2
BRANCH   1  14
HETATM   14  N   UNL     1     -40.556  54.048 -54.910  1.00  0.00    -0.283 NA
HETATM   15  H   UNL     1     -41.225  53.484 -55.437  1.00  0.00     0.128 HD
BRANCH  14  16
HETATM   16  C   UNL     1     -40.492  53.503 -53.584  1.00  0.00     0.019 A 
HETATM   17  C   UNL     1     -40.179  52.137 -53.331  1.00  0.00    -0.005 A 
HETATM   18  C   UNL     1     -39.963  51.723 -51.991  1.00  0.00    -0.024 A 
HETATM   19  C   UNL     1     -40.079  51.154 -54.342  1.00  0.00     0.014 A 
HETATM   20  C   UNL     1     -39.605  50.392 -51.715  1.00  0.00     0.012 A 
HETATM   21  C   UNL     1     -40.103  52.643 -50.942  1.00  0.00     0.012 A 
HETATM   22  C   UNL     1     -39.479  49.456 -52.738  1.00  0.00     0.001 A 
HETATM   23  C   UNL     1     -39.727  49.833 -54.052  1.00  0.00     0.001 A 
HETATM   24  C   UNL     1     -40.454  53.966 -51.195  1.00  0.00     0.003 A 
HETATM   25  C   UNL     1     -40.640  54.394 -52.505  1.00  0.00     0.024 A 
ENDBRANCH  14  16
ENDBRANCH   1  14
TORSDOF 5
ENDMDL
MODEL 2
REMARK VINA RESULT:      -8.0      1.491      2.105
REMARK  5 active torsions:
REMARK  status: ('A' for Active; 'I' for Inactive)
REMARK    1  A    between atoms: O_2  and  C_3 
REMARK    2  A    between atoms: C_6  and  N_7 
REMARK       I    between atoms: N_7  and  C_8 
REMARK    3  A    between atoms: C_8  and  C_9 
REMARK    4  A    between atoms: C_9  and  N_10 
REMARK    5  A    between atoms: N_10  and  C_11 
ROOT
HETATM    1  C   UNL     1     -42.891  56.338 -52.946  1.00  0.00     0.195 C 
ENDROOT
BRANCH   1   2
HETATM    2  C   UNL     1     -43.431  55.931 -54.323  1.00  0.00     0.235 C 
HETATM    3  N   UNL     1     -43.162  56.862 -55.313  1.00  0.00    -0.326 N 
HETATM    4  H   UNL     1     -42.706  57.711 -54.987  1.00  0.00     0.169 HD
HETATM    5  O   UNL     1     -44.053  54.879 -54.459  1.00  0.00    -0.272 OA
BRANCH   3   6
HETATM    6  C   UNL     1     -43.458  56.764 -56.687  1.00  0.00     0.034 A 
HETATM    7  C   UNL     1     -44.310  57.641 -57.362  1.00  0.00     0.032 A 
HETATM    8  C   UNL     1     -44.571  57.484 -58.730  1.00  0.00     0.039 A 
HETATM    9  C   UNL     1     -43.983  56.443 -59.442  1.00  0.00     0.068 A 
HETATM   10  C   UNL     1     -43.137  55.559 -58.771  1.00  0.00     0.039 A 
HETATM   11  C   UNL     1     -42.873  55.718 -57.404  1.00  0.00     0.032 A 
BRANCH   9  12
HETATM   12  O   UNL     1     -44.154  56.183 -60.774  1.00  0.00    -0.356 OA
HETATM   13  C   UNL     1     -45.083  55.158 -61.109  1.00  0.00     0.210 C 
ENDBRANCH   9  12
ENDBRANCH   3   6
ENDBRANCH   1   2
BRANCH   1  14
HETATM   14  N   UNL     1     -41.409  56.201 -52.871  1.00  0.00    -0.283 NA
HETATM   15  H   UNL     1     -41.049  55.983 -53.802  1.00  0.00     0.128 HD
BRANCH  14  16
HETATM   16  C   UNL     1     -41.073  55.098 -52.016  1.00  0.00     0.019 A 
HETATM   17  C   UNL     1     -40.621  53.846 -52.522  1.00  0.00    -0.005 A 
HETATM   18  C   UNL     1     -40.143  52.872 -51.608  1.00  0.00    -0.024 A 
HETATM   19  C   UNL     1     -40.629  53.505 -53.894  1.00  0.00     0.014 A 
HETATM   20  C   UNL     1     -39.646  51.646 -52.081  1.00  0.00     0.012 A 
HETATM   21  C   UNL     1     -40.164  53.135 -50.230  1.00  0.00     0.012 A 
HETATM   22  C   UNL     1     -39.633  51.355 -53.444  1.00  0.00     0.001 A 
HETATM   23  C   UNL     1     -40.136  52.280 -54.350  1.00  0.00     0.001 A 
HETATM   24  C   UNL     1     -40.649  54.344 -49.742  1.00  0.00     0.003 A 
HETATM   25  C   UNL     1     -41.094  55.320 -50.627  1.00  0.00     0.024 A 
ENDBRANCH  14  16
ENDBRANCH   1  14
TORSDOF 5
ENDMDL
MODEL 3
REMARK VINA RESULT:      -7.6      1.834      3.105
REMARK  5 active torsions:
REMARK  status: ('A' for Active; 'I' for Inactive)
REMARK    1  A    between atoms: O_2  and  C_3 
REMARK    2  A    between atoms: C_6  and  N_7 
REMARK       I    between atoms: N_7  and  C_8 
REMARK    3  A    between atoms: C_8  and  C_9 
REMARK    4  A    between atoms: C_9  and  N_10 
REMARK    5  A    between atoms: N_10  and  C_11 
ROOT
HETATM    1  C   UNL     1     -43.065  54.141 -55.295  1.00  0.00     0.195 C 
ENDROOT
BRANCH   1   2
HETATM    2  C   UNL     1     -42.797  55.384 -56.153  1.00  0.00     0.235 C 
HETATM    3  N   UNL     1     -43.455  55.359 -57.372  1.00  0.00    -0.326 N 
HETATM    4  H   UNL     1     -43.969  54.502 -57.562  1.00  0.00     0.169 HD
HETATM    5  O   UNL     1     -42.043  56.267 -55.748  1.00  0.00    -0.272 OA
BRANCH   3   6
HETATM    6  C   UNL     1     -43.475  56.367 -58.357  1.00  0.00     0.034 A 
HETATM    7  C   UNL     1     -42.651  56.365 -59.485  1.00  0.00     0.032 A 
HETATM    8  C   UNL     1     -42.713  57.403 -60.425  1.00  0.00     0.039 A 
HETATM    9  C   UNL     1     -43.602  58.459 -60.248  1.00  0.00     0.068 A 
HETATM   10  C   UNL     1     -44.422  58.470 -59.118  1.00  0.00     0.039 A 
HETATM   11  C   UNL     1     -44.363  57.431 -58.180  1.00  0.00     0.032 A 
BRANCH   9  12
HETATM   12  O   UNL     1     -43.760  59.527 -61.088  1.00  0.00    -0.356 OA
HETATM   13  C   UNL     1     -45.040  60.150 -61.094  1.00  0.00     0.210 C 
ENDBRANCH   9  12
ENDBRANCH   3   6
ENDBRANCH   1   2
BRANCH   1  14
HETATM   14  N   UNL     1     -43.003  54.451 -53.839  1.00  0.00    -0.283 NA
HETATM   15  H   UNL     1     -42.863  55.456 -53.719  1.00  0.00     0.128 HD
BRANCH  14  16
HETATM   16  C   UNL     1     -41.868  53.792 -53.257  1.00  0.00     0.019 A 
HETATM   17  C   UNL     1     -41.481  53.987 -51.901  1.00  0.00    -0.005 A 
HETATM   18  C   UNL     1     -40.459  53.166 -51.357  1.00  0.00    -0.024 A 
HETATM   19  C   UNL     1     -42.051  54.965 -51.054  1.00  0.00     0.014 A 
HETATM   20  C   UNL     1     -40.089  53.302 -50.009  1.00  0.00     0.012 A 
HETATM   21  C   UNL     1     -39.819  52.216 -52.167  1.00  0.00     0.012 A 
HETATM   22  C   UNL     1     -40.697  54.252 -49.191  1.00  0.00     0.001 A 
HETATM   23  C   UNL     1     -41.670  55.093 -49.716  1.00  0.00     0.001 A 
HETATM   24  C   UNL     1     -40.173  52.063 -53.504  1.00  0.00     0.003 A 
HETATM   25  C   UNL     1     -41.193  52.840 -54.043  1.00  0.00     0.024 A 
ENDBRANCH  14  16
ENDBRANCH   1  14
TORSDOF 5
ENDMDL
MODEL 4
REMARK VINA RESULT:      -7.6      2.053      2.751
REMARK  5 active torsions:
REMARK  status: ('A' for Active; 'I' for Inactive)
REMARK    1  A    between atoms: O_2  and  C_3 
REMARK    2  A    between atoms: C_6  and  N_7 
REMARK       I    between atoms: N_7  and  C_8 
REMARK    3  A    between atoms: C_8  and  C_9 
REMARK    4  A    between atoms: C_9  and  N_10 
REMARK    5  A    between atoms: N_10  and  C_11 
ROOT
HETATM    1  C   UNL     1     -42.476  58.144 -53.178  1.00  0.00     0.195 C 
ENDROOT
BRANCH   1   2
HETATM    2  C   UNL     1     -42.539  58.171 -54.711  1.00  0.00     0.235 C 
HETATM    3  N   UNL     1     -43.280  57.130 -55.247  1.00  0.00    -0.326 N 
HETATM    4  H   UNL     1     -43.625  56.458 -54.566  1.00  0.00     0.169 HD
HETATM    5  O   UNL     1     -41.947  59.046 -55.341  1.00  0.00    -0.272 OA
BRANCH   3   6
HETATM    6  C   UNL     1     -43.587  56.905 -56.603  1.00  0.00     0.034 A 
HETATM    7  C   UNL     1     -42.977  55.920 -57.383  1.00  0.00     0.032 A 
HETATM    8  C   UNL     1     -43.321  55.752 -58.731  1.00  0.00     0.039 A 
HETATM    9  C   UNL     1     -44.283  56.570 -59.319  1.00  0.00     0.068 A 
HETATM   10  C   UNL     1     -44.890  57.561 -58.545  1.00  0.00     0.039 A 
HETATM   11  C   UNL     1     -44.549  57.727 -57.197  1.00  0.00     0.032 A 
BRANCH   9  12
HETATM   12  O   UNL     1     -44.707  56.507 -60.618  1.00  0.00    -0.356 OA
HETATM   13  C   UNL     1     -45.084  55.224 -61.105  1.00  0.00     0.210 C 
ENDBRANCH   9  12
ENDBRANCH   3   6
ENDBRANCH   1   2
BRANCH   1  14
HETATM   14  N   UNL     1     -41.196  57.561 -52.688  1.00  0.00    -0.283 NA
HETATM   15  H   UNL     1     -40.529  57.529 -53.461  1.00  0.00     0.128 HD
BRANCH  14  16
HETATM   16  C   UNL     1     -41.417  56.209 -52.260  1.00  0.00     0.019 A 
HETATM   17  C   UNL     1     -41.014  55.084 -53.035  1.00  0.00    -0.005 A 
HETATM   18  C   UNL     1     -41.109  53.790 -52.461  1.00  0.00    -0.024 A 
HETATM   19  C   UNL     1     -40.528  55.177 -54.360  1.00  0.00     0.014 A 
HETATM   20  C   UNL     1     -40.675  52.666 -53.184  1.00  0.00     0.012 A 
HETATM   21  C   UNL     1     -41.636  53.633 -51.171  1.00  0.00     0.012 A 
HETATM   22  C   UNL     1     -40.166  52.796 -54.475  1.00  0.00     0.001 A 
HETATM   23  C   UNL     1     -40.104  54.050 -55.068  1.00  0.00     0.001 A 
HETATM   24  C   UNL     1     -42.069  54.734 -50.438  1.00  0.00     0.003 A 
HETATM   25  C   UNL     1     -41.954  56.012 -50.975  1.00  0.00     0.024 A 
ENDBRANCH  14  16
ENDBRANCH   1  14
TORSDOF 5
ENDMDL
MODEL 5
REMARK VINA RESULT:      -7.3     14.126     17.637
REMARK  5 active torsions:
REMARK  status: ('A' for Active; 'I' for Inactive)
REMARK    1  A    between atoms: O_2  and  C_3 
REMARK    2  A    between atoms: C_6  and  N_7 
REMARK       I    between atoms: N_7  and  C_8 
REMARK    3  A    between atoms: C_8  and  C_9 
REMARK    4  A    between atoms: C_9  and  N_10 
REMARK    5  A    between atoms: N_10  and  C_11 
ROOT
HETATM    1  C   UNL     1     -36.367  41.926 -54.960  1.00  0.00     0.195 C 
ENDROOT
BRANCH   1   2
HETATM    2  C   UNL     1     -35.580  41.950 -53.644  1.00  0.00     0.235 C 
HETATM    3  N   UNL     1     -34.873  40.782 -53.408  1.00  0.00    -0.326 N 
HETATM    4  H   UNL     1     -35.021  40.048 -54.096  1.00  0.00     0.169 HD
HETATM    5  O   UNL     1     -35.632  42.933 -52.907  1.00  0.00    -0.272 OA
BRANCH   3   6
HETATM    6  C   UNL     1     -34.004  40.507 -52.334  1.00  0.00     0.034 A 
HETATM    7  C   UNL     1     -34.429  40.346 -51.013  1.00  0.00     0.032 A 
HETATM    8  C   UNL     1     -33.513  40.082 -49.986  1.00  0.00     0.039 A 
HETATM    9  C   UNL     1     -32.153  39.976 -50.268  1.00  0.00     0.068 A 
HETATM   10  C   UNL     1     -31.722  40.143 -51.585  1.00  0.00     0.039 A 
HETATM   11  C   UNL     1     -32.639  40.404 -52.612  1.00  0.00     0.032 A 
BRANCH   9  12
HETATM   12  O   UNL     1     -31.162  39.721 -49.362  1.00  0.00    -0.356 OA
HETATM   13  C   UNL     1     -31.545  39.675 -47.992  1.00  0.00     0.210 C 
ENDBRANCH   9  12
ENDBRANCH   3   6
ENDBRANCH   1   2
BRANCH   1  14
HETATM   14  N   UNL     1     -36.195  40.635 -55.683  1.00  0.00    -0.283 NA
HETATM   15  H   UNL     1     -35.201  40.398 -55.708  1.00  0.00     0.128 HD
BRANCH  14  16
HETATM   16  C   UNL     1     -36.629  40.785 -57.043  1.00  0.00     0.019 A 
HETATM   17  C   UNL     1     -37.285  39.743 -57.758  1.00  0.00    -0.005 A 
HETATM   18  C   UNL     1     -37.838  40.031 -59.032  1.00  0.00    -0.024 A 
HETATM   19  C   UNL     1     -37.412  38.419 -57.276  1.00  0.00     0.014 A 
HETATM   20  C   UNL     1     -38.532  39.036 -59.740  1.00  0.00     0.012 A 
HETATM   21  C   UNL     1     -37.694  41.313 -59.584  1.00  0.00     0.012 A 
HETATM   22  C   UNL     1     -38.671  37.751 -59.220  1.00  0.00     0.001 A 
HETATM   23  C   UNL     1     -38.101  37.438 -57.993  1.00  0.00     0.001 A 
HETATM   24  C   UNL     1     -37.012  42.313 -58.898  1.00  0.00     0.003 A 
HETATM   25  C   UNL     1     -36.490  42.054 -57.635  1.00  0.00     0.024 A 
ENDBRANCH  14  16
ENDBRANCH   1  14
TORSDOF 5
ENDMDL
MODEL 6
REMARK VINA RESULT:      -7.3      3.873      5.615
REMARK  5 active torsions:
REMARK  status: ('A' for Active; 'I' for Inactive)
REMARK    1  A    between atoms: O_2  and  C_3 
REMARK    2  A    between atoms: C_6  and  N_7 
REMARK       I    between atoms: N_7  and  C_8 
REMARK    3  A    between atoms: C_8  and  C_9 
REMARK    4  A    between atoms: C_9  and  N_10 
REMARK    5  A    between atoms: N_10  and  C_11 
ROOT
HETATM    1  C   UNL     1     -41.198  55.623 -54.703  1.00  0.00     0.195 C 
ENDROOT
BRANCH   1   2
HETATM    2  C   UNL     1     -41.775  56.858 -53.999  1.00  0.00     0.235 C 
HETATM    3  N   UNL     1     -43.112  56.720 -53.661  1.00  0.00    -0.326 N 
HETATM    4  H   UNL     1     -43.545  55.857 -53.981  1.00  0.00     0.169 HD
HETATM    5  O   UNL     1     -41.072  57.847 -53.804  1.00  0.00    -0.272 OA
BRANCH   3   6
HETATM    6  C   UNL     1     -43.917  57.633 -52.953  1.00  0.00     0.034 A 
HETATM    7  C   UNL     1     -44.498  58.765 -53.530  1.00  0.00     0.032 A 
HETATM    8  C   UNL     1     -45.283  59.641 -52.768  1.00  0.00     0.039 A 
HETATM    9  C   UNL     1     -45.497  59.396 -51.415  1.00  0.00     0.068 A 
HETATM   10  C   UNL     1     -44.913  58.271 -50.831  1.00  0.00     0.039 A 
HETATM   11  C   UNL     1     -44.131  57.393 -51.594  1.00  0.00     0.032 A 
BRANCH   9  12
HETATM   12  O   UNL     1     -46.240  60.169 -50.565  1.00  0.00    -0.356 OA
HETATM   13  C   UNL     1     -45.539  60.808 -49.505  1.00  0.00     0.210 C 
ENDBRANCH   9  12
ENDBRANCH   3   6
ENDBRANCH   1   2
BRANCH   1  14
HETATM   14  N   UNL     1     -41.920  54.379 -54.317  1.00  0.00    -0.283 NA
HETATM   15  H   UNL     1     -42.710  54.626 -53.718  1.00  0.00     0.128 HD
BRANCH  14  16
HETATM   16  C   UNL     1     -41.049  53.538 -53.546  1.00  0.00     0.019 A 
HETATM   17  C   UNL     1     -40.998  53.587 -52.124  1.00  0.00    -0.005 A 
HETATM   18  C   UNL     1     -40.243  52.604 -51.433  1.00  0.00    -0.024 A 
HETATM   19  C   UNL     1     -41.652  54.571 -51.348  1.00  0.00     0.014 A 
HETATM   20  C   UNL     1     -40.212  52.598 -50.029  1.00  0.00     0.012 A 
HETATM   21  C   UNL     1     -39.528  51.636 -52.154  1.00  0.00     0.012 A 
HETATM   22  C   UNL     1     -40.898  53.561 -49.292  1.00  0.00     0.001 A 
HETATM   23  C   UNL     1     -41.609  54.556 -49.951  1.00  0.00     0.001 A 
HETATM   24  C   UNL     1     -39.548  51.623 -53.546  1.00  0.00     0.003 A 
HETATM   25  C   UNL     1     -40.307  52.562 -54.236  1.00  0.00     0.024 A 
ENDBRANCH  14  16
ENDBRANCH   1  14
TORSDOF 5
ENDMDL
MODEL 7
REMARK VINA RESULT:      -7.2     14.046     15.491
REMARK  5 active torsions:
REMARK  status: ('A' for Active; 'I' for Inactive)
REMARK    1  A    between atoms: O_2  and  C_3 
REMARK    2  A    between atoms: C_6  and  N_7 
REMARK       I    between atoms: N_7  and  C_8 
REMARK    3  A    between atoms: C_8  and  C_9 
REMARK    4  A    between atoms: C_9  and  N_10 
REMARK    5  A    between atoms: N_10  and  C_11 
ROOT
HETATM    1  C   UNL     1     -36.191  42.217 -53.962  1.00  0.00     0.195 C 
ENDROOT
BRANCH   1   2
HETATM    2  C   UNL     1     -35.937  41.790 -55.414  1.00  0.00     0.235 C 
HETATM    3  N   UNL     1     -37.100  41.513 -56.114  1.00  0.00    -0.326 N 
HETATM    4  H   UNL     1     -37.952  41.564 -55.562  1.00  0.00     0.169 HD
HETATM    5  O   UNL     1     -34.788  41.701 -55.843  1.00  0.00    -0.272 OA
BRANCH   3   6
HETATM    6  C   UNL     1     -37.220  41.162 -57.473  1.00  0.00     0.034 A 
HETATM    7  C   UNL     1     -37.068  42.069 -58.525  1.00  0.00     0.032 A 
HETATM    8  C   UNL     1     -37.209  41.658 -59.858  1.00  0.00     0.039 A 
HETATM    9  C   UNL     1     -37.507  40.332 -60.156  1.00  0.00     0.068 A 
HETATM   10  C   UNL     1     -37.667  39.423 -59.109  1.00  0.00     0.039 A 
HETATM   11  C   UNL     1     -37.523  39.832 -57.777  1.00  0.00     0.032 A 
BRANCH   9  12
HETATM   12  O   UNL     1     -37.668  39.806 -61.409  1.00  0.00    -0.356 OA
HETATM   13  C   UNL     1     -38.403  38.591 -61.501  1.00  0.00     0.210 C 
ENDBRANCH   9  12
ENDBRANCH   3   6
ENDBRANCH   1   2
BRANCH   1  14
HETATM   14  N   UNL     1     -34.954  42.130 -53.136  1.00  0.00    -0.283 NA
HETATM   15  H   UNL     1     -34.189  41.787 -53.720  1.00  0.00     0.128 HD
BRANCH  14  16
HETATM   16  C   UNL     1     -35.147  41.172 -52.085  1.00  0.00     0.019 A 
HETATM   17  C   UNL     1     -34.062  40.585 -51.373  1.00  0.00    -0.005 A 
HETATM   18  C   UNL     1     -34.344  39.786 -50.235  1.00  0.00    -0.024 A 
HETATM   19  C   UNL     1     -32.706  40.743 -51.740  1.00  0.00     0.014 A 
HETATM   20  C   UNL     1     -33.292  39.233 -49.485  1.00  0.00     0.012 A 
HETATM   21  C   UNL     1     -35.674  39.550 -49.858  1.00  0.00     0.012 A 
HETATM   22  C   UNL     1     -31.964  39.438 -49.853  1.00  0.00     0.001 A 
HETATM   23  C   UNL     1     -31.670  40.184 -50.988  1.00  0.00     0.001 A 
HETATM   24  C   UNL     1     -36.729  40.090 -50.585  1.00  0.00     0.003 A 
HETATM   25  C   UNL     1     -36.469  40.900 -51.686  1.00  0.00     0.024 A 
ENDBRANCH  14  16
ENDBRANCH   1  14
TORSDOF 5
ENDMDL
MODEL 8
REMARK VINA RESULT:      -7.2      2.336      8.976
REMARK  5 active torsions:
REMARK  status: ('A' for Active; 'I' for Inactive)
REMARK    1  A    between atoms: O_2  and  C_3 
REMARK    2  A    between atoms: C_6  and  N_7 
REMARK       I    between atoms: N_7  and  C_8 
REMARK    3  A    between atoms: C_8  and  C_9 
REMARK    4  A    between atoms: C_9  and  N_10 
REMARK    5  A    between atoms: N_10  and  C_11 
ROOT
HETATM    1  C   UNL     1     -42.627  56.686 -55.380  1.00  0.00     0.195 C 
ENDROOT
BRANCH   1   2
HETATM    2  C   UNL     1     -42.464  55.311 -54.720  1.00  0.00     0.235 C 
HETATM    3  N   UNL     1     -41.160  55.040 -54.337  1.00  0.00    -0.326 N 
HETATM    4  H   UNL     1     -40.482  55.751 -54.600  1.00  0.00     0.169 HD
HETATM    5  O   UNL     1     -43.432  54.564 -54.595  1.00  0.00    -0.272 OA
BRANCH   3   6
HETATM    6  C   UNL     1     -40.686  53.905 -53.650  1.00  0.00     0.034 A 
HETATM    7  C   UNL     1     -40.538  53.843 -52.263  1.00  0.00     0.032 A 
HETATM    8  C   UNL     1     -40.052  52.685 -51.640  1.00  0.00     0.039 A 
HETATM    9  C   UNL     1     -39.706  51.571 -52.400  1.00  0.00     0.068 A 
HETATM   10  C   UNL     1     -39.845  51.631 -53.788  1.00  0.00     0.039 A 
HETATM   11  C   UNL     1     -40.334  52.787 -54.410  1.00  0.00     0.032 A 
BRANCH   9  12
HETATM   12  O   UNL     1     -39.224  50.386 -51.916  1.00  0.00    -0.356 OA
HETATM   13  C   UNL     1     -39.787  49.918 -50.696  1.00  0.00     0.210 C 
ENDBRANCH   9  12
ENDBRANCH   3   6
ENDBRANCH   1   2
BRANCH   1  14
HETATM   14  N   UNL     1     -43.807  56.726 -56.289  1.00  0.00    -0.283 NA
HETATM   15  H   UNL     1     -44.266  55.814 -56.277  1.00  0.00     0.128 HD
BRANCH  14  16
HETATM   16  C   UNL     1     -43.368  56.962 -57.635  1.00  0.00     0.019 A 
HETATM   17  C   UNL     1     -43.057  58.263 -58.123  1.00  0.00    -0.005 A 
HETATM   18  C   UNL     1     -42.463  58.389 -59.405  1.00  0.00    -0.024 A 
HETATM   19  C   UNL     1     -43.316  59.454 -57.404  1.00  0.00     0.014 A 
HETATM   20  C   UNL     1     -42.102  59.656 -59.893  1.00  0.00     0.012 A 
HETATM   21  C   UNL     1     -42.235  57.245 -60.186  1.00  0.00     0.012 A 
HETATM   22  C   UNL     1     -42.337  60.807 -59.144  1.00  0.00     0.001 A 
HETATM   23  C   UNL     1     -42.955  60.708 -57.904  1.00  0.00     0.001 A 
HETATM   24  C   UNL     1     -42.583  55.982 -59.719  1.00  0.00     0.003 A 
HETATM   25  C   UNL     1     -43.139  55.840 -58.452  1.00  0.00     0.024 A 
ENDBRANCH  14  16
ENDBRANCH   1  14
TORSDOF 5
ENDMDL
MODEL 9
REMARK VINA RESULT:      -7.2      4.721      6.164
REMARK  5 active torsions:
REMARK  status: ('A' for Active; 'I' for Inactive)
REMARK    1  A    between atoms: O_2  and  C_3 
REMARK    2  A    between atoms: C_6  and  N_7 
REMARK       I    between atoms: N_7  and  C_8 
REMARK    3  A    between atoms: C_8  and  C_9 
REMARK    4  A    between atoms: C_9  and  N_10 
REMARK    5  A    between atoms: N_10  and  C_11 
ROOT
HETATM    1  C   UNL     1     -43.099  55.489 -53.500  1.00  0.00     0.195 C 
ENDROOT
BRANCH   1   2
HETATM    2  C   UNL     1     -43.757  56.848 -53.230  1.00  0.00     0.235 C 
HETATM    3  N   UNL     1     -43.682  57.238 -51.902  1.00  0.00    -0.326 N 
HETATM    4  H   UNL     1     -43.265  56.551 -51.279  1.00  0.00     0.169 HD
HETATM    5  O   UNL     1     -44.300  57.467 -54.143  1.00  0.00    -0.272 OA
BRANCH   3   6
HETATM    6  C   UNL     1     -44.125  58.450 -51.338  1.00  0.00     0.034 A 
HETATM    7  C   UNL     1     -45.453  58.704 -50.989  1.00  0.00     0.032 A 
HETATM    8  C   UNL     1     -45.832  59.936 -50.438  1.00  0.00     0.039 A 
HETATM    9  C   UNL     1     -44.883  60.934 -50.229  1.00  0.00     0.068 A 
HETATM   10  C   UNL     1     -43.555  60.688 -50.584  1.00  0.00     0.039 A 
HETATM   11  C   UNL     1     -43.176  59.455 -51.131  1.00  0.00     0.032 A 
BRANCH   9  12
HETATM   12  O   UNL     1     -45.122  62.173 -49.701  1.00  0.00    -0.356 OA
HETATM   13  C   UNL     1     -44.731  62.375 -48.348  1.00  0.00     0.210 C 
ENDBRANCH   9  12
ENDBRANCH   3   6
ENDBRANCH   1   2
BRANCH   1  14
HETATM   14  N   UNL     1     -41.612  55.577 -53.455  1.00  0.00    -0.283 NA
HETATM   15  H   UNL     1     -41.235  55.277 -54.355  1.00  0.00     0.128 HD
BRANCH  14  16
HETATM   16  C   UNL     1     -41.108  54.673 -52.461  1.00  0.00     0.019 A 
HETATM   17  C   UNL     1     -40.628  53.372 -52.780  1.00  0.00    -0.005 A 
HETATM   18  C   UNL     1     -39.985  52.613 -51.768  1.00  0.00    -0.024 A 
HETATM   19  C   UNL     1     -40.761  52.777 -54.056  1.00  0.00     0.014 A 
HETATM   20  C   UNL     1     -39.459  51.345 -52.066  1.00  0.00     0.012 A 
HETATM   21  C   UNL     1     -39.874  53.130 -50.469  1.00  0.00     0.012 A 
HETATM   22  C   UNL     1     -39.575  50.802 -53.345  1.00  0.00     0.001 A 
HETATM   23  C   UNL     1     -40.237  51.513 -54.337  1.00  0.00     0.001 A 
HETATM   24  C   UNL     1     -40.386  54.385 -50.155  1.00  0.00     0.003 A 
HETATM   25  C   UNL     1     -40.992  55.153 -51.143  1.00  0.00     0.024 A 
ENDBRANCH  14  16
ENDBRANCH   1  14
TORSDOF 5
ENDMDL
MODEL 10
REMARK VINA RESULT:      -7.1      3.403      4.462
REMARK  5 active torsions:
REMARK  status: ('A' for Active; 'I' for Inactive)
REMARK    1  A    between atoms: O_2  and  C_3 
REMARK    2  A    between atoms: C_6  and  N_7 
REMARK       I    between atoms: N_7  and  C_8 
REMARK    3  A    between atoms: C_8  and  C_9 
REMARK    4  A    between atoms: C_9  and  N_10 
REMARK    5  A    between atoms: N_10  and  C_11 
ROOT
HETATM    1  C   UNL     1     -42.292  54.579 -54.569  1.00  0.00     0.195 C 
ENDROOT
BRANCH   1   2
HETATM    2  C   UNL     1     -42.895  55.946 -54.219  1.00  0.00     0.235 C 
HETATM    3  N   UNL     1     -41.968  56.975 -54.249  1.00  0.00    -0.326 N 
HETATM    4  H   UNL     1     -41.011  56.683 -54.432  1.00  0.00     0.169 HD
HETATM    5  O   UNL     1     -44.085  56.043 -53.928  1.00  0.00    -0.272 OA
BRANCH   3   6
HETATM    6  C   UNL     1     -42.205  58.349 -54.045  1.00  0.00     0.034 A 
HETATM    7  C   UNL     1     -42.358  58.931 -52.784  1.00  0.00     0.032 A 
HETATM    8  C   UNL     1     -42.601  60.304 -52.647  1.00  0.00     0.039 A 
HETATM    9  C   UNL     1     -42.695  61.116 -53.774  1.00  0.00     0.068 A 
HETATM   10  C   UNL     1     -42.550  60.539 -55.037  1.00  0.00     0.039 A 
HETATM   11  C   UNL     1     -42.304  59.167 -55.173  1.00  0.00     0.032 A 
BRANCH   9  12
HETATM   12  O   UNL     1     -42.926  62.464 -53.777  1.00  0.00    -0.356 OA
HETATM   13  C   UNL     1     -44.047  62.921 -53.028  1.00  0.00     0.210 C 
ENDBRANCH   9  12
ENDBRANCH   3   6
ENDBRANCH   1   2
BRANCH   1  14
HETATM   14  N   UNL     1     -40.840  54.516 -54.244  1.00  0.00    -0.283 NA
HETATM   15  H   UNL     1     -40.346  54.062 -55.015  1.00  0.00     0.128 HD
BRANCH  14  16
HETATM   16  C   UNL     1     -40.645  53.702 -53.078  1.00  0.00     0.019 A 
HETATM   17  C   UNL     1     -40.311  52.320 -53.154  1.00  0.00    -0.005 A 
HETATM   18  C   UNL     1     -39.963  51.634 -51.962  1.00  0.00    -0.024 A 
HETATM   19  C   UNL     1     -40.313  51.577 -54.357  1.00  0.00     0.014 A 
HETATM   20  C   UNL     1     -39.583  50.283 -52.012  1.00  0.00     0.012 A 
HETATM   21  C   UNL     1     -39.997  52.307 -50.731  1.00  0.00     0.012 A 
HETATM   22  C   UNL     1     -39.560  49.588 -53.220  1.00  0.00     0.001 A 
HETATM   23  C   UNL     1     -39.937  50.232 -54.392  1.00  0.00     0.001 A 
HETATM   24  C   UNL     1     -40.369  53.646 -50.661  1.00  0.00     0.003 A 
HETATM   25  C   UNL     1     -40.684  54.340 -51.824  1.00  0.00     0.024 A 
ENDBRANCH  14  16
ENDBRANCH   1  14
TORSDOF 5
ENDMDL
