MODEL 1
REMARK VINA RESULT:      -8.0      0.000      0.000
REMARK  9 active torsions:
REMARK  status: ('A' for Active; 'I' for Inactive)
REMARK    1  A    between atoms: C_2  and  N_3 
REMARK       I    between atoms: N_3  and  C_4 
REMARK    2  A    between atoms: C_4  and  C_5 
REMARK    3  A    between atoms: C_5  and  S_6 
REMARK    4  A    between atoms: S_6  and  C_7 
REMARK    5  A    between atoms: N_8  and  C_9 
REMARK    6  A    between atoms: C_9  and  C_10 
REMARK    7  A    between atoms: C_10  and  C_11 
REMARK    8  A    between atoms: C_17  and  C_18 
REMARK    9  A    between atoms: C_21  and  O_22 
ROOT
HETATM    1  C   UNL     1     -43.140  56.058 -55.849  1.00  0.00     0.192 A 
HETATM    2  N   UNL     1     -42.616  55.296 -54.836  1.00  0.00    -0.307 N 
HETATM    3  C   UNL     1     -42.824  56.030 -53.679  1.00  0.00     0.164 A 
HETATM    4  N   UNL     1     -43.475  57.135 -54.009  1.00  0.00    -0.128 NA
HETATM    5  N   UNL     1     -43.673  57.148 -55.359  1.00  0.00    -0.122 NA
ENDROOT
BRANCH   1   6
HETATM    6  S   UNL     1     -43.112  55.618 -57.521  1.00  0.00    -0.081 SA
BRANCH   6   7
HETATM    7  C   UNL     1     -43.001  57.244 -58.320  1.00  0.00     0.185 C 
BRANCH   7   8
HETATM    8  C   UNL     1     -44.219  57.527 -59.184  1.00  0.00     0.227 C 
HETATM    9  N   UNL     1     -45.408  57.068 -58.655  1.00  0.00    -0.361 N 
HETATM   10  H   UNL     1     -45.434  56.937 -57.643  1.00  0.00     0.162 HD
HETATM   11  O   UNL     1     -44.134  58.093 -60.271  1.00  0.00    -0.273 OA
BRANCH   9  12
HETATM   12  C   UNL     1     -46.677  57.288 -59.315  1.00  0.00     0.118 C 
HETATM   13  C   UNL     1     -47.006  56.173 -60.291  1.00  0.00     0.026 C 
ENDBRANCH   9  12
ENDBRANCH   7   8
ENDBRANCH   6   7
ENDBRANCH   1   6
BRANCH   2  14
HETATM   14  C   UNL     1     -42.123  53.936 -54.945  1.00  0.00     0.137 C 
BRANCH  14  15
HETATM   15  C   UNL     1     -40.606  53.826 -54.789  1.00  0.00     0.059 C 
BRANCH  15  16
HETATM   16  C   UNL     1     -40.234  52.704 -53.849  1.00  0.00    -0.057 A 
HETATM   17  C   UNL     1     -40.064  51.401 -54.338  1.00  0.00     0.007 A 
HETATM   18  C   UNL     1     -39.748  50.356 -53.469  1.00  0.00     0.001 A 
HETATM   19  C   UNL     1     -39.599  50.603 -52.105  1.00  0.00     0.000 A 
HETATM   20  C   UNL     1     -39.766  51.894 -51.610  1.00  0.00     0.001 A 
HETATM   21  C   UNL     1     -40.084  52.942 -52.477  1.00  0.00     0.007 A 
ENDBRANCH  15  16
ENDBRANCH  14  15
ENDBRANCH   2  14
BRANCH   3  22
HETATM   22  C   UNL     1     -42.477  55.674 -52.300  1.00  0.00     0.012 A 
HETATM   23  C   UNL     1     -43.171  54.715 -51.558  1.00  0.00     0.018 A 
HETATM   24  C   UNL     1     -42.771  54.392 -50.256  1.00  0.00     0.037 A 
HETATM   25  C   UNL     1     -41.652  54.997 -49.681  1.00  0.00     0.068 A 
HETATM   26  C   UNL     1     -40.944  55.946 -50.413  1.00  0.00     0.037 A 
HETATM   27  C   UNL     1     -41.354  56.277 -51.712  1.00  0.00     0.018 A 
BRANCH  25  28
HETATM   28  O   UNL     1     -41.357  54.578 -48.414  1.00  0.00    -0.356 OA
HETATM   29  C   UNL     1     -40.128  53.882 -48.244  1.00  0.00     0.210 C 
ENDBRANCH  25  28
ENDBRANCH   3  22
TORSDOF 9
ENDMDL
MODEL 2
REMARK VINA RESULT:      -7.7      1.220      2.142
REMARK  9 active torsions:
REMARK  status: ('A' for Active; 'I' for Inactive)
REMARK    1  A    between atoms: C_2  and  N_3 
REMARK       I    between atoms: N_3  and  C_4 
REMARK    2  A    between atoms: C_4  and  C_5 
REMARK    3  A    between atoms: C_5  and  S_6 
REMARK    4  A    between atoms: S_6  and  C_7 
REMARK    5  A    between atoms: N_8  and  C_9 
REMARK    6  A    between atoms: C_9  and  C_10 
REMARK    7  A    between atoms: C_10  and  C_11 
REMARK    8  A    between atoms: C_17  and  C_18 
REMARK    9  A    between atoms: C_21  and  O_22 
ROOT
HETATM    1  C   UNL     1     -43.137  56.021 -55.895  1.00  0.00     0.192 A 
HETATM    2  N   UNL     1     -42.541  55.294 -54.896  1.00  0.00    -0.307 N 
HETATM    3  C   UNL     1     -42.739  56.029 -53.738  1.00  0.00     0.164 A 
HETATM    4  N   UNL     1     -43.451  57.100 -54.051  1.00  0.00    -0.128 NA
HETATM    5  N   UNL     1     -43.701  57.091 -55.394  1.00  0.00    -0.122 NA
ENDROOT
BRANCH   1   6
HETATM    6  S   UNL     1     -43.151  55.567 -57.562  1.00  0.00    -0.081 SA
BRANCH   6   7
HETATM    7  C   UNL     1     -43.947  57.009 -58.322  1.00  0.00     0.185 C 
BRANCH   7   8
HETATM    8  C   UNL     1     -43.275  57.396 -59.630  1.00  0.00     0.227 C 
HETATM    9  N   UNL     1     -42.631  58.615 -59.597  1.00  0.00    -0.361 N 
HETATM   10  H   UNL     1     -42.344  58.952 -58.678  1.00  0.00     0.162 HD
HETATM   11  O   UNL     1     -43.333  56.685 -60.631  1.00  0.00    -0.273 OA
BRANCH   9  12
HETATM   12  C   UNL     1     -41.897  59.126 -60.735  1.00  0.00     0.118 C 
HETATM   13  C   UNL     1     -42.599  60.310 -61.374  1.00  0.00     0.026 C 
ENDBRANCH   9  12
ENDBRANCH   7   8
ENDBRANCH   6   7
ENDBRANCH   1   6
BRANCH   2  14
HETATM   14  C   UNL     1     -41.992  53.957 -55.012  1.00  0.00     0.137 C 
BRANCH  14  15
HETATM   15  C   UNL     1     -40.506  53.878 -54.657  1.00  0.00     0.059 C 
BRANCH  15  16
HETATM   16  C   UNL     1     -40.215  52.676 -53.791  1.00  0.00    -0.057 A 
HETATM   17  C   UNL     1     -40.043  52.829 -52.407  1.00  0.00     0.007 A 
HETATM   18  C   UNL     1     -39.746  51.726 -51.606  1.00  0.00     0.001 A 
HETATM   19  C   UNL     1     -39.619  50.461 -52.178  1.00  0.00     0.000 A 
HETATM   20  C   UNL     1     -39.789  50.300 -53.551  1.00  0.00     0.001 A 
HETATM   21  C   UNL     1     -40.084  51.402 -54.356  1.00  0.00     0.007 A 
ENDBRANCH  15  16
ENDBRANCH  14  15
ENDBRANCH   2  14
BRANCH   3  22
HETATM   22  C   UNL     1     -42.325  55.702 -52.370  1.00  0.00     0.012 A 
HETATM   23  C   UNL     1     -41.235  56.302 -51.734  1.00  0.00     0.018 A 
HETATM   24  C   UNL     1     -40.910  55.974 -50.413  1.00  0.00     0.037 A 
HETATM   25  C   UNL     1     -41.686  55.067 -49.690  1.00  0.00     0.068 A 
HETATM   26  C   UNL     1     -42.782  54.471 -50.306  1.00  0.00     0.037 A 
HETATM   27  C   UNL     1     -43.098  54.790 -51.633  1.00  0.00     0.018 A 
BRANCH  25  28
HETATM   28  O   UNL     1     -41.272  54.851 -48.405  1.00  0.00    -0.356 OA
HETATM   29  C   UNL     1     -40.294  53.836 -48.212  1.00  0.00     0.210 C 
ENDBRANCH  25  28
ENDBRANCH   3  22
TORSDOF 9
ENDMDL
MODEL 3
REMARK VINA RESULT:      -7.5      1.864      2.928
REMARK  9 active torsions:
REMARK  status: ('A' for Active; 'I' for Inactive)
REMARK    1  A    between atoms: C_2  and  N_3 
REMARK       I    between atoms: N_3  and  C_4 
REMARK    2  A    between atoms: C_4  and  C_5 
REMARK    3  A    between atoms: C_5  and  S_6 
REMARK    4  A    between atoms: S_6  and  C_7 
REMARK    5  A    between atoms: N_8  and  C_9 
REMARK    6  A    between atoms: C_9  and  C_10 
REMARK    7  A    between atoms: C_10  and  C_11 
REMARK    8  A    between atoms: C_17  and  C_18 
REMARK    9  A    between atoms: C_21  and  O_22 
ROOT
HETATM    1  C   UNL     1     -43.496  56.745 -55.343  1.00  0.00     0.192 A 
HETATM    2  N   UNL     1     -42.620  56.209 -54.434  1.00  0.00    -0.307 N 
HETATM    3  C   UNL     1     -43.177  56.465 -53.191  1.00  0.00     0.164 A 
HETATM    4  N   UNL     1     -44.335  57.078 -53.382  1.00  0.00    -0.128 NA
HETATM    5  N   UNL     1     -44.533  57.248 -54.722  1.00  0.00    -0.122 NA
ENDROOT
BRANCH   1   6
HETATM    6  S   UNL     1     -43.260  56.733 -57.056  1.00  0.00    -0.081 SA
BRANCH   6   7
HETATM    7  C   UNL     1     -43.482  58.487 -57.463  1.00  0.00     0.185 C 
BRANCH   7   8
HETATM    8  C   UNL     1     -42.536  59.371 -56.665  1.00  0.00     0.227 C 
HETATM    9  N   UNL     1     -42.964  59.644 -55.382  1.00  0.00    -0.361 N 
HETATM   10  H   UNL     1     -43.619  58.979 -54.971  1.00  0.00     0.162 HD
HETATM   11  O   UNL     1     -41.497  59.819 -57.144  1.00  0.00    -0.273 OA
BRANCH   9  12
HETATM   12  C   UNL     1     -42.172  60.431 -54.461  1.00  0.00     0.118 C 
HETATM   13  C   UNL     1     -42.468  60.075 -53.015  1.00  0.00     0.026 C 
ENDBRANCH   9  12
ENDBRANCH   7   8
ENDBRANCH   6   7
ENDBRANCH   1   6
BRANCH   2  14
HETATM   14  C   UNL     1     -41.462  55.389 -54.733  1.00  0.00     0.137 C 
BRANCH  14  15
HETATM   15  C   UNL     1     -41.796  53.908 -54.913  1.00  0.00     0.059 C 
BRANCH  15  16
HETATM   16  C   UNL     1     -40.961  53.044 -53.998  1.00  0.00    -0.057 A 
HETATM   17  C   UNL     1     -40.611  53.503 -52.720  1.00  0.00     0.007 A 
HETATM   18  C   UNL     1     -39.816  52.721 -51.882  1.00  0.00     0.001 A 
HETATM   19  C   UNL     1     -39.364  51.474 -52.311  1.00  0.00     0.000 A 
HETATM   20  C   UNL     1     -39.708  51.009 -53.579  1.00  0.00     0.001 A 
HETATM   21  C   UNL     1     -40.502  51.791 -54.421  1.00  0.00     0.007 A 
ENDBRANCH  15  16
ENDBRANCH  14  15
ENDBRANCH   2  14
BRANCH   3  22
HETATM   22  C   UNL     1     -42.667  56.090 -51.869  1.00  0.00     0.012 A 
HETATM   23  C   UNL     1     -43.182  55.029 -51.121  1.00  0.00     0.018 A 
HETATM   24  C   UNL     1     -42.628  54.696 -49.879  1.00  0.00     0.037 A 
HETATM   25  C   UNL     1     -41.531  55.396 -49.374  1.00  0.00     0.068 A 
HETATM   26  C   UNL     1     -41.001  56.448 -50.115  1.00  0.00     0.037 A 
HETATM   27  C   UNL     1     -41.564  56.788 -51.352  1.00  0.00     0.018 A 
BRANCH  25  28
HETATM   28  O   UNL     1     -41.076  54.958 -48.162  1.00  0.00    -0.356 OA
HETATM   29  C   UNL     1     -40.256  53.794 -48.174  1.00  0.00     0.210 C 
ENDBRANCH  25  28
ENDBRANCH   3  22
TORSDOF 9
ENDMDL
MODEL 4
REMARK VINA RESULT:      -7.4      2.184      6.861
REMARK  9 active torsions:
REMARK  status: ('A' for Active; 'I' for Inactive)
REMARK    1  A    between atoms: C_2  and  N_3 
REMARK       I    between atoms: N_3  and  C_4 
REMARK    2  A    between atoms: C_4  and  C_5 
REMARK    3  A    between atoms: C_5  and  S_6 
REMARK    4  A    between atoms: S_6  and  C_7 
REMARK    5  A    between atoms: N_8  and  C_9 
REMARK    6  A    between atoms: C_9  and  C_10 
REMARK    7  A    between atoms: C_10  and  C_11 
REMARK    8  A    between atoms: C_17  and  C_18 
REMARK    9  A    between atoms: C_21  and  O_22 
ROOT
HETATM    1  C   UNL     1     -43.237  55.190 -52.998  1.00  0.00     0.192 A 
HETATM    2  N   UNL     1     -42.817  54.952 -54.282  1.00  0.00    -0.307 N 
HETATM    3  C   UNL     1     -43.136  56.098 -54.992  1.00  0.00     0.164 A 
HETATM    4  N   UNL     1     -43.671  56.965 -54.147  1.00  0.00    -0.128 NA
HETATM    5  N   UNL     1     -43.729  56.399 -52.906  1.00  0.00    -0.122 NA
ENDROOT
BRANCH   1   6
HETATM    6  S   UNL     1     -43.109  54.057 -51.698  1.00  0.00    -0.081 SA
BRANCH   6   7
HETATM    7  C   UNL     1     -42.945  55.164 -50.270  1.00  0.00     0.185 C 
BRANCH   7   8
HETATM    8  C   UNL     1     -41.665  55.981 -50.337  1.00  0.00     0.227 C 
HETATM    9  N   UNL     1     -41.865  57.333 -50.522  1.00  0.00    -0.361 N 
HETATM   10  H   UNL     1     -42.771  57.702 -50.233  1.00  0.00     0.162 HD
HETATM   11  O   UNL     1     -40.553  55.463 -50.260  1.00  0.00    -0.273 OA
BRANCH   9  12
HETATM   12  C   UNL     1     -40.764  58.272 -50.565  1.00  0.00     0.118 C 
HETATM   13  C   UNL     1     -40.496  58.764 -51.976  1.00  0.00     0.026 C 
ENDBRANCH   9  12
ENDBRANCH   7   8
ENDBRANCH   6   7
ENDBRANCH   1   6
BRANCH   2  14
HETATM   14  C   UNL     1     -42.039  53.816 -54.737  1.00  0.00     0.137 C 
BRANCH  14  15
HETATM   15  C   UNL     1     -40.624  53.776 -54.156  1.00  0.00     0.059 C 
BRANCH  15  16
HETATM   16  C   UNL     1     -40.283  52.398 -53.644  1.00  0.00    -0.057 A 
HETATM   17  C   UNL     1     -39.859  52.222 -52.319  1.00  0.00     0.007 A 
HETATM   18  C   UNL     1     -39.515  50.954 -51.849  1.00  0.00     0.001 A 
HETATM   19  C   UNL     1     -39.592  49.850 -52.698  1.00  0.00     0.000 A 
HETATM   20  C   UNL     1     -40.012  50.015 -54.016  1.00  0.00     0.001 A 
HETATM   21  C   UNL     1     -40.355  51.283 -54.489  1.00  0.00     0.007 A 
ENDBRANCH  15  16
ENDBRANCH  14  15
ENDBRANCH   2  14
BRANCH   3  22
HETATM   22  C   UNL     1     -42.889  56.391 -56.407  1.00  0.00     0.012 A 
HETATM   23  C   UNL     1     -43.157  55.485 -57.436  1.00  0.00     0.018 A 
HETATM   24  C   UNL     1     -42.933  55.837 -58.773  1.00  0.00     0.037 A 
HETATM   25  C   UNL     1     -42.466  57.109 -59.109  1.00  0.00     0.068 A 
HETATM   26  C   UNL     1     -42.206  58.025 -58.094  1.00  0.00     0.037 A 
HETATM   27  C   UNL     1     -42.419  57.667 -56.756  1.00  0.00     0.018 A 
BRANCH  25  28
HETATM   28  O   UNL     1     -42.310  57.329 -60.449  1.00  0.00    -0.356 OA
HETATM   29  C   UNL     1     -41.926  58.643 -60.837  1.00  0.00     0.210 C 
ENDBRANCH  25  28
ENDBRANCH   3  22
TORSDOF 9
ENDMDL
MODEL 5
REMARK VINA RESULT:      -7.3      3.827      6.073
REMARK  9 active torsions:
REMARK  status: ('A' for Active; 'I' for Inactive)
REMARK    1  A    between atoms: C_2  and  N_3 
REMARK       I    between atoms: N_3  and  C_4 
REMARK    2  A    between atoms: C_4  and  C_5 
REMARK    3  A    between atoms: C_5  and  S_6 
REMARK    4  A    between atoms: S_6  and  C_7 
REMARK    5  A    between atoms: N_8  and  C_9 
REMARK    6  A    between atoms: C_9  and  C_10 
REMARK    7  A    between atoms: C_10  and  C_11 
REMARK    8  A    between atoms: C_17  and  C_18 
REMARK    9  A    between atoms: C_21  and  O_22 
ROOT
HETATM    1  C   UNL     1     -44.984  58.665 -51.856  1.00  0.00     0.192 A 
HETATM    2  N   UNL     1     -43.806  57.993 -52.058  1.00  0.00    -0.307 N 
HETATM    3  C   UNL     1     -43.832  56.929 -51.170  1.00  0.00     0.164 A 
HETATM    4  N   UNL     1     -44.987  56.965 -50.525  1.00  0.00    -0.128 NA
HETATM    5  N   UNL     1     -45.704  58.044 -50.956  1.00  0.00    -0.122 NA
ENDROOT
BRANCH   1   6
HETATM    6  S   UNL     1     -45.446  60.106 -52.691  1.00  0.00    -0.081 SA
BRANCH   6   7
HETATM    7  C   UNL     1     -44.382  61.341 -51.895  1.00  0.00     0.185 C 
BRANCH   7   8
HETATM    8  C   UNL     1     -44.232  61.075 -50.406  1.00  0.00     0.227 C 
HETATM    9  N   UNL     1     -45.411  61.158 -49.694  1.00  0.00    -0.361 N 
HETATM   10  H   UNL     1     -46.271  61.017 -50.223  1.00  0.00     0.162 HD
HETATM   11  O   UNL     1     -43.143  60.834 -49.889  1.00  0.00    -0.273 OA
BRANCH   9  12
HETATM   12  C   UNL     1     -45.469  60.891 -48.273  1.00  0.00     0.118 C 
HETATM   13  C   UNL     1     -45.637  62.165 -47.465  1.00  0.00     0.026 C 
ENDBRANCH   9  12
ENDBRANCH   7   8
ENDBRANCH   6   7
ENDBRANCH   1   6
BRANCH   2  14
HETATM   14  C   UNL     1     -42.838  58.246 -53.108  1.00  0.00     0.137 C 
BRANCH  14  15
HETATM   15  C   UNL     1     -43.182  57.556 -54.430  1.00  0.00     0.059 C 
BRANCH  15  16
HETATM   16  C   UNL     1     -42.430  56.256 -54.578  1.00  0.00    -0.057 A 
HETATM   17  C   UNL     1     -43.099  55.097 -55.000  1.00  0.00     0.007 A 
HETATM   18  C   UNL     1     -42.414  53.887 -55.112  1.00  0.00     0.001 A 
HETATM   19  C   UNL     1     -41.056  53.822 -54.804  1.00  0.00     0.000 A 
HETATM   20  C   UNL     1     -40.383  54.967 -54.385  1.00  0.00     0.001 A 
HETATM   21  C   UNL     1     -41.066  56.180 -54.270  1.00  0.00     0.007 A 
ENDBRANCH  15  16
ENDBRANCH  14  15
ENDBRANCH   2  14
BRANCH   3  22
HETATM   22  C   UNL     1     -42.829  55.877 -50.980  1.00  0.00     0.012 A 
HETATM   23  C   UNL     1     -43.003  54.563 -51.422  1.00  0.00     0.018 A 
HETATM   24  C   UNL     1     -41.993  53.610 -51.242  1.00  0.00     0.037 A 
HETATM   25  C   UNL     1     -40.780  53.957 -50.646  1.00  0.00     0.068 A 
HETATM   26  C   UNL     1     -40.589  55.265 -50.212  1.00  0.00     0.037 A 
HETATM   27  C   UNL     1     -41.605  56.215 -50.381  1.00  0.00     0.018 A 
BRANCH  25  28
HETATM   28  O   UNL     1     -39.873  52.939 -50.550  1.00  0.00    -0.356 OA
HETATM   29  C   UNL     1     -39.751  52.086 -51.683  1.00  0.00     0.210 C 
ENDBRANCH  25  28
ENDBRANCH   3  22
TORSDOF 9
ENDMDL
MODEL 6
REMARK VINA RESULT:      -7.1      2.730      6.650
REMARK  9 active torsions:
REMARK  status: ('A' for Active; 'I' for Inactive)
REMARK    1  A    between atoms: C_2  and  N_3 
REMARK       I    between atoms: N_3  and  C_4 
REMARK    2  A    between atoms: C_4  and  C_5 
REMARK    3  A    between atoms: C_5  and  S_6 
REMARK    4  A    between atoms: S_6  and  C_7 
REMARK    5  A    between atoms: N_8  and  C_9 
REMARK    6  A    between atoms: C_9  and  C_10 
REMARK    7  A    between atoms: C_10  and  C_11 
REMARK    8  A    between atoms: C_17  and  C_18 
REMARK    9  A    between atoms: C_21  and  O_22 
ROOT
HETATM    1  C   UNL     1     -41.217  58.775 -53.742  1.00  0.00     0.192 A 
HETATM    2  N   UNL     1     -41.356  57.702 -54.585  1.00  0.00    -0.307 N 
HETATM    3  C   UNL     1     -42.000  58.197 -55.708  1.00  0.00     0.164 A 
HETATM    4  N   UNL     1     -42.179  59.497 -55.535  1.00  0.00    -0.128 NA
HETATM    5  N   UNL     1     -41.688  59.855 -54.312  1.00  0.00    -0.122 NA
ENDROOT
BRANCH   1   6
HETATM    6  S   UNL     1     -40.503  58.700 -52.170  1.00  0.00    -0.081 SA
BRANCH   6   7
HETATM    7  C   UNL     1     -41.837  59.365 -51.135  1.00  0.00     0.185 C 
BRANCH   7   8
HETATM    8  C   UNL     1     -43.111  58.547 -51.271  1.00  0.00     0.227 C 
HETATM    9  N   UNL     1     -42.991  57.238 -50.854  1.00  0.00    -0.361 N 
HETATM   10  H   UNL     1     -42.247  57.041 -50.185  1.00  0.00     0.162 HD
HETATM   11  O   UNL     1     -44.145  59.017 -51.740  1.00  0.00    -0.273 OA
BRANCH   9  12
HETATM   12  C   UNL     1     -44.112  56.323 -50.866  1.00  0.00     0.118 C 
HETATM   13  C   UNL     1     -43.679  54.895 -50.588  1.00  0.00     0.026 C 
ENDBRANCH   9  12
ENDBRANCH   7   8
ENDBRANCH   6   7
ENDBRANCH   1   6
BRANCH   2  14
HETATM   14  C   UNL     1     -40.781  56.383 -54.404  1.00  0.00     0.137 C 
BRANCH  14  15
HETATM   15  C   UNL     1     -41.711  55.409 -53.680  1.00  0.00     0.059 C 
BRANCH  15  16
HETATM   16  C   UNL     1     -41.030  54.085 -53.432  1.00  0.00    -0.057 A 
HETATM   17  C   UNL     1     -40.862  53.170 -54.482  1.00  0.00     0.007 A 
HETATM   18  C   UNL     1     -40.258  51.933 -54.252  1.00  0.00     0.001 A 
HETATM   19  C   UNL     1     -39.816  51.599 -52.973  1.00  0.00     0.000 A 
HETATM   20  C   UNL     1     -39.977  52.502 -51.924  1.00  0.00     0.001 A 
HETATM   21  C   UNL     1     -40.583  53.739 -52.151  1.00  0.00     0.007 A 
ENDBRANCH  15  16
ENDBRANCH  14  15
ENDBRANCH   2  14
BRANCH   3  22
HETATM   22  C   UNL     1     -42.378  57.482 -56.931  1.00  0.00     0.012 A 
HETATM   23  C   UNL     1     -43.086  56.278 -56.928  1.00  0.00     0.018 A 
HETATM   24  C   UNL     1     -43.449  55.660 -58.130  1.00  0.00     0.037 A 
HETATM   25  C   UNL     1     -43.141  56.248 -59.358  1.00  0.00     0.068 A 
HETATM   26  C   UNL     1     -42.446  57.454 -59.376  1.00  0.00     0.037 A 
HETATM   27  C   UNL     1     -42.072  58.064 -58.171  1.00  0.00     0.018 A 
BRANCH  25  28
HETATM   28  O   UNL     1     -43.570  55.553 -60.454  1.00  0.00    -0.356 OA
HETATM   29  C   UNL     1     -44.671  54.673 -60.258  1.00  0.00     0.210 C 
ENDBRANCH  25  28
ENDBRANCH   3  22
TORSDOF 9
ENDMDL
MODEL 7
REMARK VINA RESULT:      -7.1      3.069      6.520
REMARK  9 active torsions:
REMARK  status: ('A' for Active; 'I' for Inactive)
REMARK    1  A    between atoms: C_2  and  N_3 
REMARK       I    between atoms: N_3  and  C_4 
REMARK    2  A    between atoms: C_4  and  C_5 
REMARK    3  A    between atoms: C_5  and  S_6 
REMARK    4  A    between atoms: S_6  and  C_7 
REMARK    5  A    between atoms: N_8  and  C_9 
REMARK    6  A    between atoms: C_9  and  C_10 
REMARK    7  A    between atoms: C_10  and  C_11 
REMARK    8  A    between atoms: C_17  and  C_18 
REMARK    9  A    between atoms: C_21  and  O_22 
ROOT
HETATM    1  C   UNL     1     -43.804  57.435 -53.094  1.00  0.00     0.192 A 
HETATM    2  N   UNL     1     -42.895  56.609 -53.703  1.00  0.00    -0.307 N 
HETATM    3  C   UNL     1     -42.719  55.548 -52.828  1.00  0.00     0.164 A 
HETATM    4  N   UNL     1     -43.521  55.737 -51.793  1.00  0.00    -0.128 NA
HETATM    5  N   UNL     1     -44.198  56.910 -51.962  1.00  0.00    -0.122 NA
ENDROOT
BRANCH   1   6
HETATM    6  S   UNL     1     -44.356  58.937 -53.749  1.00  0.00    -0.081 SA
BRANCH   6   7
HETATM    7  C   UNL     1     -43.769  60.114 -52.498  1.00  0.00     0.185 C 
BRANCH   7   8
HETATM    8  C   UNL     1     -42.344  59.807 -52.067  1.00  0.00     0.227 C 
HETATM    9  N   UNL     1     -42.233  59.333 -50.776  1.00  0.00    -0.361 N 
HETATM   10  H   UNL     1     -43.064  58.892 -50.381  1.00  0.00     0.162 HD
HETATM   11  O   UNL     1     -41.380  59.996 -52.805  1.00  0.00    -0.273 OA
BRANCH   9  12
HETATM   12  C   UNL     1     -40.960  58.944 -50.208  1.00  0.00     0.118 C 
HETATM   13  C   UNL     1     -40.657  57.477 -50.451  1.00  0.00     0.026 C 
ENDBRANCH   9  12
ENDBRANCH   7   8
ENDBRANCH   6   7
ENDBRANCH   1   6
BRANCH   2  14
HETATM   14  C   UNL     1     -42.381  56.737 -55.053  1.00  0.00     0.137 C 
BRANCH  14  15
HETATM   15  C   UNL     1     -43.331  56.188 -56.119  1.00  0.00     0.059 C 
BRANCH  15  16
HETATM   16  C   UNL     1     -42.905  56.616 -57.502  1.00  0.00    -0.057 A 
HETATM   17  C   UNL     1     -43.072  55.749 -58.592  1.00  0.00     0.007 A 
HETATM   18  C   UNL     1     -42.654  56.128 -59.868  1.00  0.00     0.001 A 
HETATM   19  C   UNL     1     -42.065  57.376 -60.067  1.00  0.00     0.000 A 
HETATM   20  C   UNL     1     -41.896  58.245 -58.991  1.00  0.00     0.001 A 
HETATM   21  C   UNL     1     -42.312  57.867 -57.713  1.00  0.00     0.007 A 
ENDBRANCH  15  16
ENDBRANCH  14  15
ENDBRANCH   2  14
BRANCH   3  22
HETATM   22  C   UNL     1     -41.870  54.364 -52.991  1.00  0.00     0.012 A 
HETATM   23  C   UNL     1     -41.866  53.576 -54.145  1.00  0.00     0.018 A 
HETATM   24  C   UNL     1     -41.006  52.477 -54.256  1.00  0.00     0.037 A 
HETATM   25  C   UNL     1     -40.112  52.163 -53.232  1.00  0.00     0.068 A 
HETATM   26  C   UNL     1     -40.096  52.947 -52.082  1.00  0.00     0.037 A 
HETATM   27  C   UNL     1     -40.966  54.039 -51.968  1.00  0.00     0.018 A 
BRANCH  25  28
HETATM   28  O   UNL     1     -39.315  51.079 -53.475  1.00  0.00    -0.356 OA
HETATM   29  C   UNL     1     -39.890  50.025 -54.237  1.00  0.00     0.210 C 
ENDBRANCH  25  28
ENDBRANCH   3  22
TORSDOF 9
ENDMDL
MODEL 8
REMARK VINA RESULT:      -7.1      1.982      4.177
REMARK  9 active torsions:
REMARK  status: ('A' for Active; 'I' for Inactive)
REMARK    1  A    between atoms: C_2  and  N_3 
REMARK       I    between atoms: N_3  and  C_4 
REMARK    2  A    between atoms: C_4  and  C_5 
REMARK    3  A    between atoms: C_5  and  S_6 
REMARK    4  A    between atoms: S_6  and  C_7 
REMARK    5  A    between atoms: N_8  and  C_9 
REMARK    6  A    between atoms: C_9  and  C_10 
REMARK    7  A    between atoms: C_10  and  C_11 
REMARK    8  A    between atoms: C_17  and  C_18 
REMARK    9  A    between atoms: C_21  and  O_22 
ROOT
HETATM    1  C   UNL     1     -44.227  57.854 -56.666  1.00  0.00     0.192 A 
HETATM    2  N   UNL     1     -43.912  56.977 -55.659  1.00  0.00    -0.307 N 
HETATM    3  C   UNL     1     -42.841  56.239 -56.136  1.00  0.00     0.164 A 
HETATM    4  N   UNL     1     -42.530  56.701 -57.338  1.00  0.00    -0.128 NA
HETATM    5  N   UNL     1     -43.393  57.708 -57.663  1.00  0.00    -0.122 NA
ENDROOT
BRANCH   1   6
HETATM    6  S   UNL     1     -45.526  58.993 -56.602  1.00  0.00    -0.081 SA
BRANCH   6   7
HETATM    7  C   UNL     1     -46.869  58.052 -57.380  1.00  0.00     0.185 C 
BRANCH   7   8
HETATM    8  C   UNL     1     -46.603  57.815 -58.858  1.00  0.00     0.227 C 
HETATM    9  N   UNL     1     -46.659  56.490 -59.238  1.00  0.00    -0.361 N 
HETATM   10  H   UNL     1     -47.209  55.870 -58.643  1.00  0.00     0.162 HD
HETATM   11  O   UNL     1     -46.335  58.732 -59.631  1.00  0.00    -0.273 OA
BRANCH   9  12
HETATM   12  C   UNL     1     -46.478  56.078 -60.614  1.00  0.00     0.118 C 
HETATM   13  C   UNL     1     -45.151  55.371 -60.821  1.00  0.00     0.026 C 
ENDBRANCH   9  12
ENDBRANCH   7   8
ENDBRANCH   6   7
ENDBRANCH   1   6
BRANCH   2  14
HETATM   14  C   UNL     1     -44.467  56.966 -54.320  1.00  0.00     0.137 C 
BRANCH  14  15
HETATM   15  C   UNL     1     -43.557  57.622 -53.279  1.00  0.00     0.059 C 
BRANCH  15  16
HETATM   16  C   UNL     1     -42.955  56.591 -52.355  1.00  0.00    -0.057 A 
HETATM   17  C   UNL     1     -41.693  56.809 -51.782  1.00  0.00     0.007 A 
HETATM   18  C   UNL     1     -41.120  55.847 -50.950  1.00  0.00     0.001 A 
HETATM   19  C   UNL     1     -41.801  54.660 -50.682  1.00  0.00     0.000 A 
HETATM   20  C   UNL     1     -43.055  54.435 -51.246  1.00  0.00     0.001 A 
HETATM   21  C   UNL     1     -43.630  55.395 -52.081  1.00  0.00     0.007 A 
ENDBRANCH  15  16
ENDBRANCH  14  15
ENDBRANCH   2  14
BRANCH   3  22
HETATM   22  C   UNL     1     -42.093  55.175 -55.459  1.00  0.00     0.012 A 
HETATM   23  C   UNL     1     -40.781  55.331 -55.002  1.00  0.00     0.018 A 
HETATM   24  C   UNL     1     -40.131  54.289 -54.330  1.00  0.00     0.037 A 
HETATM   25  C   UNL     1     -40.788  53.085 -54.072  1.00  0.00     0.068 A 
HETATM   26  C   UNL     1     -42.098  52.921 -54.511  1.00  0.00     0.037 A 
HETATM   27  C   UNL     1     -42.743  53.960 -55.195  1.00  0.00     0.018 A 
BRANCH  25  28
HETATM   28  O   UNL     1     -40.048  52.160 -53.390  1.00  0.00    -0.356 OA
HETATM   29  C   UNL     1     -39.893  50.888 -54.008  1.00  0.00     0.210 C 
ENDBRANCH  25  28
ENDBRANCH   3  22
TORSDOF 9
ENDMDL
MODEL 9
REMARK VINA RESULT:      -7.0      2.129      3.091
REMARK  9 active torsions:
REMARK  status: ('A' for Active; 'I' for Inactive)
REMARK    1  A    between atoms: C_2  and  N_3 
REMARK       I    between atoms: N_3  and  C_4 
REMARK    2  A    between atoms: C_4  and  C_5 
REMARK    3  A    between atoms: C_5  and  S_6 
REMARK    4  A    between atoms: S_6  and  C_7 
REMARK    5  A    between atoms: N_8  and  C_9 
REMARK    6  A    between atoms: C_9  and  C_10 
REMARK    7  A    between atoms: C_10  and  C_11 
REMARK    8  A    between atoms: C_17  and  C_18 
REMARK    9  A    between atoms: C_21  and  O_22 
ROOT
HETATM    1  C   UNL     1     -42.975  59.367 -56.781  1.00  0.00     0.192 A 
HETATM    2  N   UNL     1     -43.028  58.339 -55.874  1.00  0.00    -0.307 N 
HETATM    3  C   UNL     1     -42.423  58.828 -54.727  1.00  0.00     0.164 A 
HETATM    4  N   UNL     1     -42.082  60.088 -54.952  1.00  0.00    -0.128 NA
HETATM    5  N   UNL     1     -42.430  60.422 -56.229  1.00  0.00    -0.122 NA
ENDROOT
BRANCH   1   6
HETATM    6  S   UNL     1     -43.565  59.275 -58.403  1.00  0.00    -0.081 SA
BRANCH   6   7
HETATM    7  C   UNL     1     -42.198  58.421 -59.236  1.00  0.00     0.185 C 
BRANCH   7   8
HETATM    8  C   UNL     1     -42.668  57.147 -59.920  1.00  0.00     0.227 C 
HETATM    9  N   UNL     1     -44.039  57.006 -59.974  1.00  0.00    -0.361 N 
HETATM   10  H   UNL     1     -44.587  57.864 -59.912  1.00  0.00     0.162 HD
HETATM   11  O   UNL     1     -41.882  56.310 -60.357  1.00  0.00    -0.273 OA
BRANCH   9  12
HETATM   12  C   UNL     1     -44.669  55.879 -60.627  1.00  0.00     0.118 C 
HETATM   13  C   UNL     1     -46.182  55.933 -60.514  1.00  0.00     0.026 C 
ENDBRANCH   9  12
ENDBRANCH   7   8
ENDBRANCH   6   7
ENDBRANCH   1   6
BRANCH   2  14
HETATM   14  C   UNL     1     -43.735  57.083 -56.036  1.00  0.00     0.137 C 
BRANCH  14  15
HETATM   15  C   UNL     1     -42.850  55.951 -56.559  1.00  0.00     0.059 C 
BRANCH  15  16
HETATM   16  C   UNL     1     -42.323  55.103 -55.427  1.00  0.00    -0.057 A 
HETATM   17  C   UNL     1     -43.174  54.706 -54.386  1.00  0.00     0.007 A 
HETATM   18  C   UNL     1     -42.685  53.946 -53.323  1.00  0.00     0.001 A 
HETATM   19  C   UNL     1     -41.342  53.575 -53.290  1.00  0.00     0.000 A 
HETATM   20  C   UNL     1     -40.488  53.964 -54.321  1.00  0.00     0.001 A 
HETATM   21  C   UNL     1     -40.974  54.726 -55.385  1.00  0.00     0.007 A 
ENDBRANCH  15  16
ENDBRANCH  14  15
ENDBRANCH   2  14
BRANCH   3  22
HETATM   22  C   UNL     1     -42.229  58.152 -53.441  1.00  0.00     0.012 A 
HETATM   23  C   UNL     1     -43.271  57.889 -52.548  1.00  0.00     0.018 A 
HETATM   24  C   UNL     1     -43.029  57.208 -51.349  1.00  0.00     0.037 A 
HETATM   25  C   UNL     1     -41.749  56.749 -51.034  1.00  0.00     0.068 A 
HETATM   26  C   UNL     1     -40.704  56.994 -51.920  1.00  0.00     0.037 A 
HETATM   27  C   UNL     1     -40.946  57.687 -53.113  1.00  0.00     0.018 A 
BRANCH  25  28
HETATM   28  O   UNL     1     -41.653  56.082 -49.845  1.00  0.00    -0.356 OA
HETATM   29  C   UNL     1     -42.138  54.744 -49.825  1.00  0.00     0.210 C 
ENDBRANCH  25  28
ENDBRANCH   3  22
TORSDOF 9
ENDMDL
MODEL 10
REMARK VINA RESULT:      -7.0      4.977      7.890
REMARK  9 active torsions:
REMARK  status: ('A' for Active; 'I' for Inactive)
REMARK    1  A    between atoms: C_2  and  N_3 
REMARK       I    between atoms: N_3  and  C_4 
REMARK    2  A    between atoms: C_4  and  C_5 
REMARK    3  A    between atoms: C_5  and  S_6 
REMARK    4  A    between atoms: S_6  and  C_7 
REMARK    5  A    between atoms: N_8  and  C_9 
REMARK    6  A    between atoms: C_9  and  C_10 
REMARK    7  A    between atoms: C_10  and  C_11 
REMARK    8  A    between atoms: C_17  and  C_18 
REMARK    9  A    between atoms: C_21  and  O_22 
ROOT
HETATM    1  C   UNL     1     -45.842  59.616 -51.308  1.00  0.00     0.192 A 
HETATM    2  N   UNL     1     -44.807  59.137 -52.070  1.00  0.00    -0.307 N 
HETATM    3  C   UNL     1     -44.563  57.858 -51.596  1.00  0.00     0.164 A 
HETATM    4  N   UNL     1     -45.445  57.601 -50.643  1.00  0.00    -0.128 NA
HETATM    5  N   UNL     1     -46.242  58.696 -50.468  1.00  0.00    -0.122 NA
ENDROOT
BRANCH   1   6
HETATM    6  S   UNL     1     -46.523  61.198 -51.463  1.00  0.00    -0.081 SA
BRANCH   6   7
HETATM    7  C   UNL     1     -45.614  62.108 -50.183  1.00  0.00     0.185 C 
BRANCH   7   8
HETATM    8  C   UNL     1     -46.136  61.789 -48.791  1.00  0.00     0.227 C 
HETATM    9  N   UNL     1     -45.421  60.814 -48.128  1.00  0.00    -0.361 N 
HETATM   10  H   UNL     1     -44.456  60.674 -48.430  1.00  0.00     0.162 HD
HETATM   11  O   UNL     1     -47.128  62.341 -48.321  1.00  0.00    -0.273 OA
BRANCH   9  12
HETATM   12  C   UNL     1     -45.744  60.411 -46.776  1.00  0.00     0.118 C 
HETATM   13  C   UNL     1     -44.880  61.126 -45.752  1.00  0.00     0.026 C 
ENDBRANCH   9  12
ENDBRANCH   7   8
ENDBRANCH   6   7
ENDBRANCH   1   6
BRANCH   2  14
HETATM   14  C   UNL     1     -44.229  59.774 -53.237  1.00  0.00     0.137 C 
BRANCH  14  15
HETATM   15  C   UNL     1     -43.133  60.786 -52.897  1.00  0.00     0.059 C 
BRANCH  15  16
HETATM   16  C   UNL     1     -41.936  60.107 -52.277  1.00  0.00    -0.057 A 
HETATM   17  C   UNL     1     -41.696  60.218 -50.900  1.00  0.00     0.007 A 
HETATM   18  C   UNL     1     -40.576  59.616 -50.327  1.00  0.00     0.001 A 
HETATM   19  C   UNL     1     -39.685  58.896 -51.123  1.00  0.00     0.000 A 
HETATM   20  C   UNL     1     -39.916  58.780 -52.492  1.00  0.00     0.001 A 
HETATM   21  C   UNL     1     -41.035  59.383 -53.069  1.00  0.00     0.007 A 
ENDBRANCH  15  16
ENDBRANCH  14  15
ENDBRANCH   2  14
BRANCH   3  22
HETATM   22  C   UNL     1     -43.573  56.885 -52.069  1.00  0.00     0.012 A 
HETATM   23  C   UNL     1     -43.557  56.378 -53.371  1.00  0.00     0.018 A 
HETATM   24  C   UNL     1     -42.564  55.477 -53.774  1.00  0.00     0.037 A 
HETATM   25  C   UNL     1     -41.552  55.089 -52.895  1.00  0.00     0.068 A 
HETATM   26  C   UNL     1     -41.549  55.595 -51.599  1.00  0.00     0.037 A 
HETATM   27  C   UNL     1     -42.551  56.487 -51.193  1.00  0.00     0.018 A 
BRANCH  25  28
HETATM   28  O   UNL     1     -40.635  54.222 -53.420  1.00  0.00    -0.356 OA
HETATM   29  C   UNL     1     -41.151  53.086 -54.102  1.00  0.00     0.210 C 
ENDBRANCH  25  28
ENDBRANCH   3  22
TORSDOF 9
ENDMDL
