MODEL 1
REMARK VINA RESULT:      -9.3      0.000      0.000
REMARK  8 active torsions:
REMARK  status: ('A' for Active; 'I' for Inactive)
REMARK    1  A    between atoms: C_4  and  C_5 
REMARK    2  A    between atoms: C_5  and  N_6 
REMARK    3  A    between atoms: C_5  and  C_33 
REMARK    4  A    between atoms: N_10  and  C_11 
REMARK    5  A    between atoms: C_13  and  N_14 
REMARK    6  A    between atoms: N_14  and  C_15 
REMARK    7  A    between atoms: C_22  and  N_23 
REMARK    8  A    between atoms: N_23  and  C_24 
ROOT
HETATM    1  C   UNL     1     -42.331  55.498 -52.639  1.00  0.00     0.756 A 
HETATM    2  N   UNL     1     -41.240  54.794 -52.698  1.00  0.00     0.131 NA
HETATM    3  C   UNL     1     -40.916  54.188 -53.878  1.00  0.00     0.757 A 
HETATM    4  N   UNL     1     -41.764  54.350 -54.926  1.00  0.00    -0.016 N 
HETATM    5  C   UNL     1     -42.848  55.152 -54.844  1.00  0.00     0.735 A 
HETATM    6  N   UNL     1     -43.130  55.750 -53.728  1.00  0.00     0.129 NA
HETATM    7  H   UNL     1     -41.448  54.022 -55.824  1.00  0.00     0.203 HD
ENDROOT
BRANCH   1   8
HETATM    8  N   UNL     1     -42.710  56.073 -51.432  1.00  0.00    -0.210 N 
HETATM    9  C   UNL     1     -44.038  56.689 -51.321  1.00  0.00     0.169 C 
HETATM   10  C   UNL     1     -43.970  58.133 -51.854  1.00  0.00     0.256 C 
HETATM   11  N   UNL     1     -42.899  58.915 -51.077  1.00  0.00    -0.056 N 
HETATM   12  H   UNL     1     -43.173  58.869 -50.091  1.00  0.00     0.281 HD
HETATM   13  C   UNL     1     -41.537  58.209 -51.136  1.00  0.00     0.256 C 
HETATM   14  C   UNL     1     -41.684  56.757 -50.627  1.00  0.00     0.169 C 
BRANCH  11  15
HETATM   15  C   UNL     1     -42.909  60.408 -51.398  1.00  0.00     0.254 C 
BRANCH  15  16
HETATM   16  C   UNL     1     -43.595  61.299 -50.366  1.00  0.00    -0.023 A 
HETATM   17  C   UNL     1     -43.141  62.625 -50.201  1.00  0.00     0.009 A 
HETATM   18  C   UNL     1     -43.708  63.471 -49.245  1.00  0.00     0.001 A 
HETATM   19  C   UNL     1     -44.744  63.016 -48.439  1.00  0.00     0.000 A 
HETATM   20  C   UNL     1     -45.216  61.716 -48.589  1.00  0.00     0.001 A 
HETATM   21  C   UNL     1     -44.648  60.866 -49.543  1.00  0.00     0.009 A 
ENDBRANCH  15  16
BRANCH  15  22
HETATM   22  C   UNL     1     -43.181  60.668 -52.879  1.00  0.00    -0.023 A 
HETATM   23  C   UNL     1     -44.414  61.258 -53.240  1.00  0.00     0.009 A 
HETATM   24  C   UNL     1     -44.715  61.553 -54.571  1.00  0.00     0.001 A 
HETATM   25  C   UNL     1     -43.791  61.270 -55.569  1.00  0.00     0.000 A 
HETATM   26  C   UNL     1     -42.572  60.687 -55.238  1.00  0.00     0.001 A 
HETATM   27  C   UNL     1     -42.268  60.390 -53.906  1.00  0.00     0.009 A 
ENDBRANCH  15  22
ENDBRANCH  11  15
ENDBRANCH   1   8
BRANCH   3  28
HETATM   28  N   UNL     1     -39.808  53.519 -53.850  1.00  0.00    -0.062 NA
BRANCH  28  29
HETATM   29  C   UNL     1     -39.809  52.189 -53.409  1.00  0.00     0.076 A 
HETATM   30  C   UNL     1     -40.025  51.160 -54.328  1.00  0.00     0.032 A 
HETATM   31  C   UNL     1     -40.024  49.827 -53.912  1.00  0.00     0.002 A 
HETATM   32  C   UNL     1     -39.802  49.516 -52.571  1.00  0.00     0.000 A 
HETATM   33  C   UNL     1     -39.564  50.535 -51.650  1.00  0.00     0.002 A 
HETATM   34  C   UNL     1     -39.555  51.866 -52.072  1.00  0.00     0.032 A 
ENDBRANCH  28  29
ENDBRANCH   3  28
BRANCH   5  35
HETATM   35  N   UNL     1     -43.561  55.245 -56.011  1.00  0.00    -0.189 N 
HETATM   36  H   UNL     1     -44.568  55.199 -55.912  1.00  0.00     0.184 HD
BRANCH  35  37
HETATM   37  C   UNL     1     -43.154  55.967 -57.153  1.00  0.00     0.049 A 
HETATM   38  C   UNL     1     -42.592  57.248 -57.060  1.00  0.00     0.030 A 
HETATM   39  C   UNL     1     -42.204  57.946 -58.205  1.00  0.00     0.002 A 
HETATM   40  C   UNL     1     -42.385  57.378 -59.463  1.00  0.00     0.000 A 
HETATM   41  C   UNL     1     -42.946  56.108 -59.574  1.00  0.00     0.002 A 
HETATM   42  C   UNL     1     -43.324  55.405 -58.426  1.00  0.00     0.030 A 
ENDBRANCH  35  37
ENDBRANCH   5  35
TORSDOF 8
ENDMDL
MODEL 2
REMARK VINA RESULT:      -9.1      0.334      5.098
REMARK  8 active torsions:
REMARK  status: ('A' for Active; 'I' for Inactive)
REMARK    1  A    between atoms: C_4  and  C_5 
REMARK    2  A    between atoms: C_5  and  N_6 
REMARK    3  A    between atoms: C_5  and  C_33 
REMARK    4  A    between atoms: N_10  and  C_11 
REMARK    5  A    between atoms: C_13  and  N_14 
REMARK    6  A    between atoms: N_14  and  C_15 
REMARK    7  A    between atoms: C_22  and  N_23 
REMARK    8  A    between atoms: N_23  and  C_24 
ROOT
HETATM    1  C   UNL     1     -42.388  55.679 -52.508  1.00  0.00     0.756 A 
HETATM    2  N   UNL     1     -43.148  55.928 -53.531  1.00  0.00     0.131 NA
HETATM    3  C   UNL     1     -42.833  55.363 -54.734  1.00  0.00     0.757 A 
HETATM    4  N   UNL     1     -41.729  54.574 -54.791  1.00  0.00    -0.016 N 
HETATM    5  C   UNL     1     -41.009  54.281 -53.687  1.00  0.00     0.735 A 
HETATM    6  N   UNL     1     -41.335  54.797 -52.542  1.00  0.00     0.129 NA
HETATM    7  H   UNL     1     -41.585  54.050 -55.639  1.00  0.00     0.203 HD
ENDROOT
BRANCH   1   8
HETATM    8  N   UNL     1     -42.657  56.293 -51.290  1.00  0.00    -0.210 N 
HETATM    9  C   UNL     1     -43.980  56.890 -51.069  1.00  0.00     0.169 C 
HETATM   10  C   UNL     1     -43.996  58.313 -51.659  1.00  0.00     0.256 C 
HETATM   11  N   UNL     1     -42.870  59.143 -51.021  1.00  0.00    -0.056 N 
HETATM   12  H   UNL     1     -43.043  59.129 -50.012  1.00  0.00     0.281 HD
HETATM   13  C   UNL     1     -41.506  58.460 -51.191  1.00  0.00     0.256 C 
HETATM   14  C   UNL     1     -41.570  57.025 -50.617  1.00  0.00     0.169 C 
BRANCH  11  15
HETATM   15  C   UNL     1     -42.943  60.623 -51.393  1.00  0.00     0.254 C 
BRANCH  15  16
HETATM   16  C   UNL     1     -43.511  61.545 -50.318  1.00  0.00    -0.023 A 
HETATM   17  C   UNL     1     -43.156  62.911 -50.335  1.00  0.00     0.009 A 
HETATM   18  C   UNL     1     -43.617  63.790 -49.353  1.00  0.00     0.001 A 
HETATM   19  C   UNL     1     -44.446  63.329 -48.338  1.00  0.00     0.000 A 
HETATM   20  C   UNL     1     -44.819  61.989 -48.305  1.00  0.00     0.001 A 
HETATM   21  C   UNL     1     -44.357  61.106 -49.285  1.00  0.00     0.009 A 
ENDBRANCH  15  16
BRANCH  15  22
HETATM   22  C   UNL     1     -43.400  60.822 -52.837  1.00  0.00    -0.023 A 
HETATM   23  C   UNL     1     -42.438  60.715 -53.866  1.00  0.00     0.009 A 
HETATM   24  C   UNL     1     -42.792  60.852 -55.210  1.00  0.00     0.001 A 
HETATM   25  C   UNL     1     -44.116  61.096 -55.555  1.00  0.00     0.000 A 
HETATM   26  C   UNL     1     -45.081  61.209 -54.559  1.00  0.00     0.001 A 
HETATM   27  C   UNL     1     -44.729  61.072 -53.213  1.00  0.00     0.009 A 
ENDBRANCH  15  22
ENDBRANCH  11  15
ENDBRANCH   1   8
BRANCH   3  28
HETATM   28  N   UNL     1     -43.651  55.654 -55.693  1.00  0.00    -0.062 NA
BRANCH  28  29
HETATM   29  C   UNL     1     -43.174  56.300 -56.842  1.00  0.00     0.076 A 
HETATM   30  C   UNL     1     -42.616  57.575 -56.733  1.00  0.00     0.032 A 
HETATM   31  C   UNL     1     -42.130  58.234 -57.863  1.00  0.00     0.002 A 
HETATM   32  C   UNL     1     -42.195  57.617 -59.112  1.00  0.00     0.000 A 
HETATM   33  C   UNL     1     -42.731  56.336 -59.228  1.00  0.00     0.002 A 
HETATM   34  C   UNL     1     -43.207  55.675 -58.094  1.00  0.00     0.032 A 
ENDBRANCH  28  29
ENDBRANCH   3  28
BRANCH   5  35
HETATM   35  N   UNL     1     -39.961  53.427 -53.915  1.00  0.00    -0.189 N 
HETATM   36  H   UNL     1     -39.059  53.867 -54.049  1.00  0.00     0.184 HD
BRANCH  35  37
HETATM   37  C   UNL     1     -39.861  52.114 -53.408  1.00  0.00     0.049 A 
HETATM   38  C   UNL     1     -39.603  51.859 -52.054  1.00  0.00     0.030 A 
HETATM   39  C   UNL     1     -39.501  50.551 -51.576  1.00  0.00     0.002 A 
HETATM   40  C   UNL     1     -39.642  49.476 -52.450  1.00  0.00     0.000 A 
HETATM   41  C   UNL     1     -39.894  49.711 -53.799  1.00  0.00     0.002 A 
HETATM   42  C   UNL     1     -40.008  51.022 -54.274  1.00  0.00     0.030 A 
ENDBRANCH  35  37
ENDBRANCH   5  35
TORSDOF 8
ENDMDL
MODEL 3
REMARK VINA RESULT:      -9.0      2.371      8.862
REMARK  8 active torsions:
REMARK  status: ('A' for Active; 'I' for Inactive)
REMARK    1  A    between atoms: C_4  and  C_5 
REMARK    2  A    between atoms: C_5  and  N_6 
REMARK    3  A    between atoms: C_5  and  C_33 
REMARK    4  A    between atoms: N_10  and  C_11 
REMARK    5  A    between atoms: C_13  and  N_14 
REMARK    6  A    between atoms: N_14  and  C_15 
REMARK    7  A    between atoms: C_22  and  N_23 
REMARK    8  A    between atoms: N_23  and  C_24 
ROOT
HETATM    1  C   UNL     1     -43.480  57.049 -55.246  1.00  0.00     0.756 A 
HETATM    2  N   UNL     1     -43.853  57.812 -56.229  1.00  0.00     0.131 NA
HETATM    3  C   UNL     1     -43.955  59.156 -56.011  1.00  0.00     0.757 A 
HETATM    4  N   UNL     1     -43.666  59.619 -54.768  1.00  0.00    -0.016 N 
HETATM    5  C   UNL     1     -43.209  58.800 -53.795  1.00  0.00     0.735 A 
HETATM    6  N   UNL     1     -43.084  57.528 -54.021  1.00  0.00     0.129 NA
HETATM    7  H   UNL     1     -43.605  60.617 -54.654  1.00  0.00     0.203 HD
ENDROOT
BRANCH   1   8
HETATM    8  N   UNL     1     -43.428  55.672 -55.431  1.00  0.00    -0.210 N 
HETATM    9  C   UNL     1     -43.954  54.791 -54.380  1.00  0.00     0.169 C 
HETATM   10  C   UNL     1     -42.864  54.573 -53.313  1.00  0.00     0.256 C 
HETATM   11  N   UNL     1     -41.605  53.996 -53.979  1.00  0.00    -0.056 N 
HETATM   12  H   UNL     1     -41.897  53.125 -54.432  1.00  0.00     0.281 HD
HETATM   13  C   UNL     1     -41.121  54.889 -55.129  1.00  0.00     0.256 C 
HETATM   14  C   UNL     1     -42.271  55.101 -56.140  1.00  0.00     0.169 C 
BRANCH  11  15
HETATM   15  C   UNL     1     -40.550  53.554 -52.966  1.00  0.00     0.254 C 
BRANCH  15  16
HETATM   16  C   UNL     1     -40.142  52.086 -53.038  1.00  0.00    -0.023 A 
HETATM   17  C   UNL     1     -40.311  51.390 -54.254  1.00  0.00     0.009 A 
HETATM   18  C   UNL     1     -39.989  50.035 -54.364  1.00  0.00     0.001 A 
HETATM   19  C   UNL     1     -39.485  49.348 -53.267  1.00  0.00     0.000 A 
HETATM   20  C   UNL     1     -39.299  50.014 -52.060  1.00  0.00     0.001 A 
HETATM   21  C   UNL     1     -39.624  51.369 -51.946  1.00  0.00     0.009 A 
ENDBRANCH  15  16
BRANCH  15  22
HETATM   22  C   UNL     1     -40.790  54.176 -51.591  1.00  0.00    -0.023 A 
HETATM   23  C   UNL     1     -40.802  55.585 -51.485  1.00  0.00     0.009 A 
HETATM   24  C   UNL     1     -41.048  56.219 -50.266  1.00  0.00     0.001 A 
HETATM   25  C   UNL     1     -41.292  55.460 -49.128  1.00  0.00     0.000 A 
HETATM   26  C   UNL     1     -41.282  54.072 -49.207  1.00  0.00     0.001 A 
HETATM   27  C   UNL     1     -41.036  53.434 -50.426  1.00  0.00     0.009 A 
ENDBRANCH  15  22
ENDBRANCH  11  15
ENDBRANCH   1   8
BRANCH   3  28
HETATM   28  N   UNL     1     -44.319  59.840 -57.048  1.00  0.00    -0.062 NA
BRANCH  28  29
HETATM   29  C   UNL     1     -43.357  60.269 -57.972  1.00  0.00     0.076 A 
HETATM   30  C   UNL     1     -43.411  59.804 -59.287  1.00  0.00     0.032 A 
HETATM   31  C   UNL     1     -42.466  60.224 -60.226  1.00  0.00     0.002 A 
HETATM   32  C   UNL     1     -41.462  61.117 -59.853  1.00  0.00     0.000 A 
HETATM   33  C   UNL     1     -41.413  61.603 -58.547  1.00  0.00     0.002 A 
HETATM   34  C   UNL     1     -42.366  61.189 -57.614  1.00  0.00     0.032 A 
ENDBRANCH  28  29
ENDBRANCH   3  28
BRANCH   5  35
HETATM   35  N   UNL     1     -42.914  59.442 -52.620  1.00  0.00    -0.189 N 
HETATM   36  H   UNL     1     -43.684  59.535 -51.968  1.00  0.00     0.184 HD
BRANCH  35  37
HETATM   37  C   UNL     1     -41.654  59.429 -51.985  1.00  0.00     0.049 A 
HETATM   38  C   UNL     1     -41.493  59.825 -50.650  1.00  0.00     0.030 A 
HETATM   39  C   UNL     1     -40.234  59.812 -50.044  1.00  0.00     0.002 A 
HETATM   40  C   UNL     1     -39.115  59.414 -50.771  1.00  0.00     0.000 A 
HETATM   41  C   UNL     1     -39.257  59.022 -52.099  1.00  0.00     0.002 A 
HETATM   42  C   UNL     1     -40.519  59.025 -52.701  1.00  0.00     0.030 A 
ENDBRANCH  35  37
ENDBRANCH   5  35
TORSDOF 8
ENDMDL
MODEL 4
REMARK VINA RESULT:      -9.0      2.291      7.798
REMARK  8 active torsions:
REMARK  status: ('A' for Active; 'I' for Inactive)
REMARK    1  A    between atoms: C_4  and  C_5 
REMARK    2  A    between atoms: C_5  and  N_6 
REMARK    3  A    between atoms: C_5  and  C_33 
REMARK    4  A    between atoms: N_10  and  C_11 
REMARK    5  A    between atoms: C_13  and  N_14 
REMARK    6  A    between atoms: N_14  and  C_15 
REMARK    7  A    between atoms: C_22  and  N_23 
REMARK    8  A    between atoms: N_23  and  C_24 
ROOT
HETATM    1  C   UNL     1     -43.477  57.049 -55.304  1.00  0.00     0.756 A 
HETATM    2  N   UNL     1     -43.331  57.556 -54.117  1.00  0.00     0.131 NA
HETATM    3  C   UNL     1     -43.322  58.915 -53.982  1.00  0.00     0.757 A 
HETATM    4  N   UNL     1     -43.460  59.662 -55.108  1.00  0.00    -0.016 N 
HETATM    5  C   UNL     1     -43.686  59.094 -56.313  1.00  0.00     0.735 A 
HETATM    6  N   UNL     1     -43.724  57.802 -56.425  1.00  0.00     0.129 NA
HETATM    7  H   UNL     1     -43.596  60.652 -54.985  1.00  0.00     0.203 HD
ENDROOT
BRANCH   1   8
HETATM    8  N   UNL     1     -43.427  55.670 -55.469  1.00  0.00    -0.210 N 
HETATM    9  C   UNL     1     -43.962  54.804 -54.410  1.00  0.00     0.169 C 
HETATM   10  C   UNL     1     -42.879  54.598 -53.333  1.00  0.00     0.256 C 
HETATM   11  N   UNL     1     -41.617  54.009 -53.983  1.00  0.00    -0.056 N 
HETATM   12  H   UNL     1     -41.908  53.133 -54.427  1.00  0.00     0.281 HD
HETATM   13  C   UNL     1     -41.124  54.885 -55.142  1.00  0.00     0.256 C 
HETATM   14  C   UNL     1     -42.266  55.086 -56.164  1.00  0.00     0.169 C 
BRANCH  11  15
HETATM   15  C   UNL     1     -40.570  53.579 -52.958  1.00  0.00     0.254 C 
BRANCH  15  16
HETATM   16  C   UNL     1     -40.159  52.110 -53.012  1.00  0.00    -0.023 A 
HETATM   17  C   UNL     1     -40.360  51.390 -54.209  1.00  0.00     0.009 A 
HETATM   18  C   UNL     1     -40.037  50.034 -54.300  1.00  0.00     0.001 A 
HETATM   19  C   UNL     1     -39.502  49.369 -53.203  1.00  0.00     0.000 A 
HETATM   20  C   UNL     1     -39.285  50.060 -52.016  1.00  0.00     0.001 A 
HETATM   21  C   UNL     1     -39.610  51.416 -51.920  1.00  0.00     0.009 A 
ENDBRANCH  15  16
BRANCH  15  22
HETATM   22  C   UNL     1     -40.821  54.214 -51.591  1.00  0.00    -0.023 A 
HETATM   23  C   UNL     1     -40.990  53.362 -50.477  1.00  0.00     0.009 A 
HETATM   24  C   UNL     1     -41.190  53.874 -49.194  1.00  0.00     0.001 A 
HETATM   25  C   UNL     1     -41.222  55.250 -48.995  1.00  0.00     0.000 A 
HETATM   26  C   UNL     1     -41.061  56.109 -50.077  1.00  0.00     0.001 A 
HETATM   27  C   UNL     1     -40.861  55.598 -51.363  1.00  0.00     0.009 A 
ENDBRANCH  15  22
ENDBRANCH  11  15
ENDBRANCH   1   8
BRANCH   3  28
HETATM   28  N   UNL     1     -43.185  59.332 -52.765  1.00  0.00    -0.062 NA
BRANCH  28  29
HETATM   29  C   UNL     1     -41.917  59.336 -52.170  1.00  0.00     0.076 A 
HETATM   30  C   UNL     1     -41.789  59.680 -50.823  1.00  0.00     0.032 A 
HETATM   31  C   UNL     1     -40.535  59.685 -50.208  1.00  0.00     0.002 A 
HETATM   32  C   UNL     1     -39.399  59.340 -50.940  1.00  0.00     0.000 A 
HETATM   33  C   UNL     1     -39.519  58.976 -52.280  1.00  0.00     0.002 A 
HETATM   34  C   UNL     1     -40.775  58.961 -52.888  1.00  0.00     0.032 A 
ENDBRANCH  28  29
ENDBRANCH   3  28
BRANCH   5  35
HETATM   35  N   UNL     1     -43.856  59.997 -57.330  1.00  0.00    -0.189 N 
HETATM   36  H   UNL     1     -44.089  60.940 -57.044  1.00  0.00     0.184 HD
BRANCH  35  37
HETATM   37  C   UNL     1     -43.192  59.949 -58.574  1.00  0.00     0.049 A 
HETATM   38  C   UNL     1     -43.096  58.765 -59.319  1.00  0.00     0.030 A 
HETATM   39  C   UNL     1     -42.425  58.739 -60.544  1.00  0.00     0.002 A 
HETATM   40  C   UNL     1     -41.830  59.897 -61.037  1.00  0.00     0.000 A 
HETATM   41  C   UNL     1     -41.912  61.081 -60.308  1.00  0.00     0.002 A 
HETATM   42  C   UNL     1     -42.592  61.107 -59.087  1.00  0.00     0.030 A 
ENDBRANCH  35  37
ENDBRANCH   5  35
TORSDOF 8
ENDMDL
MODEL 5
REMARK VINA RESULT:      -8.9      1.758      6.163
REMARK  8 active torsions:
REMARK  status: ('A' for Active; 'I' for Inactive)
REMARK    1  A    between atoms: C_4  and  C_5 
REMARK    2  A    between atoms: C_5  and  N_6 
REMARK    3  A    between atoms: C_5  and  C_33 
REMARK    4  A    between atoms: N_10  and  C_11 
REMARK    5  A    between atoms: C_13  and  N_14 
REMARK    6  A    between atoms: N_14  and  C_15 
REMARK    7  A    between atoms: C_22  and  N_23 
REMARK    8  A    between atoms: N_23  and  C_24 
ROOT
HETATM    1  C   UNL     1     -44.030  56.458 -54.724  1.00  0.00     0.756 A 
HETATM    2  N   UNL     1     -43.843  56.869 -55.942  1.00  0.00     0.131 NA
HETATM    3  C   UNL     1     -43.036  56.135 -56.764  1.00  0.00     0.757 A 
HETATM    4  N   UNL     1     -42.466  55.014 -56.253  1.00  0.00    -0.016 N 
HETATM    5  C   UNL     1     -42.747  54.582 -55.004  1.00  0.00     0.735 A 
HETATM    6  N   UNL     1     -43.540  55.269 -54.242  1.00  0.00     0.129 NA
HETATM    7  H   UNL     1     -41.992  54.406 -56.901  1.00  0.00     0.203 HD
ENDROOT
BRANCH   1   8
HETATM    8  N   UNL     1     -44.798  57.223 -53.855  1.00  0.00    -0.210 N 
HETATM    9  C   UNL     1     -45.127  58.606 -54.221  1.00  0.00     0.169 C 
HETATM   10  C   UNL     1     -43.959  59.527 -53.815  1.00  0.00     0.256 C 
HETATM   11  N   UNL     1     -43.686  59.374 -52.311  1.00  0.00    -0.056 N 
HETATM   12  H   UNL     1     -44.563  59.612 -51.837  1.00  0.00     0.281 HD
HETATM   13  C   UNL     1     -43.429  57.908 -51.935  1.00  0.00     0.256 C 
HETATM   14  C   UNL     1     -44.615  57.036 -52.405  1.00  0.00     0.169 C 
BRANCH  11  15
HETATM   15  C   UNL     1     -42.686  60.400 -51.784  1.00  0.00     0.254 C 
BRANCH  15  16
HETATM   16  C   UNL     1     -41.259  59.893 -51.594  1.00  0.00    -0.023 A 
HETATM   17  C   UNL     1     -40.657  60.013 -50.324  1.00  0.00     0.009 A 
HETATM   18  C   UNL     1     -39.341  59.599 -50.105  1.00  0.00     0.001 A 
HETATM   19  C   UNL     1     -38.600  59.051 -51.145  1.00  0.00     0.000 A 
HETATM   20  C   UNL     1     -39.175  58.913 -52.404  1.00  0.00     0.001 A 
HETATM   21  C   UNL     1     -40.491  59.329 -52.627  1.00  0.00     0.009 A 
ENDBRANCH  15  16
BRANCH  15  22
HETATM   22  C   UNL     1     -43.296  61.278 -50.692  1.00  0.00    -0.023 A 
HETATM   23  C   UNL     1     -42.959  62.650 -50.668  1.00  0.00     0.009 A 
HETATM   24  C   UNL     1     -43.505  63.516 -49.719  1.00  0.00     0.001 A 
HETATM   25  C   UNL     1     -44.404  63.031 -48.776  1.00  0.00     0.000 A 
HETATM   26  C   UNL     1     -44.749  61.684 -48.779  1.00  0.00     0.001 A 
HETATM   27  C   UNL     1     -44.203  60.814 -49.727  1.00  0.00     0.009 A 
ENDBRANCH  15  22
ENDBRANCH  11  15
ENDBRANCH   1   8
BRANCH   3  28
HETATM   28  N   UNL     1     -42.917  56.610 -57.962  1.00  0.00    -0.062 NA
BRANCH  28  29
HETATM   29  C   UNL     1     -43.895  56.325 -58.924  1.00  0.00     0.076 A 
HETATM   30  C   UNL     1     -43.934  55.059 -59.510  1.00  0.00     0.032 A 
HETATM   31  C   UNL     1     -44.904  54.751 -60.467  1.00  0.00     0.002 A 
HETATM   32  C   UNL     1     -45.846  55.711 -60.839  1.00  0.00     0.000 A 
HETATM   33  C   UNL     1     -45.827  56.971 -60.243  1.00  0.00     0.002 A 
HETATM   34  C   UNL     1     -44.862  57.271 -59.280  1.00  0.00     0.032 A 
ENDBRANCH  28  29
ENDBRANCH   3  28
BRANCH   5  35
HETATM   35  N   UNL     1     -42.128  53.405 -54.670  1.00  0.00    -0.189 N 
HETATM   36  H   UNL     1     -41.792  52.851 -55.449  1.00  0.00     0.184 HD
BRANCH  35  37
HETATM   37  C   UNL     1     -41.400  53.182 -53.482  1.00  0.00     0.049 A 
HETATM   38  C   UNL     1     -41.724  53.828 -52.281  1.00  0.00     0.030 A 
HETATM   39  C   UNL     1     -40.983  53.599 -51.119  1.00  0.00     0.002 A 
HETATM   40  C   UNL     1     -39.896  52.728 -51.147  1.00  0.00     0.000 A 
HETATM   41  C   UNL     1     -39.558  52.082 -52.332  1.00  0.00     0.002 A 
HETATM   42  C   UNL     1     -40.307  52.304 -53.492  1.00  0.00     0.030 A 
ENDBRANCH  35  37
ENDBRANCH   5  35
TORSDOF 8
ENDMDL
MODEL 6
REMARK VINA RESULT:      -8.8      2.466      9.066
REMARK  8 active torsions:
REMARK  status: ('A' for Active; 'I' for Inactive)
REMARK    1  A    between atoms: C_4  and  C_5 
REMARK    2  A    between atoms: C_5  and  N_6 
REMARK    3  A    between atoms: C_5  and  C_33 
REMARK    4  A    between atoms: N_10  and  C_11 
REMARK    5  A    between atoms: C_13  and  N_14 
REMARK    6  A    between atoms: N_14  and  C_15 
REMARK    7  A    between atoms: C_22  and  N_23 
REMARK    8  A    between atoms: N_23  and  C_24 
ROOT
HETATM    1  C   UNL     1     -44.601  59.500 -53.186  1.00  0.00     0.756 A 
HETATM    2  N   UNL     1     -45.315  60.342 -52.503  1.00  0.00     0.131 NA
HETATM    3  C   UNL     1     -45.846  59.935 -51.312  1.00  0.00     0.757 A 
HETATM    4  N   UNL     1     -45.600  58.661 -50.913  1.00  0.00    -0.016 N 
HETATM    5  C   UNL     1     -44.788  57.842 -51.617  1.00  0.00     0.735 A 
HETATM    6  N   UNL     1     -44.262  58.248 -52.731  1.00  0.00     0.129 NA
HETATM    7  H   UNL     1     -45.871  58.416 -49.975  1.00  0.00     0.203 HD
ENDROOT
BRANCH   1   8
HETATM    8  N   UNL     1     -44.103  59.874 -54.428  1.00  0.00    -0.210 N 
HETATM    9  C   UNL     1     -44.836  59.483 -55.639  1.00  0.00     0.169 C 
HETATM   10  C   UNL     1     -44.427  58.051 -56.035  1.00  0.00     0.256 C 
HETATM   11  N   UNL     1     -42.904  57.991 -56.234  1.00  0.00    -0.056 N 
HETATM   12  H   UNL     1     -42.685  58.682 -56.958  1.00  0.00     0.281 HD
HETATM   13  C   UNL     1     -42.158  58.484 -54.987  1.00  0.00     0.256 C 
HETATM   14  C   UNL     1     -42.643  59.905 -54.620  1.00  0.00     0.169 C 
BRANCH  11  15
HETATM   15  C   UNL     1     -42.438  56.664 -56.830  1.00  0.00     0.254 C 
BRANCH  15  16
HETATM   16  C   UNL     1     -43.092  56.269 -58.150  1.00  0.00    -0.023 A 
HETATM   17  C   UNL     1     -43.163  57.223 -59.188  1.00  0.00     0.009 A 
HETATM   18  C   UNL     1     -43.785  56.926 -60.403  1.00  0.00     0.001 A 
HETATM   19  C   UNL     1     -44.343  55.670 -60.612  1.00  0.00     0.000 A 
HETATM   20  C   UNL     1     -44.276  54.710 -59.608  1.00  0.00     0.001 A 
HETATM   21  C   UNL     1     -43.658  55.005 -58.390  1.00  0.00     0.009 A 
ENDBRANCH  15  16
BRANCH  15  22
HETATM   22  C   UNL     1     -42.262  55.592 -55.756  1.00  0.00    -0.023 A 
HETATM   23  C   UNL     1     -40.978  55.032 -55.571  1.00  0.00     0.009 A 
HETATM   24  C   UNL     1     -40.739  54.071 -54.587  1.00  0.00     0.001 A 
HETATM   25  C   UNL     1     -41.776  53.653 -53.762  1.00  0.00     0.000 A 
HETATM   26  C   UNL     1     -43.050  54.188 -53.926  1.00  0.00     0.001 A 
HETATM   27  C   UNL     1     -43.292  55.149 -54.912  1.00  0.00     0.009 A 
ENDBRANCH  15  22
ENDBRANCH  11  15
ENDBRANCH   1   8
BRANCH   3  28
HETATM   28  N   UNL     1     -46.532  60.842 -50.694  1.00  0.00    -0.062 NA
BRANCH  28  29
HETATM   29  C   UNL     1     -45.899  61.683 -49.770  1.00  0.00     0.076 A 
HETATM   30  C   UNL     1     -45.670  63.020 -50.100  1.00  0.00     0.032 A 
HETATM   31  C   UNL     1     -45.046  63.878 -49.192  1.00  0.00     0.002 A 
HETATM   32  C   UNL     1     -44.651  63.402 -47.941  1.00  0.00     0.000 A 
HETATM   33  C   UNL     1     -44.895  62.074 -47.594  1.00  0.00     0.002 A 
HETATM   34  C   UNL     1     -45.528  61.222 -48.501  1.00  0.00     0.032 A 
ENDBRANCH  28  29
ENDBRANCH   3  28
BRANCH   5  35
HETATM   35  N   UNL     1     -44.605  56.611 -51.042  1.00  0.00    -0.189 N 
HETATM   36  H   UNL     1     -45.332  55.930 -51.225  1.00  0.00     0.184 HD
BRANCH  35  37
HETATM   37  C   UNL     1     -43.351  56.019 -50.779  1.00  0.00     0.049 A 
HETATM   38  C   UNL     1     -42.151  56.729 -50.922  1.00  0.00     0.030 A 
HETATM   39  C   UNL     1     -40.921  56.119 -50.664  1.00  0.00     0.002 A 
HETATM   40  C   UNL     1     -40.874  54.784 -50.272  1.00  0.00     0.000 A 
HETATM   41  C   UNL     1     -42.056  54.063 -50.130  1.00  0.00     0.002 A 
HETATM   42  C   UNL     1     -43.287  54.678 -50.377  1.00  0.00     0.030 A 
ENDBRANCH  35  37
ENDBRANCH   5  35
TORSDOF 8
ENDMDL
MODEL 7
REMARK VINA RESULT:      -8.8      2.443      8.963
REMARK  8 active torsions:
REMARK  status: ('A' for Active; 'I' for Inactive)
REMARK    1  A    between atoms: C_4  and  C_5 
REMARK    2  A    between atoms: C_5  and  N_6 
REMARK    3  A    between atoms: C_5  and  C_33 
REMARK    4  A    between atoms: N_10  and  C_11 
REMARK    5  A    between atoms: C_13  and  N_14 
REMARK    6  A    between atoms: N_14  and  C_15 
REMARK    7  A    between atoms: C_22  and  N_23 
REMARK    8  A    between atoms: N_23  and  C_24 
ROOT
HETATM    1  C   UNL     1     -43.412  57.028 -55.439  1.00  0.00     0.756 A 
HETATM    2  N   UNL     1     -43.660  57.765 -56.479  1.00  0.00     0.131 NA
HETATM    3  C   UNL     1     -43.751  59.118 -56.316  1.00  0.00     0.757 A 
HETATM    4  N   UNL     1     -43.582  59.616 -55.064  1.00  0.00    -0.016 N 
HETATM    5  C   UNL     1     -43.250  58.821 -54.023  1.00  0.00     0.735 A 
HETATM    6  N   UNL     1     -43.135  57.541 -54.194  1.00  0.00     0.129 NA
HETATM    7  H   UNL     1     -43.508  60.616 -54.977  1.00  0.00     0.203 HD
ENDROOT
BRANCH   1   8
HETATM    8  N   UNL     1     -43.376  55.645 -55.573  1.00  0.00    -0.210 N 
HETATM    9  C   UNL     1     -43.931  54.809 -54.500  1.00  0.00     0.169 C 
HETATM   10  C   UNL     1     -42.861  54.615 -53.408  1.00  0.00     0.256 C 
HETATM   11  N   UNL     1     -41.599  53.998 -54.032  1.00  0.00    -0.056 N 
HETATM   12  H   UNL     1     -41.896  53.115 -54.459  1.00  0.00     0.281 HD
HETATM   13  C   UNL     1     -41.085  54.843 -55.206  1.00  0.00     0.256 C 
HETATM   14  C   UNL     1     -42.216  55.033 -56.242  1.00  0.00     0.169 C 
BRANCH  11  15
HETATM   15  C   UNL     1     -40.567  53.580 -52.987  1.00  0.00     0.254 C 
BRANCH  15  16
HETATM   16  C   UNL     1     -40.163  52.109 -53.012  1.00  0.00    -0.023 A 
HETATM   17  C   UNL     1     -40.351  51.371 -54.200  1.00  0.00     0.009 A 
HETATM   18  C   UNL     1     -40.035  50.012 -54.265  1.00  0.00     0.001 A 
HETATM   19  C   UNL     1     -39.517  49.362 -53.151  1.00  0.00     0.000 A 
HETATM   20  C   UNL     1     -39.312  50.071 -51.972  1.00  0.00     0.001 A 
HETATM   21  C   UNL     1     -39.631  51.430 -51.902  1.00  0.00     0.009 A 
ENDBRANCH  15  16
BRANCH  15  22
HETATM   22  C   UNL     1     -40.831  54.239 -51.634  1.00  0.00    -0.023 A 
HETATM   23  C   UNL     1     -41.004  53.406 -50.506  1.00  0.00     0.009 A 
HETATM   24  C   UNL     1     -41.216  53.941 -49.234  1.00  0.00     0.001 A 
HETATM   25  C   UNL     1     -41.257  55.319 -49.061  1.00  0.00     0.000 A 
HETATM   26  C   UNL     1     -41.092  56.159 -50.157  1.00  0.00     0.001 A 
HETATM   27  C   UNL     1     -40.880  55.626 -51.432  1.00  0.00     0.009 A 
ENDBRANCH  15  22
ENDBRANCH  11  15
ENDBRANCH   1   8
BRANCH   3  28
HETATM   28  N   UNL     1     -43.987  59.774 -57.406  1.00  0.00    -0.062 NA
BRANCH  28  29
HETATM   29  C   UNL     1     -45.105  59.448 -58.185  1.00  0.00     0.076 A 
HETATM   30  C   UNL     1     -46.386  59.694 -57.687  1.00  0.00     0.032 A 
HETATM   31  C   UNL     1     -47.515  59.383 -58.449  1.00  0.00     0.002 A 
HETATM   32  C   UNL     1     -47.366  58.827 -59.720  1.00  0.00     0.000 A 
HETATM   33  C   UNL     1     -46.091  58.598 -60.234  1.00  0.00     0.002 A 
HETATM   34  C   UNL     1     -44.965  58.920 -59.473  1.00  0.00     0.032 A 
ENDBRANCH  28  29
ENDBRANCH   3  28
BRANCH   5  35
HETATM   35  N   UNL     1     -43.065  59.496 -52.845  1.00  0.00    -0.189 N 
HETATM   36  H   UNL     1     -43.895  59.623 -52.278  1.00  0.00     0.184 HD
BRANCH  35  37
HETATM   37  C   UNL     1     -41.877  59.484 -52.083  1.00  0.00     0.049 A 
HETATM   38  C   UNL     1     -40.640  59.137 -52.645  1.00  0.00     0.030 A 
HETATM   39  C   UNL     1     -39.478  59.124 -51.870  1.00  0.00     0.002 A 
HETATM   40  C   UNL     1     -39.539  59.444 -50.516  1.00  0.00     0.000 A 
HETATM   41  C   UNL     1     -40.760  59.786 -49.942  1.00  0.00     0.002 A 
HETATM   42  C   UNL     1     -41.921  59.811 -50.721  1.00  0.00     0.030 A 
ENDBRANCH  35  37
ENDBRANCH   5  35
TORSDOF 8
ENDMDL
MODEL 8
REMARK VINA RESULT:      -8.8      0.892      3.195
REMARK  8 active torsions:
REMARK  status: ('A' for Active; 'I' for Inactive)
REMARK    1  A    between atoms: C_4  and  C_5 
REMARK    2  A    between atoms: C_5  and  N_6 
REMARK    3  A    between atoms: C_5  and  C_33 
REMARK    4  A    between atoms: N_10  and  C_11 
REMARK    5  A    between atoms: C_13  and  N_14 
REMARK    6  A    between atoms: N_14  and  C_15 
REMARK    7  A    between atoms: C_22  and  N_23 
REMARK    8  A    between atoms: N_23  and  C_24 
ROOT
HETATM    1  C   UNL     1     -42.183  55.628 -52.609  1.00  0.00     0.756 A 
HETATM    2  N   UNL     1     -41.110  54.899 -52.689  1.00  0.00     0.131 NA
HETATM    3  C   UNL     1     -40.830  54.275 -53.871  1.00  0.00     0.757 A 
HETATM    4  N   UNL     1     -41.701  54.447 -54.899  1.00  0.00    -0.016 N 
HETATM    5  C   UNL     1     -42.764  55.274 -54.796  1.00  0.00     0.735 A 
HETATM    6  N   UNL     1     -43.004  55.889 -53.679  1.00  0.00     0.129 NA
HETATM    7  H   UNL     1     -41.416  54.105 -55.802  1.00  0.00     0.203 HD
ENDROOT
BRANCH   1   8
HETATM    8  N   UNL     1     -42.517  56.222 -51.398  1.00  0.00    -0.210 N 
HETATM    9  C   UNL     1     -43.919  56.209 -50.960  1.00  0.00     0.169 C 
HETATM   10  C   UNL     1     -44.661  57.392 -51.612  1.00  0.00     0.256 C 
HETATM   11  N   UNL     1     -43.950  58.705 -51.249  1.00  0.00    -0.056 N 
HETATM   12  H   UNL     1     -43.948  58.753 -50.226  1.00  0.00     0.281 HD
HETATM   13  C   UNL     1     -42.466  58.664 -51.639  1.00  0.00     0.256 C 
HETATM   14  C   UNL     1     -41.792  57.436 -50.986  1.00  0.00     0.169 C 
BRANCH  11  15
HETATM   15  C   UNL     1     -44.736  59.942 -51.680  1.00  0.00     0.254 C 
BRANCH  15  16
HETATM   16  C   UNL     1     -44.265  60.605 -52.971  1.00  0.00    -0.023 A 
HETATM   17  C   UNL     1     -43.603  61.849 -52.896  1.00  0.00     0.009 A 
HETATM   18  C   UNL     1     -43.185  62.518 -54.049  1.00  0.00     0.001 A 
HETATM   19  C   UNL     1     -43.411  61.957 -55.300  1.00  0.00     0.000 A 
HETATM   20  C   UNL     1     -44.051  60.726 -55.400  1.00  0.00     0.001 A 
HETATM   21  C   UNL     1     -44.474  60.056 -54.248  1.00  0.00     0.009 A 
ENDBRANCH  15  16
BRANCH  15  22
HETATM   22  C   UNL     1     -45.086  60.834 -50.490  1.00  0.00    -0.023 A 
HETATM   23  C   UNL     1     -44.172  60.906 -49.415  1.00  0.00     0.009 A 
HETATM   24  C   UNL     1     -44.412  61.726 -48.311  1.00  0.00     0.001 A 
HETATM   25  C   UNL     1     -45.568  62.496 -48.260  1.00  0.00     0.000 A 
HETATM   26  C   UNL     1     -46.484  62.440 -49.305  1.00  0.00     0.001 A 
HETATM   27  C   UNL     1     -46.246  61.619 -50.411  1.00  0.00     0.009 A 
ENDBRANCH  15  22
ENDBRANCH  11  15
ENDBRANCH   1   8
BRANCH   3  28
HETATM   28  N   UNL     1     -39.737  53.582 -53.865  1.00  0.00    -0.062 NA
BRANCH  28  29
HETATM   29  C   UNL     1     -39.768  52.238 -53.472  1.00  0.00     0.076 A 
HETATM   30  C   UNL     1     -39.534  51.906 -52.136  1.00  0.00     0.032 A 
HETATM   31  C   UNL     1     -39.566  50.573 -51.722  1.00  0.00     0.002 A 
HETATM   32  C   UNL     1     -39.838  49.562 -52.644  1.00  0.00     0.000 A 
HETATM   33  C   UNL     1     -40.094  49.886 -53.975  1.00  0.00     0.002 A 
HETATM   34  C   UNL     1     -40.071  51.221 -54.384  1.00  0.00     0.032 A 
ENDBRANCH  28  29
ENDBRANCH   3  28
BRANCH   5  35
HETATM   35  N   UNL     1     -43.506  55.373 -55.945  1.00  0.00    -0.189 N 
HETATM   36  H   UNL     1     -44.511  55.353 -55.819  1.00  0.00     0.184 HD
BRANCH  35  37
HETATM   37  C   UNL     1     -43.111  56.072 -57.105  1.00  0.00     0.049 A 
HETATM   38  C   UNL     1     -42.556  57.358 -57.044  1.00  0.00     0.030 A 
HETATM   39  C   UNL     1     -42.180  58.034 -58.208  1.00  0.00     0.002 A 
HETATM   40  C   UNL     1     -42.366  57.436 -59.451  1.00  0.00     0.000 A 
HETATM   41  C   UNL     1     -42.920  56.162 -59.530  1.00  0.00     0.002 A 
HETATM   42  C   UNL     1     -43.286  55.481 -58.364  1.00  0.00     0.030 A 
ENDBRANCH  35  37
ENDBRANCH   5  35
TORSDOF 8
ENDMDL
MODEL 9
REMARK VINA RESULT:      -8.7      1.917      5.786
REMARK  8 active torsions:
REMARK  status: ('A' for Active; 'I' for Inactive)
REMARK    1  A    between atoms: C_4  and  C_5 
REMARK    2  A    between atoms: C_5  and  N_6 
REMARK    3  A    between atoms: C_5  and  C_33 
REMARK    4  A    between atoms: N_10  and  C_11 
REMARK    5  A    between atoms: C_13  and  N_14 
REMARK    6  A    between atoms: N_14  and  C_15 
REMARK    7  A    between atoms: C_22  and  N_23 
REMARK    8  A    between atoms: N_23  and  C_24 
ROOT
HETATM    1  C   UNL     1     -43.832  57.278 -54.936  1.00  0.00     0.756 A 
HETATM    2  N   UNL     1     -44.070  57.690 -56.144  1.00  0.00     0.131 NA
HETATM    3  C   UNL     1     -43.205  57.334 -57.139  1.00  0.00     0.757 A 
HETATM    4  N   UNL     1     -42.135  56.569 -56.803  1.00  0.00    -0.016 N 
HETATM    5  C   UNL     1     -41.966  56.099 -55.548  1.00  0.00     0.735 A 
HETATM    6  N   UNL     1     -42.811  56.417 -54.615  1.00  0.00     0.129 NA
HETATM    7  H   UNL     1     -41.586  56.194 -57.559  1.00  0.00     0.203 HD
ENDROOT
BRANCH   1   8
HETATM    8  N   UNL     1     -44.666  57.680 -53.899  1.00  0.00    -0.210 N 
HETATM    9  C   UNL     1     -44.971  59.108 -53.741  1.00  0.00     0.169 C 
HETATM   10  C   UNL     1     -43.840  59.779 -52.938  1.00  0.00     0.256 C 
HETATM   11  N   UNL     1     -43.680  59.066 -51.586  1.00  0.00    -0.056 N 
HETATM   12  H   UNL     1     -44.591  59.132 -51.121  1.00  0.00     0.281 HD
HETATM   13  C   UNL     1     -43.447  57.560 -51.771  1.00  0.00     0.256 C 
HETATM   14  C   UNL     1     -44.592  56.958 -52.617  1.00  0.00     0.169 C 
BRANCH  11  15
HETATM   15  C   UNL     1     -42.725  59.794 -50.642  1.00  0.00     0.254 C 
BRANCH  15  16
HETATM   16  C   UNL     1     -43.167  61.188 -50.205  1.00  0.00    -0.023 A 
HETATM   17  C   UNL     1     -44.190  61.307 -49.240  1.00  0.00     0.009 A 
HETATM   18  C   UNL     1     -44.659  62.558 -48.832  1.00  0.00     0.001 A 
HETATM   19  C   UNL     1     -44.113  63.717 -49.372  1.00  0.00     0.000 A 
HETATM   20  C   UNL     1     -43.096  63.626 -50.317  1.00  0.00     0.001 A 
HETATM   21  C   UNL     1     -42.628  62.375 -50.730  1.00  0.00     0.009 A 
ENDBRANCH  15  16
BRANCH  15  22
HETATM   22  C   UNL     1     -41.265  59.587 -51.043  1.00  0.00    -0.023 A 
HETATM   23  C   UNL     1     -40.267  59.789 -50.064  1.00  0.00     0.009 A 
HETATM   24  C   UNL     1     -38.916  59.585 -50.351  1.00  0.00     0.001 A 
HETATM   25  C   UNL     1     -38.534  59.171 -51.622  1.00  0.00     0.000 A 
HETATM   26  C   UNL     1     -39.498  58.969 -52.603  1.00  0.00     0.001 A 
HETATM   27  C   UNL     1     -40.852  59.173 -52.317  1.00  0.00     0.009 A 
ENDBRANCH  15  22
ENDBRANCH  11  15
ENDBRANCH   1   8
BRANCH   3  28
HETATM   28  N   UNL     1     -43.526  57.777 -58.312  1.00  0.00    -0.062 NA
BRANCH  28  29
HETATM   29  C   UNL     1     -44.395  57.035 -59.123  1.00  0.00     0.076 A 
HETATM   30  C   UNL     1     -43.900  55.952 -59.852  1.00  0.00     0.032 A 
HETATM   31  C   UNL     1     -44.750  55.195 -60.661  1.00  0.00     0.002 A 
HETATM   32  C   UNL     1     -46.105  55.515 -60.741  1.00  0.00     0.000 A 
HETATM   33  C   UNL     1     -46.613  56.581 -60.000  1.00  0.00     0.002 A 
HETATM   34  C   UNL     1     -45.762  57.329 -59.184  1.00  0.00     0.032 A 
ENDBRANCH  28  29
ENDBRANCH   3  28
BRANCH   5  35
HETATM   35  N   UNL     1     -40.864  55.298 -55.397  1.00  0.00    -0.189 N 
HETATM   36  H   UNL     1     -39.996  55.675 -55.759  1.00  0.00     0.184 HD
BRANCH  35  37
HETATM   37  C   UNL     1     -40.666  54.384 -54.340  1.00  0.00     0.049 A 
HETATM   38  C   UNL     1     -40.790  54.765 -52.997  1.00  0.00     0.030 A 
HETATM   39  C   UNL     1     -40.581  53.844 -51.967  1.00  0.00     0.002 A 
HETATM   40  C   UNL     1     -40.233  52.530 -52.267  1.00  0.00     0.000 A 
HETATM   41  C   UNL     1     -40.101  52.136 -53.596  1.00  0.00     0.002 A 
HETATM   42  C   UNL     1     -40.321  53.056 -54.626  1.00  0.00     0.030 A 
ENDBRANCH  35  37
ENDBRANCH   5  35
TORSDOF 8
ENDMDL
MODEL 10
REMARK VINA RESULT:      -8.7      2.536      6.428
REMARK  8 active torsions:
REMARK  status: ('A' for Active; 'I' for Inactive)
REMARK    1  A    between atoms: C_4  and  C_5 
REMARK    2  A    between atoms: C_5  and  N_6 
REMARK    3  A    between atoms: C_5  and  C_33 
REMARK    4  A    between atoms: N_10  and  C_11 
REMARK    5  A    between atoms: C_13  and  N_14 
REMARK    6  A    between atoms: N_14  and  C_15 
REMARK    7  A    between atoms: C_22  and  N_23 
REMARK    8  A    between atoms: N_23  and  C_24 
ROOT
HETATM    1  C   UNL     1     -45.123  59.783 -55.386  1.00  0.00     0.756 A 
HETATM    2  N   UNL     1     -45.362  59.652 -56.656  1.00  0.00     0.131 NA
HETATM    3  C   UNL     1     -45.354  58.398 -57.198  1.00  0.00     0.757 A 
HETATM    4  N   UNL     1     -45.087  57.354 -56.371  1.00  0.00    -0.016 N 
HETATM    5  C   UNL     1     -44.918  57.527 -55.042  1.00  0.00     0.735 A 
HETATM    6  N   UNL     1     -44.960  58.719 -54.532  1.00  0.00     0.129 NA
HETATM    7  H   UNL     1     -45.223  56.429 -56.745  1.00  0.00     0.203 HD
ENDROOT
BRANCH   1   8
HETATM    8  N   UNL     1     -45.066  61.054 -54.828  1.00  0.00    -0.210 N 
HETATM    9  C   UNL     1     -43.788  61.776 -54.826  1.00  0.00     0.169 C 
HETATM   10  C   UNL     1     -42.958  61.330 -53.607  1.00  0.00     0.256 C 
HETATM   11  N   UNL     1     -43.766  61.575 -52.322  1.00  0.00    -0.056 N 
HETATM   12  H   UNL     1     -43.984  62.576 -52.310  1.00  0.00     0.281 HD
HETATM   13  C   UNL     1     -45.134  60.881 -52.380  1.00  0.00     0.256 C 
HETATM   14  C   UNL     1     -45.895  61.340 -53.645  1.00  0.00     0.169 C 
BRANCH  11  15
HETATM   15  C   UNL     1     -42.942  61.356 -51.055  1.00  0.00     0.254 C 
BRANCH  15  16
HETATM   16  C   UNL     1     -42.272  59.990 -50.933  1.00  0.00    -0.023 A 
HETATM   17  C   UNL     1     -40.899  59.930 -50.614  1.00  0.00     0.009 A 
HETATM   18  C   UNL     1     -40.228  58.708 -50.528  1.00  0.00     0.001 A 
HETATM   19  C   UNL     1     -40.914  57.520 -50.749  1.00  0.00     0.000 A 
HETATM   20  C   UNL     1     -42.271  57.552 -51.054  1.00  0.00     0.001 A 
HETATM   21  C   UNL     1     -42.944  58.774 -51.144  1.00  0.00     0.009 A 
ENDBRANCH  15  16
BRANCH  15  22
HETATM   22  C   UNL     1     -43.630  61.941 -49.823  1.00  0.00    -0.023 A 
HETATM   23  C   UNL     1     -43.647  63.345 -49.668  1.00  0.00     0.009 A 
HETATM   24  C   UNL     1     -44.287  63.949 -48.584  1.00  0.00     0.001 A 
HETATM   25  C   UNL     1     -44.927  63.163 -47.633  1.00  0.00     0.000 A 
HETATM   26  C   UNL     1     -44.922  61.778 -47.763  1.00  0.00     0.001 A 
HETATM   27  C   UNL     1     -44.281  61.171 -48.847  1.00  0.00     0.009 A 
ENDBRANCH  15  22
ENDBRANCH  11  15
ENDBRANCH   1   8
BRANCH   3  28
HETATM   28  N   UNL     1     -45.615  58.360 -58.465  1.00  0.00    -0.062 NA
BRANCH  28  29
HETATM   29  C   UNL     1     -45.335  57.200 -59.198  1.00  0.00     0.076 A 
HETATM   30  C   UNL     1     -46.360  56.566 -59.902  1.00  0.00     0.032 A 
HETATM   31  C   UNL     1     -46.102  55.411 -60.644  1.00  0.00     0.002 A 
HETATM   32  C   UNL     1     -44.810  54.887 -60.690  1.00  0.00     0.000 A 
HETATM   33  C   UNL     1     -43.776  55.524 -60.008  1.00  0.00     0.002 A 
HETATM   34  C   UNL     1     -44.036  56.684 -59.275  1.00  0.00     0.032 A 
ENDBRANCH  28  29
ENDBRANCH   3  28
BRANCH   5  35
HETATM   35  N   UNL     1     -44.712  56.362 -54.350  1.00  0.00    -0.189 N 
HETATM   36  H   UNL     1     -45.421  55.648 -54.475  1.00  0.00     0.184 HD
BRANCH  35  37
HETATM   37  C   UNL     1     -43.448  55.829 -54.021  1.00  0.00     0.049 A 
HETATM   38  C   UNL     1     -42.259  56.377 -54.522  1.00  0.00     0.030 A 
HETATM   39  C   UNL     1     -41.019  55.827 -54.189  1.00  0.00     0.002 A 
HETATM   40  C   UNL     1     -40.951  54.711 -53.359  1.00  0.00     0.000 A 
HETATM   41  C   UNL     1     -42.123  54.151 -52.857  1.00  0.00     0.002 A 
HETATM   42  C   UNL     1     -43.363  54.709 -53.182  1.00  0.00     0.030 A 
ENDBRANCH  35  37
ENDBRANCH   5  35
TORSDOF 8
ENDMDL
