MODEL 1
REMARK VINA RESULT:      -8.9      0.000      0.000
REMARK  3 active torsions:
REMARK  status: ('A' for Active; 'I' for Inactive)
REMARK    1  A    between atoms: N_12  and  C_13 
REMARK    2  A    between atoms: C_13  and  C_14 
REMARK       I    between atoms: C_14  and  N_15 
REMARK    3  A    between atoms: N_15  and  C_16 
ROOT
HETATM    1  C   UNL     1     -39.431  51.425 -51.443  1.00  0.00     0.048 C 
HETATM    2  C   UNL     1     -40.234  52.372 -52.285  1.00  0.00    -0.061 A 
HETATM    3  C   UNL     1     -41.032  53.360 -51.683  1.00  0.00     0.021 A 
HETATM    4  C   UNL     1     -41.783  54.241 -52.489  1.00  0.00     0.005 A 
HETATM    5  C   UNL     1     -41.723  54.098 -53.879  1.00  0.00     0.044 A 
HETATM    6  N   UNL     1     -42.527  55.073 -54.433  1.00  0.00    -0.350 N 
HETATM    7  H   UNL     1     -42.672  55.226 -55.422  1.00  0.00     0.166 HD
HETATM    8  C   UNL     1     -43.081  55.826 -53.437  1.00  0.00     0.116 A 
HETATM    9  C   UNL     1     -42.650  55.333 -52.232  1.00  0.00     0.028 A 
HETATM   10  C   UNL     1     -43.949  56.960 -53.560  1.00  0.00     0.291 A 
HETATM   11  O   UNL     1     -44.320  57.398 -54.644  1.00  0.00    -0.264 OA
HETATM   12  N   UNL     1     -44.326  57.497 -52.314  1.00  0.00    -0.224 N 
HETATM   13  N   UNL     1     -43.887  57.002 -51.067  1.00  0.00    -0.180 NA
HETATM   14  C   UNL     1     -43.093  55.970 -51.025  1.00  0.00     0.153 A 
HETATM   15  C   UNL     1     -40.949  53.112 -54.501  1.00  0.00     0.031 A 
HETATM   16  C   UNL     1     -40.209  52.254 -53.679  1.00  0.00     0.009 A 
ENDROOT
BRANCH  12  17
HETATM   17  C   UNL     1     -45.058  58.753 -52.279  1.00  0.00     0.258 C 
BRANCH  17  18
HETATM   18  C   UNL     1     -45.549  59.484 -51.010  1.00  0.00     0.244 C 
HETATM   19  N   UNL     1     -44.978  60.671 -50.539  1.00  0.00    -0.321 N 
HETATM   20  C   UNL     1     -43.847  61.325 -51.185  1.00  0.00     0.159 C 
HETATM   21  O   UNL     1     -46.481  58.914 -50.416  1.00  0.00    -0.271 OA
BRANCH  19  22
HETATM   22  C   UNL     1     -45.456  61.281 -49.319  1.00  0.00     0.037 A 
HETATM   23  C   UNL     1     -44.943  60.921 -48.065  1.00  0.00     0.037 A 
HETATM   24  C   UNL     1     -45.407  61.504 -46.869  1.00  0.00    -0.054 A 
HETATM   25  C   UNL     1     -44.804  61.066 -45.563  1.00  0.00     0.049 C 
HETATM   26  C   UNL     1     -46.434  62.462 -46.922  1.00  0.00    -0.056 A 
HETATM   27  C   UNL     1     -46.950  63.146 -45.686  1.00  0.00     0.049 C 
HETATM   28  C   UNL     1     -46.945  62.835 -48.172  1.00  0.00     0.009 A 
HETATM   29  C   UNL     1     -46.468  62.249 -49.350  1.00  0.00     0.030 A 
ENDBRANCH  19  22
ENDBRANCH  17  18
ENDBRANCH  12  17
TORSDOF 3
ENDMDL
MODEL 2
REMARK VINA RESULT:      -8.8      5.361      7.805
REMARK  3 active torsions:
REMARK  status: ('A' for Active; 'I' for Inactive)
REMARK    1  A    between atoms: N_12  and  C_13 
REMARK    2  A    between atoms: C_13  and  C_14 
REMARK       I    between atoms: C_14  and  N_15 
REMARK    3  A    between atoms: N_15  and  C_16 
ROOT
HETATM    1  C   UNL     1     -39.449  49.769 -54.076  1.00  0.00     0.048 C 
HETATM    2  C   UNL     1     -39.846  51.113 -53.541  1.00  0.00    -0.061 A 
HETATM    3  C   UNL     1     -40.499  52.045 -54.367  1.00  0.00     0.021 A 
HETATM    4  C   UNL     1     -40.863  53.305 -53.848  1.00  0.00     0.005 A 
HETATM    5  C   UNL     1     -40.550  53.602 -52.518  1.00  0.00     0.044 A 
HETATM    6  N   UNL     1     -41.016  54.875 -52.255  1.00  0.00    -0.350 N 
HETATM    7  H   UNL     1     -40.945  55.356 -51.368  1.00  0.00     0.166 HD
HETATM    8  C   UNL     1     -41.615  55.380 -53.373  1.00  0.00     0.116 A 
HETATM    9  C   UNL     1     -41.528  54.443 -54.371  1.00  0.00     0.028 A 
HETATM   10  C   UNL     1     -42.262  56.649 -53.537  1.00  0.00     0.291 A 
HETATM   11  O   UNL     1     -42.342  57.475 -52.634  1.00  0.00    -0.264 OA
HETATM   12  N   UNL     1     -42.778  56.836 -54.834  1.00  0.00    -0.224 N 
HETATM   13  N   UNL     1     -42.698  55.879 -55.868  1.00  0.00    -0.180 NA
HETATM   14  C   UNL     1     -42.101  54.742 -55.652  1.00  0.00     0.153 A 
HETATM   15  C   UNL     1     -39.887  52.698 -51.682  1.00  0.00     0.031 A 
HETATM   16  C   UNL     1     -39.541  51.452 -52.218  1.00  0.00     0.009 A 
ENDROOT
BRANCH  12  17
HETATM   17  C   UNL     1     -43.613  57.995 -55.101  1.00  0.00     0.258 C 
BRANCH  17  18
HETATM   18  C   UNL     1     -44.663  58.119 -56.227  1.00  0.00     0.244 C 
HETATM   19  N   UNL     1     -44.340  58.477 -57.541  1.00  0.00    -0.321 N 
HETATM   20  C   UNL     1     -42.984  58.793 -57.972  1.00  0.00     0.159 C 
HETATM   21  O   UNL     1     -45.833  57.904 -55.866  1.00  0.00    -0.271 OA
BRANCH  19  22
HETATM   22  C   UNL     1     -45.376  58.619 -58.537  1.00  0.00     0.037 A 
HETATM   23  C   UNL     1     -45.839  57.524 -59.281  1.00  0.00     0.037 A 
HETATM   24  C   UNL     1     -46.844  57.653 -60.261  1.00  0.00    -0.054 A 
HETATM   25  C   UNL     1     -47.288  56.429 -61.014  1.00  0.00     0.049 C 
HETATM   26  C   UNL     1     -47.390  58.920 -60.526  1.00  0.00    -0.056 A 
HETATM   27  C   UNL     1     -48.487  59.119 -61.535  1.00  0.00     0.049 C 
HETATM   28  C   UNL     1     -46.941  60.018 -59.781  1.00  0.00     0.009 A 
HETATM   29  C   UNL     1     -45.946  59.870 -58.808  1.00  0.00     0.030 A 
ENDBRANCH  19  22
ENDBRANCH  17  18
ENDBRANCH  12  17
TORSDOF 3
ENDMDL
MODEL 3
REMARK VINA RESULT:      -8.8      1.929      2.070
REMARK  3 active torsions:
REMARK  status: ('A' for Active; 'I' for Inactive)
REMARK    1  A    between atoms: N_12  and  C_13 
REMARK    2  A    between atoms: C_13  and  C_14 
REMARK       I    between atoms: C_14  and  N_15 
REMARK    3  A    between atoms: N_15  and  C_16 
ROOT
HETATM    1  C   UNL     1     -39.484  50.437 -51.231  1.00  0.00     0.048 C 
HETATM    2  C   UNL     1     -39.862  51.599 -52.102  1.00  0.00    -0.061 A 
HETATM    3  C   UNL     1     -40.263  52.818 -51.529  1.00  0.00     0.021 A 
HETATM    4  C   UNL     1     -40.618  53.899 -52.362  1.00  0.00     0.005 A 
HETATM    5  C   UNL     1     -40.575  53.724 -53.749  1.00  0.00     0.044 A 
HETATM    6  N   UNL     1     -40.953  54.917 -54.331  1.00  0.00    -0.350 N 
HETATM    7  H   UNL     1     -41.004  55.097 -55.325  1.00  0.00     0.166 HD
HETATM    8  C   UNL     1     -41.223  55.834 -53.356  1.00  0.00     0.116 A 
HETATM    9  C   UNL     1     -41.036  55.235 -52.136  1.00  0.00     0.028 A 
HETATM   10  C   UNL     1     -41.615  57.204 -53.510  1.00  0.00     0.291 A 
HETATM   11  O   UNL     1     -41.770  57.731 -54.606  1.00  0.00    -0.264 OA
HETATM   12  N   UNL     1     -41.806  57.860 -52.278  1.00  0.00    -0.224 N 
HETATM   13  N   UNL     1     -41.613  57.257 -51.017  1.00  0.00    -0.180 NA
HETATM   14  C   UNL     1     -41.251  56.008 -50.946  1.00  0.00     0.153 A 
HETATM   15  C   UNL     1     -40.195  52.516 -54.342  1.00  0.00     0.031 A 
HETATM   16  C   UNL     1     -39.843  51.459 -53.494  1.00  0.00     0.009 A 
ENDROOT
BRANCH  12  17
HETATM   17  C   UNL     1     -42.032  59.296 -52.271  1.00  0.00     0.258 C 
BRANCH  17  18
HETATM   18  C   UNL     1     -42.472  60.141 -51.055  1.00  0.00     0.244 C 
HETATM   19  N   UNL     1     -43.759  60.671 -50.916  1.00  0.00    -0.321 N 
HETATM   20  C   UNL     1     -44.807  60.500 -51.916  1.00  0.00     0.159 C 
HETATM   21  O   UNL     1     -41.577  60.341 -50.216  1.00  0.00    -0.271 OA
BRANCH  19  22
HETATM   22  C   UNL     1     -44.095  61.491 -49.775  1.00  0.00     0.037 A 
HETATM   23  C   UNL     1     -44.604  60.936 -48.592  1.00  0.00     0.037 A 
HETATM   24  C   UNL     1     -44.942  61.727 -47.475  1.00  0.00    -0.054 A 
HETATM   25  C   UNL     1     -45.480  61.055 -46.243  1.00  0.00     0.049 C 
HETATM   26  C   UNL     1     -44.789  63.122 -47.548  1.00  0.00    -0.056 A 
HETATM   27  C   UNL     1     -45.099  64.019 -46.382  1.00  0.00     0.049 C 
HETATM   28  C   UNL     1     -44.271  63.684 -48.722  1.00  0.00     0.009 A 
HETATM   29  C   UNL     1     -43.937  62.882 -49.819  1.00  0.00     0.030 A 
ENDBRANCH  19  22
ENDBRANCH  17  18
ENDBRANCH  12  17
TORSDOF 3
ENDMDL
MODEL 4
REMARK VINA RESULT:      -8.8      1.835      9.479
REMARK  3 active torsions:
REMARK  status: ('A' for Active; 'I' for Inactive)
REMARK    1  A    between atoms: N_12  and  C_13 
REMARK    2  A    between atoms: C_13  and  C_14 
REMARK       I    between atoms: C_14  and  N_15 
REMARK    3  A    between atoms: N_15  and  C_16 
ROOT
HETATM    1  C   UNL     1     -46.022  62.874 -48.275  1.00  0.00     0.048 C 
HETATM    2  C   UNL     1     -46.088  62.212 -49.621  1.00  0.00    -0.061 A 
HETATM    3  C   UNL     1     -45.242  61.132 -49.926  1.00  0.00     0.021 A 
HETATM    4  C   UNL     1     -45.315  60.523 -51.196  1.00  0.00     0.005 A 
HETATM    5  C   UNL     1     -46.227  61.024 -52.131  1.00  0.00     0.044 A 
HETATM    6  N   UNL     1     -46.112  60.259 -53.275  1.00  0.00    -0.350 N 
HETATM    7  H   UNL     1     -46.656  60.377 -54.120  1.00  0.00     0.166 HD
HETATM    8  C   UNL     1     -45.165  59.294 -53.084  1.00  0.00     0.116 A 
HETATM    9  C   UNL     1     -44.651  59.437 -51.820  1.00  0.00     0.028 A 
HETATM   10  C   UNL     1     -44.750  58.266 -53.992  1.00  0.00     0.291 A 
HETATM   11  O   UNL     1     -45.223  58.142 -55.116  1.00  0.00    -0.264 OA
HETATM   12  N   UNL     1     -43.745  57.436 -53.456  1.00  0.00    -0.224 N 
HETATM   13  N   UNL     1     -43.211  57.570 -52.157  1.00  0.00    -0.180 NA
HETATM   14  C   UNL     1     -43.637  58.523 -51.378  1.00  0.00     0.153 A 
HETATM   15  C   UNL     1     -47.068  62.107 -51.856  1.00  0.00     0.031 A 
HETATM   16  C   UNL     1     -46.979  62.691 -50.587  1.00  0.00     0.009 A 
ENDROOT
BRANCH  12  17
HETATM   17  C   UNL     1     -43.350  56.244 -54.189  1.00  0.00     0.258 C 
BRANCH  17  18
HETATM   18  C   UNL     1     -42.682  54.987 -53.587  1.00  0.00     0.244 C 
HETATM   19  N   UNL     1     -41.331  54.675 -53.771  1.00  0.00    -0.321 N 
HETATM   20  C   UNL     1     -40.423  55.491 -54.568  1.00  0.00     0.159 C 
HETATM   21  O   UNL     1     -43.453  54.252 -52.947  1.00  0.00    -0.271 OA
BRANCH  19  22
HETATM   22  C   UNL     1     -40.778  53.460 -53.219  1.00  0.00     0.037 A 
HETATM   23  C   UNL     1     -40.510  52.340 -54.021  1.00  0.00     0.037 A 
HETATM   24  C   UNL     1     -39.978  51.148 -53.491  1.00  0.00    -0.054 A 
HETATM   25  C   UNL     1     -39.716  49.993 -54.418  1.00  0.00     0.049 C 
HETATM   26  C   UNL     1     -39.725  51.059 -52.112  1.00  0.00    -0.056 A 
HETATM   27  C   UNL     1     -39.127  49.827 -51.490  1.00  0.00     0.049 C 
HETATM   28  C   UNL     1     -39.979  52.175 -51.306  1.00  0.00     0.009 A 
HETATM   29  C   UNL     1     -40.503  53.353 -51.850  1.00  0.00     0.030 A 
ENDBRANCH  19  22
ENDBRANCH  17  18
ENDBRANCH  12  17
TORSDOF 3
ENDMDL
MODEL 5
REMARK VINA RESULT:      -8.7      3.285      4.976
REMARK  3 active torsions:
REMARK  status: ('A' for Active; 'I' for Inactive)
REMARK    1  A    between atoms: N_12  and  C_13 
REMARK    2  A    between atoms: C_13  and  C_14 
REMARK       I    between atoms: C_14  and  N_15 
REMARK    3  A    between atoms: N_15  and  C_16 
ROOT
HETATM    1  C   UNL     1     -39.591  49.749 -54.695  1.00  0.00     0.048 C 
HETATM    2  C   UNL     1     -39.783  50.601 -53.474  1.00  0.00    -0.061 A 
HETATM    3  C   UNL     1     -40.121  51.959 -53.599  1.00  0.00     0.021 A 
HETATM    4  C   UNL     1     -40.294  52.747 -52.441  1.00  0.00     0.005 A 
HETATM    5  C   UNL     1     -40.110  52.152 -51.189  1.00  0.00     0.044 A 
HETATM    6  N   UNL     1     -40.346  53.118 -50.231  1.00  0.00    -0.350 N 
HETATM    7  H   UNL     1     -40.300  52.978 -49.230  1.00  0.00     0.166 HD
HETATM    8  C   UNL     1     -40.677  54.293 -50.842  1.00  0.00     0.116 A 
HETATM    9  C   UNL     1     -40.645  54.099 -52.200  1.00  0.00     0.028 A 
HETATM   10  C   UNL     1     -41.032  55.541 -50.232  1.00  0.00     0.291 A 
HETATM   11  O   UNL     1     -41.067  55.700 -49.017  1.00  0.00    -0.264 OA
HETATM   12  N   UNL     1     -41.322  56.547 -51.175  1.00  0.00    -0.224 N 
HETATM   13  N   UNL     1     -41.296  56.359 -52.573  1.00  0.00    -0.180 NA
HETATM   14  C   UNL     1     -40.970  55.197 -53.063  1.00  0.00     0.153 A 
HETATM   15  C   UNL     1     -39.758  50.807 -51.040  1.00  0.00     0.031 A 
HETATM   16  C   UNL     1     -39.596  50.046 -52.204  1.00  0.00     0.009 A 
ENDROOT
BRANCH  12  17
HETATM   17  C   UNL     1     -41.868  57.812 -50.711  1.00  0.00     0.258 C 
BRANCH  17  18
HETATM   18  C   UNL     1     -42.686  58.813 -51.556  1.00  0.00     0.244 C 
HETATM   19  N   UNL     1     -44.057  58.671 -51.799  1.00  0.00    -0.321 N 
HETATM   20  C   UNL     1     -44.845  57.551 -51.300  1.00  0.00     0.159 C 
HETATM   21  O   UNL     1     -42.020  59.748 -52.033  1.00  0.00    -0.271 OA
BRANCH  19  22
HETATM   22  C   UNL     1     -44.755  59.619 -52.636  1.00  0.00     0.037 A 
HETATM   23  C   UNL     1     -44.803  59.477 -54.031  1.00  0.00     0.037 A 
HETATM   24  C   UNL     1     -45.475  60.400 -54.857  1.00  0.00    -0.054 A 
HETATM   25  C   UNL     1     -45.483  60.175 -56.344  1.00  0.00     0.049 C 
HETATM   26  C   UNL     1     -46.101  61.516 -54.276  1.00  0.00    -0.056 A 
HETATM   27  C   UNL     1     -46.861  62.519 -55.098  1.00  0.00     0.049 C 
HETATM   28  C   UNL     1     -46.066  61.661 -52.883  1.00  0.00     0.009 A 
HETATM   29  C   UNL     1     -45.398  60.731 -52.078  1.00  0.00     0.030 A 
ENDBRANCH  19  22
ENDBRANCH  17  18
ENDBRANCH  12  17
TORSDOF 3
ENDMDL
MODEL 6
REMARK VINA RESULT:      -8.7      1.822      9.438
REMARK  3 active torsions:
REMARK  status: ('A' for Active; 'I' for Inactive)
REMARK    1  A    between atoms: N_12  and  C_13 
REMARK    2  A    between atoms: C_13  and  C_14 
REMARK       I    between atoms: C_14  and  N_15 
REMARK    3  A    between atoms: N_15  and  C_16 
ROOT
HETATM    1  C   UNL     1     -42.831  64.749 -49.202  1.00  0.00     0.048 C 
HETATM    2  C   UNL     1     -43.439  63.396 -49.429  1.00  0.00    -0.061 A 
HETATM    3  C   UNL     1     -42.997  62.585 -50.489  1.00  0.00     0.021 A 
HETATM    4  C   UNL     1     -43.581  61.317 -50.690  1.00  0.00     0.005 A 
HETATM    5  C   UNL     1     -44.603  60.901 -49.829  1.00  0.00     0.044 A 
HETATM    6  N   UNL     1     -44.993  59.638 -50.226  1.00  0.00    -0.350 N 
HETATM    7  H   UNL     1     -45.707  59.076 -49.782  1.00  0.00     0.166 HD
HETATM    8  C   UNL     1     -44.245  59.247 -51.299  1.00  0.00     0.116 A 
HETATM    9  C   UNL     1     -43.376  60.261 -51.614  1.00  0.00     0.028 A 
HETATM   10  C   UNL     1     -44.292  58.001 -52.006  1.00  0.00     0.291 A 
HETATM   11  O   UNL     1     -45.067  57.098 -51.711  1.00  0.00    -0.264 OA
HETATM   12  N   UNL     1     -43.366  57.939 -53.067  1.00  0.00    -0.224 N 
HETATM   13  N   UNL     1     -42.464  58.973 -53.398  1.00  0.00    -0.180 NA
HETATM   14  C   UNL     1     -42.470  60.080 -52.711  1.00  0.00     0.153 A 
HETATM   15  C   UNL     1     -45.070  61.697 -48.779  1.00  0.00     0.031 A 
HETATM   16  C   UNL     1     -44.471  62.950 -48.597  1.00  0.00     0.009 A 
ENDROOT
BRANCH  12  17
HETATM   17  C   UNL     1     -43.173  56.677 -53.762  1.00  0.00     0.258 C 
BRANCH  17  18
HETATM   18  C   UNL     1     -42.538  55.400 -53.167  1.00  0.00     0.244 C 
HETATM   19  N   UNL     1     -41.284  54.916 -53.555  1.00  0.00    -0.321 N 
HETATM   20  C   UNL     1     -40.461  55.554 -54.575  1.00  0.00     0.159 C 
HETATM   21  O   UNL     1     -43.248  54.814 -52.332  1.00  0.00    -0.271 OA
BRANCH  19  22
HETATM   22  C   UNL     1     -40.766  53.690 -52.992  1.00  0.00     0.037 A 
HETATM   23  C   UNL     1     -40.482  52.573 -53.792  1.00  0.00     0.037 A 
HETATM   24  C   UNL     1     -39.984  51.371 -53.252  1.00  0.00    -0.054 A 
HETATM   25  C   UNL     1     -39.702  50.219 -54.178  1.00  0.00     0.049 C 
HETATM   26  C   UNL     1     -39.784  51.268 -51.865  1.00  0.00    -0.056 A 
HETATM   27  C   UNL     1     -39.224  50.025 -51.231  1.00  0.00     0.049 C 
HETATM   28  C   UNL     1     -40.055  52.382 -51.060  1.00  0.00     0.009 A 
HETATM   29  C   UNL     1     -40.544  53.570 -51.614  1.00  0.00     0.030 A 
ENDBRANCH  19  22
ENDBRANCH  17  18
ENDBRANCH  12  17
TORSDOF 3
ENDMDL
MODEL 7
REMARK VINA RESULT:      -8.5      5.216      7.571
REMARK  3 active torsions:
REMARK  status: ('A' for Active; 'I' for Inactive)
REMARK    1  A    between atoms: N_12  and  C_13 
REMARK    2  A    between atoms: C_13  and  C_14 
REMARK       I    between atoms: C_14  and  N_15 
REMARK    3  A    between atoms: N_15  and  C_16 
ROOT
HETATM    1  C   UNL     1     -39.417  49.732 -54.285  1.00  0.00     0.048 C 
HETATM    2  C   UNL     1     -39.765  51.017 -53.592  1.00  0.00    -0.061 A 
HETATM    3  C   UNL     1     -40.238  52.118 -54.327  1.00  0.00     0.021 A 
HETATM    4  C   UNL     1     -40.558  53.319 -53.661  1.00  0.00     0.005 A 
HETATM    5  C   UNL     1     -40.382  53.388 -52.275  1.00  0.00     0.044 A 
HETATM    6  N   UNL     1     -40.770  54.648 -51.868  1.00  0.00    -0.350 N 
HETATM    7  H   UNL     1     -40.766  54.987 -50.915  1.00  0.00     0.166 HD
HETATM    8  C   UNL     1     -41.190  55.366 -52.950  1.00  0.00     0.116 A 
HETATM    9  C   UNL     1     -41.063  54.580 -54.068  1.00  0.00     0.028 A 
HETATM   10  C   UNL     1     -41.709  56.703 -52.982  1.00  0.00     0.291 A 
HETATM   11  O   UNL     1     -41.827  57.393 -51.976  1.00  0.00    -0.264 OA
HETATM   12  N   UNL     1     -42.051  57.126 -54.282  1.00  0.00    -0.224 N 
HETATM   13  N   UNL     1     -41.927  56.325 -55.438  1.00  0.00    -0.180 NA
HETATM   14  C   UNL     1     -41.454  55.116 -55.339  1.00  0.00     0.153 A 
HETATM   15  C   UNL     1     -39.897  52.311 -51.524  1.00  0.00     0.031 A 
HETATM   16  C   UNL     1     -39.592  51.129 -52.209  1.00  0.00     0.009 A 
ENDROOT
BRANCH  12  17
HETATM   17  C   UNL     1     -42.752  58.388 -54.451  1.00  0.00     0.258 C 
BRANCH  17  18
HETATM   18  C   UNL     1     -42.649  59.328 -55.673  1.00  0.00     0.244 C 
HETATM   19  N   UNL     1     -43.606  59.369 -56.692  1.00  0.00    -0.321 N 
HETATM   20  C   UNL     1     -44.785  58.511 -56.715  1.00  0.00     0.159 C 
HETATM   21  O   UNL     1     -41.624  60.031 -55.696  1.00  0.00    -0.271 OA
BRANCH  19  22
HETATM   22  C   UNL     1     -43.428  60.240 -57.831  1.00  0.00     0.037 A 
HETATM   23  C   UNL     1     -42.769  59.810 -58.992  1.00  0.00     0.037 A 
HETATM   24  C   UNL     1     -42.584  60.654 -60.106  1.00  0.00    -0.054 A 
HETATM   25  C   UNL     1     -41.869  60.116 -61.315  1.00  0.00     0.049 C 
HETATM   26  C   UNL     1     -43.049  61.979 -60.052  1.00  0.00    -0.056 A 
HETATM   27  C   UNL     1     -42.912  62.918 -61.217  1.00  0.00     0.049 C 
HETATM   28  C   UNL     1     -43.717  62.413 -58.900  1.00  0.00     0.009 A 
HETATM   29  C   UNL     1     -43.897  61.559 -57.806  1.00  0.00     0.030 A 
ENDBRANCH  19  22
ENDBRANCH  17  18
ENDBRANCH  12  17
TORSDOF 3
ENDMDL
MODEL 8
REMARK VINA RESULT:      -8.5      1.741      9.387
REMARK  3 active torsions:
REMARK  status: ('A' for Active; 'I' for Inactive)
REMARK    1  A    between atoms: N_12  and  C_13 
REMARK    2  A    between atoms: C_13  and  C_14 
REMARK       I    between atoms: C_14  and  N_15 
REMARK    3  A    between atoms: N_15  and  C_16 
ROOT
HETATM    1  C   UNL     1     -46.883  63.172 -46.419  1.00  0.00     0.048 C 
HETATM    2  C   UNL     1     -45.897  62.960 -47.530  1.00  0.00    -0.061 A 
HETATM    3  C   UNL     1     -45.919  61.775 -48.286  1.00  0.00     0.021 A 
HETATM    4  C   UNL     1     -44.983  61.590 -49.325  1.00  0.00     0.005 A 
HETATM    5  C   UNL     1     -44.041  62.595 -49.569  1.00  0.00     0.044 A 
HETATM    6  N   UNL     1     -43.258  62.181 -50.628  1.00  0.00    -0.350 N 
HETATM    7  H   UNL     1     -42.498  62.708 -51.039  1.00  0.00     0.166 HD
HETATM    8  C   UNL     1     -43.684  60.958 -51.059  1.00  0.00     0.116 A 
HETATM    9  C   UNL     1     -44.736  60.564 -50.272  1.00  0.00     0.028 A 
HETATM   10  C   UNL     1     -43.181  60.177 -52.151  1.00  0.00     0.291 A 
HETATM   11  O   UNL     1     -42.245  60.543 -52.854  1.00  0.00    -0.264 OA
HETATM   12  N   UNL     1     -43.868  58.958 -52.313  1.00  0.00    -0.224 N 
HETATM   13  N   UNL     1     -44.954  58.543 -51.513  1.00  0.00    -0.180 NA
HETATM   14  C   UNL     1     -45.366  59.303 -50.539  1.00  0.00     0.153 A 
HETATM   15  C   UNL     1     -43.989  63.774 -48.820  1.00  0.00     0.031 A 
HETATM   16  C   UNL     1     -44.931  63.936 -47.797  1.00  0.00     0.009 A 
ENDROOT
BRANCH  12  17
HETATM   17  C   UNL     1     -43.589  58.142 -53.484  1.00  0.00     0.258 C 
BRANCH  17  18
HETATM   18  C   UNL     1     -42.986  56.720 -53.478  1.00  0.00     0.244 C 
HETATM   19  N   UNL     1     -41.612  56.470 -53.398  1.00  0.00    -0.321 N 
HETATM   20  C   UNL     1     -40.610  57.528 -53.337  1.00  0.00     0.159 C 
HETATM   21  O   UNL     1     -43.822  55.806 -53.581  1.00  0.00    -0.271 OA
BRANCH  19  22
HETATM   22  C   UNL     1     -41.109  55.117 -53.442  1.00  0.00     0.037 A 
HETATM   23  C   UNL     1     -40.912  54.365 -52.274  1.00  0.00     0.037 A 
HETATM   24  C   UNL     1     -40.415  53.046 -52.306  1.00  0.00    -0.054 A 
HETATM   25  C   UNL     1     -40.234  52.306 -51.009  1.00  0.00     0.049 C 
HETATM   26  C   UNL     1     -40.080  52.465 -53.540  1.00  0.00    -0.056 A 
HETATM   27  C   UNL     1     -39.576  51.052 -53.644  1.00  0.00     0.049 C 
HETATM   28  C   UNL     1     -40.283  53.205 -54.712  1.00  0.00     0.009 A 
HETATM   29  C   UNL     1     -40.783  54.511 -54.662  1.00  0.00     0.030 A 
ENDBRANCH  19  22
ENDBRANCH  17  18
ENDBRANCH  12  17
TORSDOF 3
ENDMDL
MODEL 9
REMARK VINA RESULT:      -8.3      5.956      9.983
REMARK  3 active torsions:
REMARK  status: ('A' for Active; 'I' for Inactive)
REMARK    1  A    between atoms: N_12  and  C_13 
REMARK    2  A    between atoms: C_13  and  C_14 
REMARK       I    between atoms: C_14  and  N_15 
REMARK    3  A    between atoms: N_15  and  C_16 
ROOT
HETATM    1  C   UNL     1     -40.486  62.900 -63.290  1.00  0.00     0.048 C 
HETATM    2  C   UNL     1     -40.508  62.638 -61.812  1.00  0.00    -0.061 A 
HETATM    3  C   UNL     1     -41.387  61.685 -61.271  1.00  0.00     0.021 A 
HETATM    4  C   UNL     1     -41.397  61.453 -59.879  1.00  0.00     0.005 A 
HETATM    5  C   UNL     1     -40.533  62.194 -59.067  1.00  0.00     0.044 A 
HETATM    6  N   UNL     1     -40.726  61.777 -57.765  1.00  0.00    -0.350 N 
HETATM    7  H   UNL     1     -40.230  62.126 -56.955  1.00  0.00     0.166 HD
HETATM    8  C   UNL     1     -41.675  60.796 -57.738  1.00  0.00     0.116 A 
HETATM    9  C   UNL     1     -42.113  60.581 -59.020  1.00  0.00     0.028 A 
HETATM   10  C   UNL     1     -42.158  60.060 -56.606  1.00  0.00     0.291 A 
HETATM   11  O   UNL     1     -41.752  60.254 -55.465  1.00  0.00    -0.264 OA
HETATM   12  N   UNL     1     -43.142  59.112 -56.950  1.00  0.00    -0.224 N 
HETATM   13  N   UNL     1     -43.598  58.879 -58.265  1.00  0.00    -0.180 NA
HETATM   14  C   UNL     1     -43.113  59.580 -59.251  1.00  0.00     0.153 A 
HETATM   15  C   UNL     1     -39.661  63.159 -59.581  1.00  0.00     0.031 A 
HETATM   16  C   UNL     1     -39.666  63.368 -60.965  1.00  0.00     0.009 A 
ENDROOT
BRANCH  12  17
HETATM   17  C   UNL     1     -43.598  58.171 -55.941  1.00  0.00     0.258 C 
BRANCH  17  18
HETATM   18  C   UNL     1     -42.927  56.826 -55.584  1.00  0.00     0.244 C 
HETATM   19  N   UNL     1     -42.132  56.643 -54.446  1.00  0.00    -0.321 N 
HETATM   20  C   UNL     1     -41.838  57.711 -53.498  1.00  0.00     0.159 C 
HETATM   21  O   UNL     1     -43.124  55.917 -56.408  1.00  0.00    -0.271 OA
BRANCH  19  22
HETATM   22  C   UNL     1     -41.496  55.371 -54.193  1.00  0.00     0.037 A 
HETATM   23  C   UNL     1     -41.474  54.800 -52.912  1.00  0.00     0.037 A 
HETATM   24  C   UNL     1     -40.850  53.563 -52.652  1.00  0.00    -0.054 A 
HETATM   25  C   UNL     1     -40.872  53.017 -51.252  1.00  0.00     0.049 C 
HETATM   26  C   UNL     1     -40.205  52.883 -53.700  1.00  0.00    -0.056 A 
HETATM   27  C   UNL     1     -39.550  51.545 -53.496  1.00  0.00     0.049 C 
HETATM   28  C   UNL     1     -40.231  53.442 -54.984  1.00  0.00     0.009 A 
HETATM   29  C   UNL     1     -40.861  54.668 -55.224  1.00  0.00     0.030 A 
ENDBRANCH  19  22
ENDBRANCH  17  18
ENDBRANCH  12  17
TORSDOF 3
ENDMDL
MODEL 10
REMARK VINA RESULT:      -8.2      5.541      8.282
REMARK  3 active torsions:
REMARK  status: ('A' for Active; 'I' for Inactive)
REMARK    1  A    between atoms: N_12  and  C_13 
REMARK    2  A    between atoms: C_13  and  C_14 
REMARK       I    between atoms: C_14  and  N_15 
REMARK    3  A    between atoms: N_15  and  C_16 
ROOT
HETATM    1  C   UNL     1     -39.805  51.070 -50.982  1.00  0.00     0.048 C 
HETATM    2  C   UNL     1     -40.205  52.492 -51.248  1.00  0.00    -0.061 A 
HETATM    3  C   UNL     1     -40.613  52.889 -52.533  1.00  0.00     0.021 A 
HETATM    4  C   UNL     1     -40.983  54.230 -52.767  1.00  0.00     0.005 A 
HETATM    5  C   UNL     1     -40.921  55.140 -51.707  1.00  0.00     0.044 A 
HETATM    6  N   UNL     1     -41.339  56.365 -52.186  1.00  0.00    -0.350 N 
HETATM    7  H   UNL     1     -41.412  57.216 -51.643  1.00  0.00     0.166 HD
HETATM    8  C   UNL     1     -41.667  56.250 -53.506  1.00  0.00     0.116 A 
HETATM    9  C   UNL     1     -41.450  54.952 -53.894  1.00  0.00     0.028 A 
HETATM   10  C   UNL     1     -42.177  57.261 -54.385  1.00  0.00     0.291 A 
HETATM   11  O   UNL     1     -42.376  58.416 -54.025  1.00  0.00    -0.264 OA
HETATM   12  N   UNL     1     -42.410  56.783 -55.690  1.00  0.00    -0.224 N 
HETATM   13  N   UNL     1     -42.195  55.450 -56.101  1.00  0.00    -0.180 NA
HETATM   14  C   UNL     1     -41.734  54.579 -55.250  1.00  0.00     0.153 A 
HETATM   15  C   UNL     1     -40.503  54.772 -50.424  1.00  0.00     0.031 A 
HETATM   16  C   UNL     1     -40.145  53.435 -50.216  1.00  0.00     0.009 A 
ENDROOT
BRANCH  12  17
HETATM   17  C   UNL     1     -43.092  57.643 -56.644  1.00  0.00     0.258 C 
BRANCH  17  18
HETATM   18  C   UNL     1     -42.416  58.531 -57.712  1.00  0.00     0.244 C 
HETATM   19  N   UNL     1     -42.674  59.900 -57.845  1.00  0.00    -0.321 N 
HETATM   20  C   UNL     1     -43.623  60.620 -57.005  1.00  0.00     0.159 C 
HETATM   21  O   UNL     1     -41.642  57.924 -58.471  1.00  0.00    -0.271 OA
BRANCH  19  22
HETATM   22  C   UNL     1     -42.042  60.666 -58.894  1.00  0.00     0.037 A 
HETATM   23  C   UNL     1     -41.008  61.574 -58.624  1.00  0.00     0.037 A 
HETATM   24  C   UNL     1     -40.389  62.332 -59.639  1.00  0.00    -0.054 A 
HETATM   25  C   UNL     1     -39.285  63.282 -59.267  1.00  0.00     0.049 C 
HETATM   26  C   UNL     1     -40.832  62.198 -60.966  1.00  0.00    -0.056 A 
HETATM   27  C   UNL     1     -40.193  62.952 -62.098  1.00  0.00     0.049 C 
HETATM   28  C   UNL     1     -41.858  61.286 -61.246  1.00  0.00     0.009 A 
HETATM   29  C   UNL     1     -42.456  60.538 -60.226  1.00  0.00     0.030 A 
ENDBRANCH  19  22
ENDBRANCH  17  18
ENDBRANCH  12  17
TORSDOF 3
ENDMDL
