MODEL 1
REMARK VINA RESULT:      -7.5      0.000      0.000
REMARK  6 active torsions:
REMARK  status: ('A' for Active; 'I' for Inactive)
REMARK    1  A    between atoms: C_3  and  N_4 
REMARK    2  A    between atoms: N_4  and  C_5 
REMARK    3  A    between atoms: C_5  and  C_6 
REMARK    4  A    between atoms: N_8  and  C_10 
REMARK    5  A    between atoms: C_10  and  C_11 
REMARK    6  A    between atoms: C_12  and  O_13 
ROOT
HETATM    1  C   UNL     1     -44.005  56.347 -54.776  1.00  0.00     0.031 C 
HETATM    2  C   UNL     1     -43.386  55.007 -54.373  1.00  0.00     0.241 C 
HETATM    3  N   UNL     1     -42.449  55.328 -53.237  1.00  0.00    -0.067 N 
HETATM    4  H   UNL     1     -42.663  54.685 -52.450  1.00  0.00     0.280 HD
HETATM    5  C   UNL     1     -42.744  56.727 -52.755  1.00  0.00     0.235 C 
HETATM    6  C   UNL     1     -44.052  57.087 -53.440  1.00  0.00     0.035 C 
ENDROOT
BRANCH   3   7
HETATM    7  C   UNL     1     -40.994  55.036 -53.509  1.00  0.00     0.276 C 
BRANCH   7   8
HETATM    8  C   UNL     1     -40.533  53.726 -52.938  1.00  0.00     0.002 A 
HETATM    9  C   UNL     1     -40.353  53.569 -51.557  1.00  0.00     0.073 A 
HETATM   10  C   UNL     1     -39.947  52.353 -51.013  1.00  0.00     0.038 A 
HETATM   11  C   UNL     1     -39.708  51.268 -51.859  1.00  0.00     0.022 A 
HETATM   12  C   UNL     1     -39.880  51.409 -53.233  1.00  0.00     0.011 A 
HETATM   13 BR   UNL     1     -39.541  49.948 -54.381  1.00  0.00    -0.051 Br
HETATM   14  C   UNL     1     -40.295  52.626 -53.776  1.00  0.00     0.030 A 
BRANCH   9  15
HETATM   15  O   UNL     1     -40.561  54.658 -50.754  1.00  0.00    -0.360 OA
HETATM   16  H   UNL     1     -40.045  54.524 -49.932  1.00  0.00     0.217 HD
ENDBRANCH   9  15
ENDBRANCH   7   8
ENDBRANCH   3   7
BRANCH   1  17
HETATM   17  C   UNL     1     -43.174  57.065 -55.855  1.00  0.00     0.127 C 
BRANCH  17  18
HETATM   18  N   UNL     1     -42.642  56.106 -56.828  1.00  0.00    -0.376 N 
HETATM   19  H   UNL     1     -42.254  55.268 -56.403  1.00  0.00     0.161 HD
BRANCH  18  20
HETATM   20  C   UNL     1     -43.206  55.972 -58.086  1.00  0.00     0.100 A 
HETATM   21  C   UNL     1     -43.078  56.920 -59.110  1.00  0.00     0.048 A 
HETATM   22  C   UNL     1     -43.684  56.708 -60.348  1.00  0.00     0.005 A 
HETATM   23  C   UNL     1     -44.403  55.542 -60.567  1.00  0.00     0.017 A 
HETATM   24  C   UNL     1     -44.483  54.609 -59.548  1.00  0.00     0.089 A 
HETATM   25  N   UNL     1     -43.886  54.846 -58.369  1.00  0.00    -0.353 N 
HETATM   26  H   UNL     1     -43.956  54.131 -57.651  1.00  0.00     0.166 HD
ENDBRANCH  18  20
ENDBRANCH  17  18
ENDBRANCH   1  17
TORSDOF 6
ENDMDL
MODEL 2
REMARK VINA RESULT:      -7.1      1.695      2.210
REMARK  6 active torsions:
REMARK  status: ('A' for Active; 'I' for Inactive)
REMARK    1  A    between atoms: C_3  and  N_4 
REMARK    2  A    between atoms: N_4  and  C_5 
REMARK    3  A    between atoms: C_5  and  C_6 
REMARK    4  A    between atoms: N_8  and  C_10 
REMARK    5  A    between atoms: C_10  and  C_11 
REMARK    6  A    between atoms: C_12  and  O_13 
ROOT
HETATM    1  C   UNL     1     -44.045  56.567 -54.166  1.00  0.00     0.031 C 
HETATM    2  C   UNL     1     -43.337  55.237 -53.899  1.00  0.00     0.241 C 
HETATM    3  N   UNL     1     -42.479  55.482 -52.684  1.00  0.00    -0.067 N 
HETATM    4  H   UNL     1     -42.674  54.730 -51.994  1.00  0.00     0.280 HD
HETATM    5  C   UNL     1     -42.907  56.782 -52.051  1.00  0.00     0.235 C 
HETATM    6  C   UNL     1     -44.210  57.126 -52.754  1.00  0.00     0.035 C 
ENDROOT
BRANCH   3   7
HETATM    7  C   UNL     1     -40.994  55.337 -52.912  1.00  0.00     0.276 C 
BRANCH   7   8
HETATM    8  C   UNL     1     -40.565  53.918 -53.156  1.00  0.00     0.002 A 
HETATM    9  C   UNL     1     -40.287  53.466 -54.452  1.00  0.00     0.073 A 
HETATM   10  C   UNL     1     -39.868  52.159 -54.689  1.00  0.00     0.038 A 
HETATM   11  C   UNL     1     -39.726  51.278 -53.615  1.00  0.00     0.022 A 
HETATM   12  C   UNL     1     -40.001  51.713 -52.321  1.00  0.00     0.011 A 
HETATM   13 BR   UNL     1     -39.826  50.518 -50.867  1.00  0.00    -0.051 Br
HETATM   14  C   UNL     1     -40.413  53.025 -52.085  1.00  0.00     0.030 A 
BRANCH   9  15
HETATM   15  O   UNL     1     -40.468  54.340 -55.491  1.00  0.00    -0.360 OA
HETATM   16  H   UNL     1     -39.776  54.152 -56.159  1.00  0.00     0.217 HD
ENDBRANCH   9  15
ENDBRANCH   7   8
ENDBRANCH   3   7
BRANCH   1  17
HETATM   17  C   UNL     1     -43.230  57.476 -55.104  1.00  0.00     0.127 C 
BRANCH  17  18
HETATM   18  N   UNL     1     -42.340  56.682 -55.956  1.00  0.00    -0.376 N 
HETATM   19  H   UNL     1     -42.011  55.827 -55.517  1.00  0.00     0.161 HD
BRANCH  18  20
HETATM   20  C   UNL     1     -42.491  56.665 -57.333  1.00  0.00     0.100 A 
HETATM   21  C   UNL     1     -43.175  55.663 -58.036  1.00  0.00     0.048 A 
HETATM   22  C   UNL     1     -43.276  55.721 -59.426  1.00  0.00     0.005 A 
HETATM   23  C   UNL     1     -42.708  56.785 -60.110  1.00  0.00     0.017 A 
HETATM   24  C   UNL     1     -42.069  57.776 -59.385  1.00  0.00     0.089 A 
HETATM   25  N   UNL     1     -41.992  57.690 -58.048  1.00  0.00    -0.353 N 
HETATM   26  H   UNL     1     -41.526  58.443 -57.550  1.00  0.00     0.166 HD
ENDBRANCH  18  20
ENDBRANCH  17  18
ENDBRANCH   1  17
TORSDOF 6
ENDMDL
MODEL 3
REMARK VINA RESULT:      -6.8      2.196      3.341
REMARK  6 active torsions:
REMARK  status: ('A' for Active; 'I' for Inactive)
REMARK    1  A    between atoms: C_3  and  N_4 
REMARK    2  A    between atoms: N_4  and  C_5 
REMARK    3  A    between atoms: C_5  and  C_6 
REMARK    4  A    between atoms: N_8  and  C_10 
REMARK    5  A    between atoms: C_10  and  C_11 
REMARK    6  A    between atoms: C_12  and  O_13 
ROOT
HETATM    1  C   UNL     1     -44.864  58.094 -51.788  1.00  0.00     0.031 C 
HETATM    2  C   UNL     1     -43.951  57.018 -51.195  1.00  0.00     0.241 C 
HETATM    3  N   UNL     1     -42.659  57.725 -50.877  1.00  0.00    -0.067 N 
HETATM    4  H   UNL     1     -42.407  57.509 -49.893  1.00  0.00     0.280 HD
HETATM    5  C   UNL     1     -42.897  59.213 -50.954  1.00  0.00     0.235 C 
HETATM    6  C   UNL     1     -44.409  59.344 -51.035  1.00  0.00     0.035 C 
ENDROOT
BRANCH   3   7
HETATM    7  C   UNL     1     -41.455  57.227 -51.638  1.00  0.00     0.276 C 
BRANCH   7   8
HETATM    8  C   UNL     1     -41.143  55.782 -51.377  1.00  0.00     0.002 A 
HETATM    9  C   UNL     1     -41.065  55.289 -50.068  1.00  0.00     0.073 A 
HETATM   10  C   UNL     1     -40.797  53.947 -49.813  1.00  0.00     0.038 A 
HETATM   11  C   UNL     1     -40.595  53.072 -50.883  1.00  0.00     0.022 A 
HETATM   12  C   UNL     1     -40.667  53.547 -52.190  1.00  0.00     0.011 A 
HETATM   13 BR   UNL     1     -40.379  52.369 -53.638  1.00  0.00    -0.051 Br
HETATM   14  C   UNL     1     -40.945  54.891 -52.443  1.00  0.00     0.030 A 
BRANCH   9  15
HETATM   15  O   UNL     1     -41.232  56.176 -49.037  1.00  0.00    -0.360 OA
HETATM   16  H   UNL     1     -40.934  55.734 -48.215  1.00  0.00     0.217 HD
ENDBRANCH   9  15
ENDBRANCH   7   8
ENDBRANCH   3   7
BRANCH   1  17
HETATM   17  C   UNL     1     -44.713  58.201 -53.317  1.00  0.00     0.127 C 
BRANCH  17  18
HETATM   18  N   UNL     1     -45.117  56.951 -53.969  1.00  0.00    -0.376 N 
HETATM   19  H   UNL     1     -46.114  56.892 -54.155  1.00  0.00     0.161 HD
BRANCH  18  20
HETATM   20  C   UNL     1     -44.272  56.295 -54.850  1.00  0.00     0.100 A 
HETATM   21  C   UNL     1     -43.739  55.018 -54.624  1.00  0.00     0.048 A 
HETATM   22  C   UNL     1     -42.891  54.432 -55.563  1.00  0.00     0.005 A 
HETATM   23  C   UNL     1     -42.588  55.114 -56.732  1.00  0.00     0.017 A 
HETATM   24  C   UNL     1     -43.157  56.359 -56.942  1.00  0.00     0.089 A 
HETATM   25  N   UNL     1     -43.970  56.892 -56.017  1.00  0.00    -0.353 N 
HETATM   26  H   UNL     1     -44.379  57.802 -56.213  1.00  0.00     0.166 HD
ENDBRANCH  18  20
ENDBRANCH  17  18
ENDBRANCH   1  17
TORSDOF 6
ENDMDL
MODEL 4
REMARK VINA RESULT:      -6.6      2.960      6.877
REMARK  6 active torsions:
REMARK  status: ('A' for Active; 'I' for Inactive)
REMARK    1  A    between atoms: C_3  and  N_4 
REMARK    2  A    between atoms: N_4  and  C_5 
REMARK    3  A    between atoms: C_5  and  C_6 
REMARK    4  A    between atoms: N_8  and  C_10 
REMARK    5  A    between atoms: C_10  and  C_11 
REMARK    6  A    between atoms: C_12  and  O_13 
ROOT
HETATM    1  C   UNL     1     -42.928  56.940 -52.434  1.00  0.00     0.031 C 
HETATM    2  C   UNL     1     -42.035  57.539 -53.523  1.00  0.00     0.241 C 
HETATM    3  N   UNL     1     -42.823  57.406 -54.801  1.00  0.00    -0.067 N 
HETATM    4  H   UNL     1     -42.842  58.334 -55.266  1.00  0.00     0.280 HD
HETATM    5  C   UNL     1     -44.249  57.060 -54.448  1.00  0.00     0.235 C 
HETATM    6  C   UNL     1     -44.325  57.285 -52.947  1.00  0.00     0.035 C 
ENDROOT
BRANCH   3   7
HETATM    7  C   UNL     1     -42.190  56.528 -55.852  1.00  0.00     0.276 C 
BRANCH   7   8
HETATM    8  C   UNL     1     -42.712  56.785 -57.236  1.00  0.00     0.002 A 
HETATM    9  C   UNL     1     -42.549  58.038 -57.842  1.00  0.00     0.073 A 
HETATM   10  C   UNL     1     -43.008  58.283 -59.133  1.00  0.00     0.038 A 
HETATM   11  C   UNL     1     -43.651  57.263 -59.839  1.00  0.00     0.022 A 
HETATM   12  C   UNL     1     -43.822  56.013 -59.249  1.00  0.00     0.011 A 
HETATM   13 BR   UNL     1     -44.706  54.637 -60.194  1.00  0.00    -0.051 Br
HETATM   14  C   UNL     1     -43.353  55.768 -57.958  1.00  0.00     0.030 A 
BRANCH   9  15
HETATM   15  O   UNL     1     -41.946  59.030 -57.116  1.00  0.00    -0.360 OA
HETATM   16  H   UNL     1     -41.047  58.721 -56.881  1.00  0.00     0.217 HD
ENDBRANCH   9  15
ENDBRANCH   7   8
ENDBRANCH   3   7
BRANCH   1  17
HETATM   17  C   UNL     1     -42.686  55.429 -52.257  1.00  0.00     0.127 C 
BRANCH  17  18
HETATM   18  N   UNL     1     -41.251  55.132 -52.221  1.00  0.00    -0.376 N 
HETATM   19  H   UNL     1     -40.762  55.571 -51.446  1.00  0.00     0.161 HD
BRANCH  18  20
HETATM   20  C   UNL     1     -40.758  53.916 -52.668  1.00  0.00     0.100 A 
HETATM   21  C   UNL     1     -40.821  53.485 -54.000  1.00  0.00     0.048 A 
HETATM   22  C   UNL     1     -40.304  52.242 -54.364  1.00  0.00     0.005 A 
HETATM   23  C   UNL     1     -39.712  51.438 -53.401  1.00  0.00     0.017 A 
HETATM   24  C   UNL     1     -39.635  51.906 -52.101  1.00  0.00     0.089 A 
HETATM   25  N   UNL     1     -40.141  53.109 -51.786  1.00  0.00    -0.353 N 
HETATM   26  H   UNL     1     -40.053  53.424 -50.824  1.00  0.00     0.166 HD
ENDBRANCH  18  20
ENDBRANCH  17  18
ENDBRANCH   1  17
TORSDOF 6
ENDMDL
MODEL 5
REMARK VINA RESULT:      -6.6      3.111      6.655
REMARK  6 active torsions:
REMARK  status: ('A' for Active; 'I' for Inactive)
REMARK    1  A    between atoms: C_3  and  N_4 
REMARK    2  A    between atoms: N_4  and  C_5 
REMARK    3  A    between atoms: C_5  and  C_6 
REMARK    4  A    between atoms: N_8  and  C_10 
REMARK    5  A    between atoms: C_10  and  C_11 
REMARK    6  A    between atoms: C_12  and  O_13 
ROOT
HETATM    1  C   UNL     1     -42.218  55.586 -50.715  1.00  0.00     0.031 C 
HETATM    2  C   UNL     1     -41.356  56.485 -51.605  1.00  0.00     0.241 C 
HETATM    3  N   UNL     1     -42.169  56.701 -52.856  1.00  0.00    -0.067 N 
HETATM    4  H   UNL     1     -42.210  57.722 -53.041  1.00  0.00     0.280 HD
HETATM    5  C   UNL     1     -43.582  56.243 -52.593  1.00  0.00     0.235 C 
HETATM    6  C   UNL     1     -43.630  56.035 -51.088  1.00  0.00     0.035 C 
ENDROOT
BRANCH   3   7
HETATM    7  C   UNL     1     -41.545  56.167 -54.121  1.00  0.00     0.276 C 
BRANCH   7   8
HETATM    8  C   UNL     1     -42.097  56.795 -55.369  1.00  0.00     0.002 A 
HETATM    9  C   UNL     1     -42.113  58.187 -55.524  1.00  0.00     0.073 A 
HETATM   10  C   UNL     1     -42.602  58.780 -56.685  1.00  0.00     0.038 A 
HETATM   11  C   UNL     1     -43.094  57.975 -57.714  1.00  0.00     0.022 A 
HETATM   12  C   UNL     1     -43.087  56.589 -57.573  1.00  0.00     0.011 A 
HETATM   13 BR   UNL     1     -43.767  55.497 -58.957  1.00  0.00    -0.051 Br
HETATM   14  C   UNL     1     -42.588  55.996 -56.412  1.00  0.00     0.030 A 
BRANCH   9  15
HETATM   15  O   UNL     1     -41.657  58.955 -54.486  1.00  0.00    -0.360 OA
HETATM   16  H   UNL     1     -40.801  59.346 -54.761  1.00  0.00     0.217 HD
ENDBRANCH   9  15
ENDBRANCH   7   8
ENDBRANCH   3   7
BRANCH   1  17
HETATM   17  C   UNL     1     -41.952  54.092 -50.974  1.00  0.00     0.127 C 
BRANCH  17  18
HETATM   18  N   UNL     1     -40.643  53.897 -51.606  1.00  0.00    -0.376 N 
HETATM   19  H   UNL     1     -39.877  54.331 -51.098  1.00  0.00     0.161 HD
BRANCH  18  20
HETATM   20  C   UNL     1     -40.353  52.745 -52.319  1.00  0.00     0.100 A 
HETATM   21  C   UNL     1     -40.561  52.601 -53.697  1.00  0.00     0.048 A 
HETATM   22  C   UNL     1     -40.246  51.402 -54.336  1.00  0.00     0.005 A 
HETATM   23  C   UNL     1     -39.711  50.354 -53.601  1.00  0.00     0.017 A 
HETATM   24  C   UNL     1     -39.486  50.539 -52.248  1.00  0.00     0.089 A 
HETATM   25  N   UNL     1     -39.800  51.707 -51.665  1.00  0.00    -0.353 N 
HETATM   26  H   UNL     1     -39.607  51.809 -50.673  1.00  0.00     0.166 HD
ENDBRANCH  18  20
ENDBRANCH  17  18
ENDBRANCH   1  17
TORSDOF 6
ENDMDL
MODEL 6
REMARK VINA RESULT:      -6.6      2.742      3.841
REMARK  6 active torsions:
REMARK  status: ('A' for Active; 'I' for Inactive)
REMARK    1  A    between atoms: C_3  and  N_4 
REMARK    2  A    between atoms: N_4  and  C_5 
REMARK    3  A    between atoms: C_5  and  C_6 
REMARK    4  A    between atoms: N_8  and  C_10 
REMARK    5  A    between atoms: C_10  and  C_11 
REMARK    6  A    between atoms: C_12  and  O_13 
ROOT
HETATM    1  C   UNL     1     -41.453  59.478 -52.262  1.00  0.00     0.031 C 
HETATM    2  C   UNL     1     -42.558  58.955 -51.342  1.00  0.00     0.241 C 
HETATM    3  N   UNL     1     -41.948  57.785 -50.614  1.00  0.00    -0.067 N 
HETATM    4  H   UNL     1     -42.110  57.918 -49.597  1.00  0.00     0.280 HD
HETATM    5  C   UNL     1     -40.454  57.815 -50.829  1.00  0.00     0.235 C 
HETATM    6  C   UNL     1     -40.196  59.180 -51.446  1.00  0.00     0.035 C 
ENDROOT
BRANCH   3   7
HETATM    7  C   UNL     1     -42.608  56.455 -50.878  1.00  0.00     0.276 C 
BRANCH   7   8
HETATM    8  C   UNL     1     -41.649  55.299 -50.857  1.00  0.00     0.002 A 
HETATM    9  C   UNL     1     -41.015  54.915 -49.669  1.00  0.00     0.073 A 
HETATM   10  C   UNL     1     -40.141  53.832 -49.632  1.00  0.00     0.038 A 
HETATM   11  C   UNL     1     -39.884  53.116 -50.803  1.00  0.00     0.022 A 
HETATM   12  C   UNL     1     -40.505  53.488 -51.993  1.00  0.00     0.011 A 
HETATM   13 BR   UNL     1     -40.146  52.532 -53.582  1.00  0.00    -0.051 Br
HETATM   14  C   UNL     1     -41.388  54.568 -52.026  1.00  0.00     0.030 A 
BRANCH   9  15
HETATM   15  O   UNL     1     -41.258  55.655 -48.543  1.00  0.00    -0.360 OA
HETATM   16  H   UNL     1     -40.856  56.538 -48.676  1.00  0.00     0.217 HD
ENDBRANCH   9  15
ENDBRANCH   7   8
ENDBRANCH   3   7
BRANCH   1  17
HETATM   17  C   UNL     1     -41.476  58.793 -53.641  1.00  0.00     0.127 C 
BRANCH  17  18
HETATM   18  N   UNL     1     -42.787  58.188 -53.900  1.00  0.00    -0.376 N 
HETATM   19  H   UNL     1     -43.495  58.858 -54.188  1.00  0.00     0.161 HD
BRANCH  18  20
HETATM   20  C   UNL     1     -42.898  56.900 -54.398  1.00  0.00     0.100 A 
HETATM   21  C   UNL     1     -44.002  56.065 -54.180  1.00  0.00     0.048 A 
HETATM   22  C   UNL     1     -44.030  54.778 -54.714  1.00  0.00     0.005 A 
HETATM   23  C   UNL     1     -42.962  54.331 -55.479  1.00  0.00     0.017 A 
HETATM   24  C   UNL     1     -41.901  55.191 -55.705  1.00  0.00     0.089 A 
HETATM   25  N   UNL     1     -41.908  56.424 -55.176  1.00  0.00    -0.353 N 
HETATM   26  H   UNL     1     -41.118  57.031 -55.375  1.00  0.00     0.166 HD
ENDBRANCH  18  20
ENDBRANCH  17  18
ENDBRANCH   1  17
TORSDOF 6
ENDMDL
MODEL 7
REMARK VINA RESULT:      -6.6      3.172      5.092
REMARK  6 active torsions:
REMARK  status: ('A' for Active; 'I' for Inactive)
REMARK    1  A    between atoms: C_3  and  N_4 
REMARK    2  A    between atoms: N_4  and  C_5 
REMARK    3  A    between atoms: C_5  and  C_6 
REMARK    4  A    between atoms: N_8  and  C_10 
REMARK    5  A    between atoms: C_10  and  C_11 
REMARK    6  A    between atoms: C_12  and  O_13 
ROOT
HETATM    1  C   UNL     1     -40.829  54.945 -55.014  1.00  0.00     0.031 C 
HETATM    2  C   UNL     1     -41.137  55.842 -53.813  1.00  0.00     0.241 C 
HETATM    3  N   UNL     1     -41.766  54.933 -52.789  1.00  0.00    -0.067 N 
HETATM    4  H   UNL     1     -41.265  55.066 -51.888  1.00  0.00     0.280 HD
HETATM    5  C   UNL     1     -41.536  53.503 -53.214  1.00  0.00     0.235 C 
HETATM    6  C   UNL     1     -40.519  53.609 -54.338  1.00  0.00     0.035 C 
ENDROOT
BRANCH   3   7
HETATM    7  C   UNL     1     -43.190  55.273 -52.423  1.00  0.00     0.276 C 
BRANCH   7   8
HETATM    8  C   UNL     1     -43.521  56.725 -52.609  1.00  0.00     0.002 A 
HETATM    9  C   UNL     1     -44.380  57.139 -53.636  1.00  0.00     0.073 A 
HETATM   10  C   UNL     1     -44.713  58.480 -53.806  1.00  0.00     0.038 A 
HETATM   11  C   UNL     1     -44.176  59.436 -52.941  1.00  0.00     0.022 A 
HETATM   12  C   UNL     1     -43.320  59.041 -51.916  1.00  0.00     0.011 A 
HETATM   13 BR   UNL     1     -42.580  60.333 -50.754  1.00  0.00    -0.051 Br
HETATM   14  C   UNL     1     -42.995  57.694 -51.743  1.00  0.00     0.030 A 
BRANCH   9  15
HETATM   15  O   UNL     1     -44.864  56.186 -54.492  1.00  0.00    -0.360 OA
HETATM   16  H   UNL     1     -45.831  56.119 -54.344  1.00  0.00     0.217 HD
ENDBRANCH   9  15
ENDBRANCH   7   8
ENDBRANCH   3   7
BRANCH   1  17
HETATM   17  C   UNL     1     -42.007  54.881 -56.004  1.00  0.00     0.127 C 
BRANCH  17  18
HETATM   18  N   UNL     1     -42.343  56.220 -56.501  1.00  0.00    -0.376 N 
HETATM   19  H   UNL     1     -41.605  56.904 -56.357  1.00  0.00     0.161 HD
BRANCH  18  20
HETATM   20  C   UNL     1     -43.154  56.391 -57.610  1.00  0.00     0.100 A 
HETATM   21  C   UNL     1     -42.909  55.809 -58.861  1.00  0.00     0.048 A 
HETATM   22  C   UNL     1     -43.776  56.038 -59.929  1.00  0.00     0.005 A 
HETATM   23  C   UNL     1     -44.896  56.835 -59.742  1.00  0.00     0.017 A 
HETATM   24  C   UNL     1     -45.129  57.369 -58.486  1.00  0.00     0.089 A 
HETATM   25  N   UNL     1     -44.274  57.126 -57.481  1.00  0.00    -0.353 N 
HETATM   26  H   UNL     1     -44.487  57.524 -56.570  1.00  0.00     0.166 HD
ENDBRANCH  18  20
ENDBRANCH  17  18
ENDBRANCH   1  17
TORSDOF 6
ENDMDL
MODEL 8
REMARK VINA RESULT:      -6.5      3.436      6.770
REMARK  6 active torsions:
REMARK  status: ('A' for Active; 'I' for Inactive)
REMARK    1  A    between atoms: C_3  and  N_4 
REMARK    2  A    between atoms: N_4  and  C_5 
REMARK    3  A    between atoms: C_5  and  C_6 
REMARK    4  A    between atoms: N_8  and  C_10 
REMARK    5  A    between atoms: C_10  and  C_11 
REMARK    6  A    between atoms: C_12  and  O_13 
ROOT
HETATM    1  C   UNL     1     -40.346  54.929 -50.122  1.00  0.00     0.031 C 
HETATM    2  C   UNL     1     -40.925  55.697 -51.312  1.00  0.00     0.241 C 
HETATM    3  N   UNL     1     -42.418  55.513 -51.214  1.00  0.00    -0.067 N 
HETATM    4  H   UNL     1     -42.863  56.450 -51.273  1.00  0.00     0.280 HD
HETATM    5  C   UNL     1     -42.742  54.955 -49.851  1.00  0.00     0.235 C 
HETATM    6  C   UNL     1     -41.444  55.098 -49.073  1.00  0.00     0.035 C 
ENDROOT
BRANCH   3   7
HETATM    7  C   UNL     1     -43.047  54.781 -52.374  1.00  0.00     0.276 C 
BRANCH   7   8
HETATM    8  C   UNL     1     -43.475  55.690 -53.490  1.00  0.00     0.002 A 
HETATM    9  C   UNL     1     -44.270  56.815 -53.235  1.00  0.00     0.073 A 
HETATM   10  C   UNL     1     -44.655  57.677 -54.257  1.00  0.00     0.038 A 
HETATM   11  C   UNL     1     -44.247  57.416 -55.567  1.00  0.00     0.022 A 
HETATM   12  C   UNL     1     -43.457  56.301 -55.837  1.00  0.00     0.011 A 
HETATM   13 BR   UNL     1     -42.917  55.935 -57.610  1.00  0.00    -0.051 Br
HETATM   14  C   UNL     1     -43.065  55.442 -54.809  1.00  0.00     0.030 A 
BRANCH   9  15
HETATM   15  O   UNL     1     -44.686  57.029 -51.948  1.00  0.00    -0.360 OA
HETATM   16  H   UNL     1     -45.499  57.573 -51.985  1.00  0.00     0.217 HD
ENDBRANCH   9  15
ENDBRANCH   7   8
ENDBRANCH   3   7
BRANCH   1  17
HETATM   17  C   UNL     1     -40.043  53.461 -50.475  1.00  0.00     0.127 C 
BRANCH  17  18
HETATM   18  N   UNL     1     -39.898  53.293 -51.924  1.00  0.00    -0.376 N 
HETATM   19  H   UNL     1     -39.351  54.026 -52.367  1.00  0.00     0.161 HD
BRANCH  18  20
HETATM   20  C   UNL     1     -39.845  52.033 -52.499  1.00  0.00     0.100 A 
HETATM   21  C   UNL     1     -39.561  50.857 -51.791  1.00  0.00     0.048 A 
HETATM   22  C   UNL     1     -39.523  49.629 -52.450  1.00  0.00     0.005 A 
HETATM   23  C   UNL     1     -39.783  49.574 -53.812  1.00  0.00     0.017 A 
HETATM   24  C   UNL     1     -40.094  50.748 -54.477  1.00  0.00     0.089 A 
HETATM   25  N   UNL     1     -40.123  51.912 -53.810  1.00  0.00    -0.353 N 
HETATM   26  H   UNL     1     -40.368  52.750 -54.330  1.00  0.00     0.166 HD
ENDBRANCH  18  20
ENDBRANCH  17  18
ENDBRANCH   1  17
TORSDOF 6
ENDMDL
MODEL 9
REMARK VINA RESULT:      -6.5      3.727      7.274
REMARK  6 active torsions:
REMARK  status: ('A' for Active; 'I' for Inactive)
REMARK    1  A    between atoms: C_3  and  N_4 
REMARK    2  A    between atoms: N_4  and  C_5 
REMARK    3  A    between atoms: C_5  and  C_6 
REMARK    4  A    between atoms: N_8  and  C_10 
REMARK    5  A    between atoms: C_10  and  C_11 
REMARK    6  A    between atoms: C_12  and  O_13 
ROOT
HETATM    1  C   UNL     1     -42.280  54.429 -55.379  1.00  0.00     0.031 C 
HETATM    2  C   UNL     1     -42.920  55.208 -54.227  1.00  0.00     0.241 C 
HETATM    3  N   UNL     1     -42.738  56.661 -54.581  1.00  0.00    -0.067 N 
HETATM    4  H   UNL     1     -43.662  57.130 -54.502  1.00  0.00     0.280 HD
HETATM    5  C   UNL     1     -42.320  56.752 -56.027  1.00  0.00     0.235 C 
HETATM    6  C   UNL     1     -42.548  55.351 -56.568  1.00  0.00     0.035 C 
ENDROOT
BRANCH   3   7
HETATM    7  C   UNL     1     -41.889  57.451 -53.615  1.00  0.00     0.276 C 
BRANCH   7   8
HETATM    8  C   UNL     1     -42.565  58.691 -53.105  1.00  0.00     0.002 A 
HETATM    9  C   UNL     1     -42.196  59.956 -53.580  1.00  0.00     0.073 A 
HETATM   10  C   UNL     1     -42.829  61.112 -53.131  1.00  0.00     0.038 A 
HETATM   11  C   UNL     1     -43.850  61.011 -52.183  1.00  0.00     0.022 A 
HETATM   12  C   UNL     1     -44.227  59.761 -51.700  1.00  0.00     0.011 A 
HETATM   13 BR   UNL     1     -45.596  59.624 -50.405  1.00  0.00    -0.051 Br
HETATM   14  C   UNL     1     -43.596  58.603 -52.158  1.00  0.00     0.030 A 
BRANCH   9  15
HETATM   15  O   UNL     1     -41.169  60.029 -54.483  1.00  0.00    -0.360 OA
HETATM   16  H   UNL     1     -40.370  59.660 -54.053  1.00  0.00     0.217 HD
ENDBRANCH   9  15
ENDBRANCH   7   8
ENDBRANCH   3   7
BRANCH   1  17
HETATM   17  C   UNL     1     -40.786  54.155 -55.129  1.00  0.00     0.127 C 
BRANCH  17  18
HETATM   18  N   UNL     1     -40.564  53.686 -53.758  1.00  0.00    -0.376 N 
HETATM   19  H   UNL     1     -41.115  54.183 -53.063  1.00  0.00     0.161 HD
BRANCH  18  20
HETATM   20  C   UNL     1     -40.262  52.360 -53.492  1.00  0.00     0.100 A 
HETATM   21  C   UNL     1     -40.397  51.322 -54.423  1.00  0.00     0.048 A 
HETATM   22  C   UNL     1     -40.075  50.011 -54.070  1.00  0.00     0.005 A 
HETATM   23  C   UNL     1     -39.605  49.743 -52.792  1.00  0.00     0.017 A 
HETATM   24  C   UNL     1     -39.452  50.794 -51.906  1.00  0.00     0.089 A 
HETATM   25  N   UNL     1     -39.770  52.044 -52.280  1.00  0.00    -0.353 N 
HETATM   26  H   UNL     1     -39.630  52.791 -51.606  1.00  0.00     0.166 HD
ENDBRANCH  18  20
ENDBRANCH  17  18
ENDBRANCH   1  17
TORSDOF 6
ENDMDL
MODEL 10
REMARK VINA RESULT:      -6.5      3.345      7.074
REMARK  6 active torsions:
REMARK  status: ('A' for Active; 'I' for Inactive)
REMARK    1  A    between atoms: C_3  and  N_4 
REMARK    2  A    between atoms: N_4  and  C_5 
REMARK    3  A    between atoms: C_5  and  C_6 
REMARK    4  A    between atoms: N_8  and  C_10 
REMARK    5  A    between atoms: C_10  and  C_11 
REMARK    6  A    between atoms: C_12  and  O_13 
ROOT
HETATM    1  C   UNL     1     -41.353  56.759 -52.893  1.00  0.00     0.031 C 
HETATM    2  C   UNL     1     -41.289  56.799 -54.422  1.00  0.00     0.241 C 
HETATM    3  N   UNL     1     -42.412  57.712 -54.842  1.00  0.00    -0.067 N 
HETATM    4  H   UNL     1     -42.023  58.423 -55.492  1.00  0.00     0.280 HD
HETATM    5  C   UNL     1     -42.908  58.452 -53.624  1.00  0.00     0.235 C 
HETATM    6  C   UNL     1     -41.860  58.162 -52.562  1.00  0.00     0.035 C 
ENDROOT
BRANCH   3   7
HETATM    7  C   UNL     1     -43.484  57.059 -55.679  1.00  0.00     0.276 C 
BRANCH   7   8
HETATM    8  C   UNL     1     -43.165  57.037 -57.146  1.00  0.00     0.002 A 
HETATM    9  C   UNL     1     -43.205  55.839 -57.871  1.00  0.00     0.073 A 
HETATM   10  C   UNL     1     -42.932  55.809 -59.236  1.00  0.00     0.038 A 
HETATM   11  C   UNL     1     -42.604  56.994 -59.897  1.00  0.00     0.022 A 
HETATM   12  C   UNL     1     -42.558  58.193 -59.189  1.00  0.00     0.011 A 
HETATM   13 BR   UNL     1     -42.100  59.796 -60.078  1.00  0.00    -0.051 Br
HETATM   14  C   UNL     1     -42.841  58.222 -57.823  1.00  0.00     0.030 A 
BRANCH   9  15
HETATM   15  O   UNL     1     -43.494  54.686 -57.191  1.00  0.00    -0.360 OA
HETATM   16  H   UNL     1     -43.549  54.909 -56.239  1.00  0.00     0.217 HD
ENDBRANCH   9  15
ENDBRANCH   7   8
ENDBRANCH   3   7
BRANCH   1  17
HETATM   17  C   UNL     1     -42.268  55.630 -52.384  1.00  0.00     0.127 C 
BRANCH  17  18
HETATM   18  N   UNL     1     -42.252  54.490 -53.305  1.00  0.00    -0.376 N 
HETATM   19  H   UNL     1     -42.530  54.728 -54.253  1.00  0.00     0.161 HD
BRANCH  18  20
HETATM   20  C   UNL     1     -41.337  53.460 -53.156  1.00  0.00     0.100 A 
HETATM   21  C   UNL     1     -40.925  52.619 -54.199  1.00  0.00     0.048 A 
HETATM   22  C   UNL     1     -40.001  51.601 -53.960  1.00  0.00     0.005 A 
HETATM   23  C   UNL     1     -39.480  51.435 -52.686  1.00  0.00     0.017 A 
HETATM   24  C   UNL     1     -39.881  52.303 -51.685  1.00  0.00     0.089 A 
HETATM   25  N   UNL     1     -40.771  53.272 -51.950  1.00  0.00    -0.353 N 
HETATM   26  H   UNL     1     -41.030  53.898 -51.193  1.00  0.00     0.166 HD
ENDBRANCH  18  20
ENDBRANCH  17  18
ENDBRANCH   1  17
TORSDOF 6
ENDMDL
