MODEL 1
REMARK VINA RESULT:      -7.1      0.000      0.000
REMARK  6 active torsions:
REMARK  status: ('A' for Active; 'I' for Inactive)
REMARK    1  A    between atoms: C_2  and  C_3 
REMARK    2  A    between atoms: C_7  and  O_8 
REMARK    3  A    between atoms: O_8  and  C_9 
REMARK    4  A    between atoms: C_9  and  C_10 
REMARK       I    between atoms: C_10  and  N_11 
REMARK    5  A    between atoms: N_11  and  N_12 
REMARK    6  A    between atoms: C_13  and  C_14 
ROOT
HETATM    1  C   UNL     1     -40.917  59.201 -52.818  1.00  0.00     0.261 C 
HETATM    2  N   UNL     1     -41.608  58.519 -51.828  1.00  0.00    -0.246 N 
HETATM    3  O   UNL     1     -39.700  59.158 -52.997  1.00  0.00    -0.269 OA
HETATM    4  H   UNL     1     -42.606  58.669 -51.724  1.00  0.00     0.192 HD
ENDROOT
BRANCH   1   5
HETATM    5  C   UNL     1     -41.807  60.112 -53.658  1.00  0.00     0.280 C 
BRANCH   5   6
HETATM    6  O   UNL     1     -43.006  59.456 -54.067  1.00  0.00    -0.341 OA
BRANCH   6   7
HETATM    7  C   UNL     1     -42.967  58.933 -55.336  1.00  0.00     0.086 A 
HETATM    8  C   UNL     1     -43.897  57.946 -55.674  1.00  0.00     0.044 A 
HETATM    9  C   UNL     1     -43.911  57.391 -56.962  1.00  0.00     0.029 A 
HETATM   10 BR   UNL     1     -45.159  57.301 -54.410  1.00  0.00    -0.048 Br
HETATM   11  C   UNL     1     -43.013  57.822 -57.959  1.00  0.00    -0.049 A 
HETATM   12  C   UNL     1     -42.099  58.826 -57.605  1.00  0.00     0.011 A 
HETATM   13  C   UNL     1     -42.079  59.378 -56.315  1.00  0.00     0.039 A 
BRANCH  11  14
HETATM   14  C   UNL     1     -43.058  57.200 -59.367  1.00  0.00    -0.024 C 
HETATM   15  C   UNL     1     -43.192  55.665 -59.260  1.00  0.00     0.019 C 
HETATM   16  C   UNL     1     -41.758  57.544 -60.122  1.00  0.00     0.019 C 
HETATM   17  C   UNL     1     -44.240  57.696 -60.231  1.00  0.00     0.019 C 
ENDBRANCH  11  14
ENDBRANCH   6   7
ENDBRANCH   5   6
ENDBRANCH   1   5
BRANCH   2  18
HETATM   18  N   UNL     1     -40.927  57.761 -50.928  1.00  0.00    -0.184 NA
HETATM   19  C   UNL     1     -41.158  56.488 -50.822  1.00  0.00     0.152 C 
BRANCH  19  20
HETATM   20  C   UNL     1     -42.037  55.664 -51.631  1.00  0.00     0.011 A 
HETATM   21  C   UNL     1     -41.878  55.401 -53.033  1.00  0.00     0.004 A 
HETATM   22  C   UNL     1     -42.959  54.619 -53.442  1.00  0.00     0.043 A 
HETATM   23  C   UNL     1     -40.907  55.755 -53.995  1.00  0.00     0.014 A 
HETATM   24  C   UNL     1     -43.121  54.179 -54.761  1.00  0.00     0.030 A 
HETATM   25  N   UNL     1     -43.756  54.422 -52.338  1.00  0.00    -0.364 N 
HETATM   26  C   UNL     1     -42.146  54.547 -55.693  1.00  0.00     0.002 A 
HETATM   27  C   UNL     1     -41.054  55.324 -55.318  1.00  0.00     0.001 A 
HETATM   28  H   UNL     1     -44.625  53.906 -52.344  1.00  0.00     0.165 HD
HETATM   29  C   UNL     1     -43.224  55.065 -51.251  1.00  0.00     0.102 A 
ENDBRANCH  19  20
ENDBRANCH   2  18
TORSDOF 6
ENDMDL
MODEL 2
REMARK VINA RESULT:      -6.9      1.483      1.924
REMARK  6 active torsions:
REMARK  status: ('A' for Active; 'I' for Inactive)
REMARK    1  A    between atoms: C_2  and  C_3 
REMARK    2  A    between atoms: C_7  and  O_8 
REMARK    3  A    between atoms: O_8  and  C_9 
REMARK    4  A    between atoms: C_9  and  C_10 
REMARK       I    between atoms: C_10  and  N_11 
REMARK    5  A    between atoms: N_11  and  N_12 
REMARK    6  A    between atoms: C_13  and  C_14 
ROOT
HETATM    1  C   UNL     1     -41.211  59.299 -52.934  1.00  0.00     0.261 C 
HETATM    2  N   UNL     1     -41.867  58.776 -51.831  1.00  0.00    -0.246 N 
HETATM    3  O   UNL     1     -40.011  59.173 -53.176  1.00  0.00    -0.269 OA
HETATM    4  H   UNL     1     -42.849  58.988 -51.689  1.00  0.00     0.192 HD
ENDROOT
BRANCH   1   5
HETATM    5  C   UNL     1     -42.110  60.150 -53.826  1.00  0.00     0.280 C 
BRANCH   5   6
HETATM    6  O   UNL     1     -41.608  60.238 -55.159  1.00  0.00    -0.341 OA
BRANCH   6   7
HETATM    7  C   UNL     1     -42.182  59.360 -56.045  1.00  0.00     0.086 A 
HETATM    8  C   UNL     1     -42.118  59.659 -57.409  1.00  0.00     0.044 A 
HETATM    9  C   UNL     1     -42.674  58.788 -58.356  1.00  0.00     0.029 A 
HETATM   10 BR   UNL     1     -41.302  61.256 -58.034  1.00  0.00    -0.048 Br
HETATM   11  C   UNL     1     -43.288  57.579 -57.973  1.00  0.00    -0.049 A 
HETATM   12  C   UNL     1     -43.326  57.288 -56.601  1.00  0.00     0.011 A 
HETATM   13  C   UNL     1     -42.777  58.162 -55.650  1.00  0.00     0.039 A 
BRANCH  11  14
HETATM   14  C   UNL     1     -43.882  56.637 -59.037  1.00  0.00    -0.024 C 
HETATM   15  C   UNL     1     -43.154  56.839 -60.384  1.00  0.00     0.019 C 
HETATM   16  C   UNL     1     -45.382  56.948 -59.219  1.00  0.00     0.019 C 
HETATM   17  C   UNL     1     -43.762  55.137 -58.681  1.00  0.00     0.019 C 
ENDBRANCH  11  14
ENDBRANCH   6   7
ENDBRANCH   5   6
ENDBRANCH   1   5
BRANCH   2  18
HETATM   18  N   UNL     1     -41.166  58.095 -50.886  1.00  0.00    -0.184 NA
HETATM   19  C   UNL     1     -41.306  56.811 -50.751  1.00  0.00     0.152 C 
BRANCH  19  20
HETATM   20  C   UNL     1     -42.091  55.902 -51.565  1.00  0.00     0.011 A 
HETATM   21  C   UNL     1     -41.754  55.464 -52.889  1.00  0.00     0.004 A 
HETATM   22  C   UNL     1     -42.792  54.650 -53.343  1.00  0.00     0.043 A 
HETATM   23  C   UNL     1     -40.652  55.684 -53.746  1.00  0.00     0.014 A 
HETATM   24  C   UNL     1     -42.788  54.050 -54.608  1.00  0.00     0.030 A 
HETATM   25  N   UNL     1     -43.734  54.602 -52.343  1.00  0.00    -0.364 N 
HETATM   26  C   UNL     1     -41.686  54.287 -55.436  1.00  0.00     0.002 A 
HETATM   27  C   UNL     1     -40.632  55.092 -55.014  1.00  0.00     0.001 A 
HETATM   28  H   UNL     1     -44.609  54.099 -52.404  1.00  0.00     0.165 HD
HETATM   29  C   UNL     1     -43.335  55.370 -51.280  1.00  0.00     0.102 A 
ENDBRANCH  19  20
ENDBRANCH   2  18
TORSDOF 6
ENDMDL
MODEL 3
REMARK VINA RESULT:      -6.8      2.170      2.902
REMARK  6 active torsions:
REMARK  status: ('A' for Active; 'I' for Inactive)
REMARK    1  A    between atoms: C_2  and  C_3 
REMARK    2  A    between atoms: C_7  and  O_8 
REMARK    3  A    between atoms: O_8  and  C_9 
REMARK    4  A    between atoms: C_9  and  C_10 
REMARK       I    between atoms: C_10  and  N_11 
REMARK    5  A    between atoms: N_11  and  N_12 
REMARK    6  A    between atoms: C_13  and  C_14 
ROOT
HETATM    1  C   UNL     1     -45.281  58.199 -51.181  1.00  0.00     0.261 C 
HETATM    2  N   UNL     1     -44.484  57.065 -51.169  1.00  0.00    -0.246 N 
HETATM    3  O   UNL     1     -46.311  58.353 -50.526  1.00  0.00    -0.269 OA
HETATM    4  H   UNL     1     -43.686  57.010 -51.793  1.00  0.00     0.192 HD
ENDROOT
BRANCH   1   5
HETATM    5  C   UNL     1     -44.810  59.258 -52.173  1.00  0.00     0.280 C 
BRANCH   5   6
HETATM    6  O   UNL     1     -43.527  58.947 -52.715  1.00  0.00    -0.341 OA
BRANCH   6   7
HETATM    7  C   UNL     1     -43.542  58.558 -54.032  1.00  0.00     0.086 A 
HETATM    8  C   UNL     1     -42.366  58.043 -54.584  1.00  0.00     0.044 A 
HETATM    9  C   UNL     1     -42.332  57.616 -55.919  1.00  0.00     0.029 A 
HETATM   10 BR   UNL     1     -40.768  57.916 -53.565  1.00  0.00    -0.048 Br
HETATM   11  C   UNL     1     -43.478  57.668 -56.737  1.00  0.00    -0.049 A 
HETATM   12  C   UNL     1     -44.653  58.173 -56.160  1.00  0.00     0.011 A 
HETATM   13  C   UNL     1     -44.687  58.607 -54.826  1.00  0.00     0.039 A 
BRANCH  11  14
HETATM   14  C   UNL     1     -43.413  57.184 -58.198  1.00  0.00    -0.024 C 
HETATM   15  C   UNL     1     -43.193  55.656 -58.237  1.00  0.00     0.019 C 
HETATM   16  C   UNL     1     -42.244  57.884 -58.920  1.00  0.00     0.019 C 
HETATM   17  C   UNL     1     -44.697  57.476 -59.010  1.00  0.00     0.019 C 
ENDBRANCH  11  14
ENDBRANCH   6   7
ENDBRANCH   5   6
ENDBRANCH   1   5
BRANCH   2  18
HETATM   18  N   UNL     1     -44.849  55.989 -50.421  1.00  0.00    -0.184 NA
HETATM   19  C   UNL     1     -44.112  54.921 -50.388  1.00  0.00     0.152 C 
BRANCH  19  20
HETATM   20  C   UNL     1     -42.817  54.704 -51.005  1.00  0.00     0.011 A 
HETATM   21  C   UNL     1     -42.581  54.508 -52.407  1.00  0.00     0.004 A 
HETATM   22  C   UNL     1     -41.216  54.276 -52.578  1.00  0.00     0.043 A 
HETATM   23  C   UNL     1     -43.408  54.511 -53.551  1.00  0.00     0.014 A 
HETATM   24  C   UNL     1     -40.638  54.042 -53.832  1.00  0.00     0.030 A 
HETATM   25  N   UNL     1     -40.640  54.314 -51.330  1.00  0.00    -0.364 N 
HETATM   26  C   UNL     1     -41.481  54.047 -54.947  1.00  0.00     0.002 A 
HETATM   27  C   UNL     1     -42.847  54.278 -54.812  1.00  0.00     0.001 A 
HETATM   28  H   UNL     1     -39.658  54.158 -51.147  1.00  0.00     0.165 HD
HETATM   29  C   UNL     1     -41.595  54.547 -50.376  1.00  0.00     0.102 A 
ENDBRANCH  19  20
ENDBRANCH   2  18
TORSDOF 6
ENDMDL
MODEL 4
REMARK VINA RESULT:      -6.8      2.558      6.081
REMARK  6 active torsions:
REMARK  status: ('A' for Active; 'I' for Inactive)
REMARK    1  A    between atoms: C_2  and  C_3 
REMARK    2  A    between atoms: C_7  and  O_8 
REMARK    3  A    between atoms: O_8  and  C_9 
REMARK    4  A    between atoms: C_9  and  C_10 
REMARK       I    between atoms: C_10  and  N_11 
REMARK    5  A    between atoms: N_11  and  N_12 
REMARK    6  A    between atoms: C_13  and  C_14 
ROOT
HETATM    1  C   UNL     1     -42.480  59.691 -54.128  1.00  0.00     0.261 C 
HETATM    2  N   UNL     1     -43.057  59.433 -55.362  1.00  0.00    -0.246 N 
HETATM    3  O   UNL     1     -41.295  59.966 -53.939  1.00  0.00    -0.269 OA
HETATM    4  H   UNL     1     -44.031  59.154 -55.407  1.00  0.00     0.192 HD
ENDROOT
BRANCH   1   5
HETATM    5  C   UNL     1     -43.447  59.522 -52.961  1.00  0.00     0.280 C 
BRANCH   5   6
HETATM    6  O   UNL     1     -42.768  59.501 -51.705  1.00  0.00    -0.341 OA
BRANCH   6   7
HETATM    7  C   UNL     1     -42.353  58.257 -51.300  1.00  0.00     0.086 A 
HETATM    8  C   UNL     1     -41.081  58.134 -50.735  1.00  0.00     0.044 A 
HETATM    9  C   UNL     1     -40.616  56.889 -50.289  1.00  0.00     0.029 A 
HETATM   10 BR   UNL     1     -39.926  59.632 -50.565  1.00  0.00    -0.048 Br
HETATM   11  C   UNL     1     -41.416  55.732 -50.371  1.00  0.00    -0.049 A 
HETATM   12  C   UNL     1     -42.697  55.879 -50.926  1.00  0.00     0.011 A 
HETATM   13  C   UNL     1     -43.162  57.123 -51.379  1.00  0.00     0.039 A 
BRANCH  11  14
HETATM   14  C   UNL     1     -40.882  54.380 -49.865  1.00  0.00    -0.024 C 
HETATM   15  C   UNL     1     -41.804  53.237 -50.344  1.00  0.00     0.019 C 
HETATM   16  C   UNL     1     -40.841  54.387 -48.323  1.00  0.00     0.019 C 
HETATM   17  C   UNL     1     -39.456  54.046 -50.363  1.00  0.00     0.019 C 
ENDBRANCH  11  14
ENDBRANCH   6   7
ENDBRANCH   5   6
ENDBRANCH   1   5
BRANCH   2  18
HETATM   18  N   UNL     1     -42.286  59.430 -56.482  1.00  0.00    -0.184 NA
HETATM   19  C   UNL     1     -42.000  58.318 -57.089  1.00  0.00     0.152 C 
BRANCH  19  20
HETATM   20  C   UNL     1     -42.477  56.982 -56.787  1.00  0.00     0.011 A 
HETATM   21  C   UNL     1     -41.985  56.135 -55.739  1.00  0.00     0.004 A 
HETATM   22  C   UNL     1     -42.662  54.918 -55.824  1.00  0.00     0.043 A 
HETATM   23  C   UNL     1     -41.022  56.295 -54.718  1.00  0.00     0.014 A 
HETATM   24  C   UNL     1     -42.423  53.854 -54.946  1.00  0.00     0.030 A 
HETATM   25  N   UNL     1     -43.525  55.010 -56.890  1.00  0.00    -0.364 N 
HETATM   26  C   UNL     1     -41.463  54.039 -53.947  1.00  0.00     0.002 A 
HETATM   27  C   UNL     1     -40.771  55.241 -53.832  1.00  0.00     0.001 A 
HETATM   28  H   UNL     1     -44.133  54.264 -57.202  1.00  0.00     0.165 HD
HETATM   29  C   UNL     1     -43.406  56.236 -57.491  1.00  0.00     0.102 A 
ENDBRANCH  19  20
ENDBRANCH   2  18
TORSDOF 6
ENDMDL
MODEL 5
REMARK VINA RESULT:      -6.7      3.150      6.210
REMARK  6 active torsions:
REMARK  status: ('A' for Active; 'I' for Inactive)
REMARK    1  A    between atoms: C_2  and  C_3 
REMARK    2  A    between atoms: C_7  and  O_8 
REMARK    3  A    between atoms: O_8  and  C_9 
REMARK    4  A    between atoms: C_9  and  C_10 
REMARK       I    between atoms: C_10  and  N_11 
REMARK    5  A    between atoms: N_11  and  N_12 
REMARK    6  A    between atoms: C_13  and  C_14 
ROOT
HETATM    1  C   UNL     1     -41.583  58.160 -52.498  1.00  0.00     0.261 C 
HETATM    2  N   UNL     1     -40.990  58.464 -53.713  1.00  0.00    -0.246 N 
HETATM    3  O   UNL     1     -42.551  58.745 -52.011  1.00  0.00    -0.269 OA
HETATM    4  H   UNL     1     -40.157  57.962 -53.999  1.00  0.00     0.192 HD
ENDROOT
BRANCH   1   5
HETATM    5  C   UNL     1     -40.867  57.050 -51.736  1.00  0.00     0.280 C 
BRANCH   5   6
HETATM    6  O   UNL     1     -41.725  55.936 -51.486  1.00  0.00    -0.341 OA
BRANCH   6   7
HETATM    7  C   UNL     1     -41.281  54.745 -52.003  1.00  0.00     0.086 A 
HETATM    8  C   UNL     1     -40.638  53.849 -51.144  1.00  0.00     0.044 A 
HETATM    9  C   UNL     1     -40.180  52.611 -51.618  1.00  0.00     0.029 A 
HETATM   10 BR   UNL     1     -40.339  54.272 -49.317  1.00  0.00    -0.048 Br
HETATM   11  C   UNL     1     -40.372  52.219 -52.957  1.00  0.00    -0.049 A 
HETATM   12  C   UNL     1     -41.035  53.125 -53.799  1.00  0.00     0.011 A 
HETATM   13  C   UNL     1     -41.487  54.367 -53.329  1.00  0.00     0.039 A 
BRANCH  11  14
HETATM   14  C   UNL     1     -39.866  50.850 -53.447  1.00  0.00    -0.024 C 
HETATM   15  C   UNL     1     -38.533  51.022 -54.208  1.00  0.00     0.019 C 
HETATM   16  C   UNL     1     -40.912  50.223 -54.391  1.00  0.00     0.019 C 
HETATM   17  C   UNL     1     -39.607  49.836 -52.308  1.00  0.00     0.019 C 
ENDBRANCH  11  14
ENDBRANCH   6   7
ENDBRANCH   5   6
ENDBRANCH   1   5
BRANCH   2  18
HETATM   18  N   UNL     1     -41.450  59.513 -54.447  1.00  0.00    -0.184 NA
HETATM   19  C   UNL     1     -42.124  59.315 -55.538  1.00  0.00     0.152 C 
BRANCH  19  20
HETATM   20  C   UNL     1     -42.574  58.055 -56.101  1.00  0.00     0.011 A 
HETATM   21  C   UNL     1     -42.456  57.665 -57.477  1.00  0.00     0.004 A 
HETATM   22  C   UNL     1     -43.061  56.415 -57.615  1.00  0.00     0.043 A 
HETATM   23  C   UNL     1     -41.884  58.262 -58.621  1.00  0.00     0.014 A 
HETATM   24  C   UNL     1     -43.127  55.736 -58.838  1.00  0.00     0.030 A 
HETATM   25  N   UNL     1     -43.542  56.060 -56.377  1.00  0.00    -0.364 N 
HETATM   26  C   UNL     1     -42.555  56.352 -59.955  1.00  0.00     0.002 A 
HETATM   27  C   UNL     1     -41.942  57.597 -59.851  1.00  0.00     0.001 A 
HETATM   28  H   UNL     1     -44.048  55.206 -56.183  1.00  0.00     0.165 HD
HETATM   29  C   UNL     1     -43.276  57.047 -55.466  1.00  0.00     0.102 A 
ENDBRANCH  19  20
ENDBRANCH   2  18
TORSDOF 6
ENDMDL
MODEL 6
REMARK VINA RESULT:      -6.7      2.902      6.103
REMARK  6 active torsions:
REMARK  status: ('A' for Active; 'I' for Inactive)
REMARK    1  A    between atoms: C_2  and  C_3 
REMARK    2  A    between atoms: C_7  and  O_8 
REMARK    3  A    between atoms: O_8  and  C_9 
REMARK    4  A    between atoms: C_9  and  C_10 
REMARK       I    between atoms: C_10  and  N_11 
REMARK    5  A    between atoms: N_11  and  N_12 
REMARK    6  A    between atoms: C_13  and  C_14 
ROOT
HETATM    1  C   UNL     1     -41.374  58.436 -52.697  1.00  0.00     0.261 C 
HETATM    2  N   UNL     1     -41.603  58.423 -54.064  1.00  0.00    -0.246 N 
HETATM    3  O   UNL     1     -41.117  59.436 -52.028  1.00  0.00    -0.269 OA
HETATM    4  H   UNL     1     -41.747  57.536 -54.536  1.00  0.00     0.192 HD
ENDROOT
BRANCH   1   5
HETATM    5  C   UNL     1     -41.384  57.046 -52.069  1.00  0.00     0.280 C 
BRANCH   5   6
HETATM    6  O   UNL     1     -42.150  56.120 -52.837  1.00  0.00    -0.341 OA
BRANCH   6   7
HETATM    7  C   UNL     1     -41.599  54.867 -52.939  1.00  0.00     0.086 A 
HETATM    8  C   UNL     1     -41.710  54.191 -54.157  1.00  0.00     0.044 A 
HETATM    9  C   UNL     1     -41.150  52.915 -54.319  1.00  0.00     0.029 A 
HETATM   10 BR   UNL     1     -42.636  54.953 -55.630  1.00  0.00    -0.048 Br
HETATM   11  C   UNL     1     -40.440  52.286 -53.277  1.00  0.00    -0.049 A 
HETATM   12  C   UNL     1     -40.324  52.989 -52.068  1.00  0.00     0.011 A 
HETATM   13  C   UNL     1     -40.890  54.262 -51.901  1.00  0.00     0.039 A 
BRANCH  11  14
HETATM   14  C   UNL     1     -39.828  50.889 -53.487  1.00  0.00    -0.024 C 
HETATM   15  C   UNL     1     -39.644  50.185 -52.125  1.00  0.00     0.019 C 
HETATM   16  C   UNL     1     -38.455  51.028 -54.176  1.00  0.00     0.019 C 
HETATM   17  C   UNL     1     -40.692  49.954 -54.364  1.00  0.00     0.019 C 
ENDBRANCH  11  14
ENDBRANCH   6   7
ENDBRANCH   5   6
ENDBRANCH   1   5
BRANCH   2  18
HETATM   18  N   UNL     1     -41.507  59.576 -54.778  1.00  0.00    -0.184 NA
HETATM   19  C   UNL     1     -42.152  59.722 -55.895  1.00  0.00     0.152 C 
BRANCH  19  20
HETATM   20  C   UNL     1     -43.099  58.812 -56.511  1.00  0.00     0.011 A 
HETATM   21  C   UNL     1     -42.935  58.171 -57.784  1.00  0.00     0.004 A 
HETATM   22  C   UNL     1     -44.090  57.430 -58.037  1.00  0.00     0.043 A 
HETATM   23  C   UNL     1     -41.903  58.151 -58.748  1.00  0.00     0.014 A 
HETATM   24  C   UNL     1     -44.267  56.675 -59.203  1.00  0.00     0.030 A 
HETATM   25  N   UNL     1     -44.934  57.620 -56.968  1.00  0.00    -0.364 N 
HETATM   26  C   UNL     1     -43.230  56.675 -60.141  1.00  0.00     0.002 A 
HETATM   27  C   UNL     1     -42.064  57.401 -59.919  1.00  0.00     0.001 A 
HETATM   28  H   UNL     1     -45.858  57.217 -56.889  1.00  0.00     0.165 HD
HETATM   29  C   UNL     1     -44.359  58.467 -56.057  1.00  0.00     0.102 A 
ENDBRANCH  19  20
ENDBRANCH   2  18
TORSDOF 6
ENDMDL
MODEL 7
REMARK VINA RESULT:      -6.6      3.471      6.940
REMARK  6 active torsions:
REMARK  status: ('A' for Active; 'I' for Inactive)
REMARK    1  A    between atoms: C_2  and  C_3 
REMARK    2  A    between atoms: C_7  and  O_8 
REMARK    3  A    between atoms: O_8  and  C_9 
REMARK    4  A    between atoms: C_9  and  C_10 
REMARK       I    between atoms: C_10  and  N_11 
REMARK    5  A    between atoms: N_11  and  N_12 
REMARK    6  A    between atoms: C_13  and  C_14 
ROOT
HETATM    1  C   UNL     1     -42.022  58.090 -55.073  1.00  0.00     0.261 C 
HETATM    2  N   UNL     1     -42.360  57.829 -56.391  1.00  0.00    -0.246 N 
HETATM    3  O   UNL     1     -41.531  59.139 -54.657  1.00  0.00    -0.269 OA
HETATM    4  H   UNL     1     -42.702  56.908 -56.645  1.00  0.00     0.192 HD
ENDROOT
BRANCH   1   5
HETATM    5  C   UNL     1     -42.236  56.897 -54.146  1.00  0.00     0.280 C 
BRANCH   5   6
HETATM    6  O   UNL     1     -41.025  56.493 -53.509  1.00  0.00    -0.341 OA
BRANCH   6   7
HETATM    7  C   UNL     1     -40.743  55.154 -53.613  1.00  0.00     0.086 A 
HETATM    8  C   UNL     1     -40.812  54.370 -52.458  1.00  0.00     0.044 A 
HETATM    9  C   UNL     1     -40.550  52.994 -52.513  1.00  0.00     0.029 A 
HETATM   10 BR   UNL     1     -41.239  55.132 -50.771  1.00  0.00    -0.048 Br
HETATM   11  C   UNL     1     -40.235  52.353 -53.727  1.00  0.00    -0.049 A 
HETATM   12  C   UNL     1     -40.188  53.153 -54.879  1.00  0.00     0.011 A 
HETATM   13  C   UNL     1     -40.443  54.532 -54.825  1.00  0.00     0.039 A 
BRANCH  11  14
HETATM   14  C   UNL     1     -39.961  50.838 -53.758  1.00  0.00    -0.024 C 
HETATM   15  C   UNL     1     -41.168  50.097 -54.373  1.00  0.00     0.019 C 
HETATM   16  C   UNL     1     -39.730  50.328 -52.321  1.00  0.00     0.019 C 
HETATM   17  C   UNL     1     -38.719  50.445 -54.592  1.00  0.00     0.019 C 
ENDBRANCH  11  14
ENDBRANCH   6   7
ENDBRANCH   5   6
ENDBRANCH   1   5
BRANCH   2  18
HETATM   18  N   UNL     1     -42.111  58.760 -57.351  1.00  0.00    -0.184 NA
HETATM   19  C   UNL     1     -42.410  58.531 -58.593  1.00  0.00     0.152 C 
BRANCH  19  20
HETATM   20  C   UNL     1     -43.098  57.384 -59.154  1.00  0.00     0.011 A 
HETATM   21  C   UNL     1     -44.498  57.318 -59.464  1.00  0.00     0.004 A 
HETATM   22  C   UNL     1     -44.769  56.030 -59.925  1.00  0.00     0.043 A 
HETATM   23  C   UNL     1     -45.563  58.243 -59.397  1.00  0.00     0.014 A 
HETATM   24  C   UNL     1     -46.049  55.618 -60.318  1.00  0.00     0.030 A 
HETATM   25  N   UNL     1     -43.587  55.329 -59.887  1.00  0.00    -0.364 N 
HETATM   26  C   UNL     1     -47.085  56.554 -60.238  1.00  0.00     0.002 A 
HETATM   27  C   UNL     1     -46.848  57.848 -59.785  1.00  0.00     0.001 A 
HETATM   28  H   UNL     1     -43.488  54.357 -60.147  1.00  0.00     0.165 HD
HETATM   29  C   UNL     1     -42.582  56.125 -59.403  1.00  0.00     0.102 A 
ENDBRANCH  19  20
ENDBRANCH   2  18
TORSDOF 6
ENDMDL
MODEL 8
REMARK VINA RESULT:      -6.5      1.978      2.126
REMARK  6 active torsions:
REMARK  status: ('A' for Active; 'I' for Inactive)
REMARK    1  A    between atoms: C_2  and  C_3 
REMARK    2  A    between atoms: C_7  and  O_8 
REMARK    3  A    between atoms: O_8  and  C_9 
REMARK    4  A    between atoms: C_9  and  C_10 
REMARK       I    between atoms: C_10  and  N_11 
REMARK    5  A    between atoms: N_11  and  N_12 
REMARK    6  A    between atoms: C_13  and  C_14 
ROOT
HETATM    1  C   UNL     1     -41.498  58.876 -52.202  1.00  0.00     0.261 C 
HETATM    2  N   UNL     1     -41.354  57.498 -52.251  1.00  0.00    -0.246 N 
HETATM    3  O   UNL     1     -41.714  59.535 -51.185  1.00  0.00    -0.269 OA
HETATM    4  H   UNL     1     -41.239  57.041 -53.149  1.00  0.00     0.192 HD
ENDROOT
BRANCH   1   5
HETATM    5  C   UNL     1     -41.447  59.538 -53.576  1.00  0.00     0.280 C 
BRANCH   5   6
HETATM    6  O   UNL     1     -42.732  59.576 -54.196  1.00  0.00    -0.341 OA
BRANCH   6   7
HETATM    7  C   UNL     1     -42.772  59.049 -55.463  1.00  0.00     0.086 A 
HETATM    8  C   UNL     1     -43.668  58.007 -55.719  1.00  0.00     0.044 A 
HETATM    9  C   UNL     1     -43.760  57.445 -57.000  1.00  0.00     0.029 A 
HETATM   10 BR   UNL     1     -44.779  57.300 -54.351  1.00  0.00    -0.048 Br
HETATM   11  C   UNL     1     -42.977  57.920 -58.070  1.00  0.00    -0.049 A 
HETATM   12  C   UNL     1     -42.096  58.977 -57.797  1.00  0.00     0.011 A 
HETATM   13  C   UNL     1     -41.997  59.537 -56.514  1.00  0.00     0.039 A 
BRANCH  11  14
HETATM   14  C   UNL     1     -43.105  57.288 -59.469  1.00  0.00    -0.024 C 
HETATM   15  C   UNL     1     -43.176  55.750 -59.347  1.00  0.00     0.019 C 
HETATM   16  C   UNL     1     -41.879  57.674 -60.322  1.00  0.00     0.019 C 
HETATM   17  C   UNL     1     -44.366  57.737 -60.244  1.00  0.00     0.019 C 
ENDBRANCH  11  14
ENDBRANCH   6   7
ENDBRANCH   5   6
ENDBRANCH   1   5
BRANCH   2  18
HETATM   18  N   UNL     1     -41.496  56.763 -51.116  1.00  0.00    -0.184 NA
HETATM   19  C   UNL     1     -41.658  55.476 -51.174  1.00  0.00     0.152 C 
BRANCH  19  20
HETATM   20  C   UNL     1     -41.627  54.618 -52.344  1.00  0.00     0.011 A 
HETATM   21  C   UNL     1     -40.840  53.426 -52.485  1.00  0.00     0.004 A 
HETATM   22  C   UNL     1     -41.047  52.933 -53.773  1.00  0.00     0.043 A 
HETATM   23  C   UNL     1     -39.969  52.718 -51.628  1.00  0.00     0.014 A 
HETATM   24  C   UNL     1     -40.426  51.771 -54.249  1.00  0.00     0.030 A 
HETATM   25  N   UNL     1     -41.916  53.794 -54.401  1.00  0.00    -0.364 N 
HETATM   26  C   UNL     1     -39.566  51.092 -53.381  1.00  0.00     0.002 A 
HETATM   27  C   UNL     1     -39.339  51.556 -52.089  1.00  0.00     0.001 A 
HETATM   28  H   UNL     1     -42.229  53.695 -55.357  1.00  0.00     0.165 HD
HETATM   29  C   UNL     1     -42.251  54.823 -53.560  1.00  0.00     0.102 A 
ENDBRANCH  19  20
ENDBRANCH   2  18
TORSDOF 6
ENDMDL
MODEL 9
REMARK VINA RESULT:      -6.5     17.080     19.077
REMARK  6 active torsions:
REMARK  status: ('A' for Active; 'I' for Inactive)
REMARK    1  A    between atoms: C_2  and  C_3 
REMARK    2  A    between atoms: C_7  and  O_8 
REMARK    3  A    between atoms: O_8  and  C_9 
REMARK    4  A    between atoms: C_9  and  C_10 
REMARK       I    between atoms: C_10  and  N_11 
REMARK    5  A    between atoms: N_11  and  N_12 
REMARK    6  A    between atoms: C_13  and  C_14 
ROOT
HETATM    1  C   UNL     1     -32.984  39.673 -53.233  1.00  0.00     0.261 C 
HETATM    2  N   UNL     1     -34.021  39.992 -52.370  1.00  0.00    -0.246 N 
HETATM    3  O   UNL     1     -32.083  40.437 -53.578  1.00  0.00    -0.269 OA
HETATM    4  H   UNL     1     -34.751  39.310 -52.196  1.00  0.00     0.192 HD
ENDROOT
BRANCH   1   5
HETATM    5  C   UNL     1     -33.091  38.266 -53.813  1.00  0.00     0.280 C 
BRANCH   5   6
HETATM    6  O   UNL     1     -32.686  38.223 -55.181  1.00  0.00    -0.341 OA
BRANCH   6   7
HETATM    7  C   UNL     1     -33.719  38.260 -56.085  1.00  0.00     0.086 A 
HETATM    8  C   UNL     1     -33.425  38.057 -57.436  1.00  0.00     0.044 A 
HETATM    9  C   UNL     1     -34.446  38.069 -58.397  1.00  0.00     0.029 A 
HETATM   10 BR   UNL     1     -31.643  37.779 -58.029  1.00  0.00    -0.048 Br
HETATM   11  C   UNL     1     -35.795  38.259 -58.036  1.00  0.00    -0.049 A 
HETATM   12  C   UNL     1     -36.071  38.444 -56.673  1.00  0.00     0.011 A 
HETATM   13  C   UNL     1     -35.050  38.440 -55.710  1.00  0.00     0.039 A 
BRANCH  11  14
HETATM   14  C   UNL     1     -36.895  38.258 -59.113  1.00  0.00    -0.024 C 
HETATM   15  C   UNL     1     -38.279  38.445 -58.452  1.00  0.00     0.019 C 
HETATM   16  C   UNL     1     -36.872  36.915 -59.871  1.00  0.00     0.019 C 
HETATM   17  C   UNL     1     -36.742  39.383 -60.163  1.00  0.00     0.019 C 
ENDBRANCH  11  14
ENDBRANCH   6   7
ENDBRANCH   5   6
ENDBRANCH   1   5
BRANCH   2  18
HETATM   18  N   UNL     1     -34.121  41.252 -51.869  1.00  0.00    -0.184 NA
HETATM   19  C   UNL     1     -35.036  42.067 -52.297  1.00  0.00     0.152 C 
BRANCH  19  20
HETATM   20  C   UNL     1     -36.107  41.801 -53.239  1.00  0.00     0.011 A 
HETATM   21  C   UNL     1     -36.010  41.908 -54.667  1.00  0.00     0.004 A 
HETATM   22  C   UNL     1     -37.269  41.628 -55.199  1.00  0.00     0.043 A 
HETATM   23  C   UNL     1     -34.960  42.217 -55.559  1.00  0.00     0.014 A 
HETATM   24  C   UNL     1     -37.531  41.644 -56.574  1.00  0.00     0.030 A 
HETATM   25  N   UNL     1     -38.107  41.371 -54.140  1.00  0.00    -0.364 N 
HETATM   26  C   UNL     1     -36.474  41.956 -57.434  1.00  0.00     0.002 A 
HETATM   27  C   UNL     1     -35.206  42.239 -56.937  1.00  0.00     0.001 A 
HETATM   28  H   UNL     1     -39.091  41.156 -54.227  1.00  0.00     0.165 HD
HETATM   29  C   UNL     1     -37.426  41.495 -52.957  1.00  0.00     0.102 A 
ENDBRANCH  19  20
ENDBRANCH   2  18
TORSDOF 6
ENDMDL
MODEL 10
REMARK VINA RESULT:      -6.4      4.026      6.596
REMARK  6 active torsions:
REMARK  status: ('A' for Active; 'I' for Inactive)
REMARK    1  A    between atoms: C_2  and  C_3 
REMARK    2  A    between atoms: C_7  and  O_8 
REMARK    3  A    between atoms: O_8  and  C_9 
REMARK    4  A    between atoms: C_9  and  C_10 
REMARK       I    between atoms: C_10  and  N_11 
REMARK    5  A    between atoms: N_11  and  N_12 
REMARK    6  A    between atoms: C_13  and  C_14 
ROOT
HETATM    1  C   UNL     1     -43.721  56.618 -55.110  1.00  0.00     0.261 C 
HETATM    2  N   UNL     1     -43.008  55.461 -54.839  1.00  0.00    -0.246 N 
HETATM    3  O   UNL     1     -43.687  57.245 -56.168  1.00  0.00    -0.269 OA
HETATM    4  H   UNL     1     -43.057  55.051 -53.912  1.00  0.00     0.192 HD
ENDROOT
BRANCH   1   5
HETATM    5  C   UNL     1     -44.526  57.125 -53.918  1.00  0.00     0.280 C 
BRANCH   5   6
HETATM    6  O   UNL     1     -43.733  57.204 -52.734  1.00  0.00    -0.341 OA
BRANCH   6   7
HETATM    7  C   UNL     1     -44.045  58.253 -51.905  1.00  0.00     0.086 A 
HETATM    8  C   UNL     1     -43.140  59.313 -51.806  1.00  0.00     0.044 A 
HETATM    9  C   UNL     1     -43.419  60.415 -50.987  1.00  0.00     0.029 A 
HETATM   10 BR   UNL     1     -41.494  59.298 -52.754  1.00  0.00    -0.048 Br
HETATM   11  C   UNL     1     -44.622  60.506 -50.259  1.00  0.00    -0.049 A 
HETATM   12  C   UNL     1     -45.526  59.440 -50.385  1.00  0.00     0.011 A 
HETATM   13  C   UNL     1     -45.246  58.332 -51.199  1.00  0.00     0.039 A 
BRANCH  11  14
HETATM   14  C   UNL     1     -44.905  61.733 -49.374  1.00  0.00    -0.024 C 
HETATM   15  C   UNL     1     -44.831  61.336 -47.883  1.00  0.00     0.019 C 
HETATM   16  C   UNL     1     -46.315  62.277 -49.684  1.00  0.00     0.019 C 
HETATM   17  C   UNL     1     -43.907  62.896 -49.581  1.00  0.00     0.019 C 
ENDBRANCH  11  14
ENDBRANCH   6   7
ENDBRANCH   5   6
ENDBRANCH   1   5
BRANCH   2  18
HETATM   18  N   UNL     1     -42.154  54.959 -55.770  1.00  0.00    -0.184 NA
HETATM   19  C   UNL     1     -41.113  54.269 -55.414  1.00  0.00     0.152 C 
BRANCH  19  20
HETATM   20  C   UNL     1     -40.730  53.843 -54.081  1.00  0.00     0.011 A 
HETATM   21  C   UNL     1     -40.353  52.511 -53.706  1.00  0.00     0.004 A 
HETATM   22  C   UNL     1     -40.120  52.508 -52.330  1.00  0.00     0.043 A 
HETATM   23  C   UNL     1     -40.184  51.301 -54.415  1.00  0.00     0.014 A 
HETATM   24  C   UNL     1     -39.732  51.360 -51.628  1.00  0.00     0.030 A 
HETATM   25  N   UNL     1     -40.358  53.785 -51.878  1.00  0.00    -0.364 N 
HETATM   26  C   UNL     1     -39.575  50.177 -52.355  1.00  0.00     0.002 A 
HETATM   27  C   UNL     1     -39.797  50.144 -53.729  1.00  0.00     0.001 A 
HETATM   28  H   UNL     1     -40.287  54.073 -50.911  1.00  0.00     0.165 HD
HETATM   29  C   UNL     1     -40.748  54.589 -52.917  1.00  0.00     0.102 A 
ENDBRANCH  19  20
ENDBRANCH   2  18
TORSDOF 6
ENDMDL
