MODEL 1
REMARK VINA RESULT:      -8.6      0.000      0.000
REMARK  4 active torsions:
REMARK  status: ('A' for Active; 'I' for Inactive)
REMARK    1  A    between atoms: C_2  and  C_3 
REMARK       I    between atoms: N_10  and  C_11 
REMARK    2  A    between atoms: C_11  and  C_12 
REMARK    3  A    between atoms: C_16  and  C_17 
REMARK    4  A    between atoms: C_18  and  O_19 
ROOT
HETATM    1  C   UNL     1     -42.549  58.745 -51.509  1.00  0.00     0.068 A 
HETATM    2  N   UNL     1     -43.475  59.561 -50.979  1.00  0.00    -0.178 NA
HETATM    3  N   UNL     1     -44.408  59.686 -51.941  1.00  0.00    -0.281 N 
HETATM    4  H   UNL     1     -45.226  60.253 -51.747  1.00  0.00     0.189 HD
HETATM    5  C   UNL     1     -44.110  58.967 -53.054  1.00  0.00     0.039 A 
HETATM    6  C   UNL     1     -42.893  58.370 -52.831  1.00  0.00     0.011 A 
HETATM    7  C   UNL     1     -42.215  57.490 -53.814  1.00  0.00     0.169 C 
HETATM    8  N   UNL     1     -43.189  57.021 -54.824  1.00  0.00    -0.342 N 
HETATM    9  C   UNL     1     -42.880  55.968 -55.699  1.00  0.00     0.272 C 
HETATM   10  O   UNL     1     -43.373  55.911 -56.825  1.00  0.00    -0.266 OA
HETATM   11  C   UNL     1     -44.121  58.052 -55.344  1.00  0.00     0.132 C 
HETATM   12  C   UNL     1     -44.953  58.764 -54.251  1.00  0.00     0.079 C 
ENDROOT
BRANCH   9  13
HETATM   13  C   UNL     1     -41.930  54.962 -55.292  1.00  0.00     0.120 C 
HETATM   14  N   UNL     1     -40.591  55.115 -55.525  1.00  0.00    -0.272 N 
HETATM   15  H   UNL     1     -40.144  55.888 -56.011  1.00  0.00     0.189 HD
HETATM   16  N   UNL     1     -39.825  54.156 -54.977  1.00  0.00    -0.174 NA
HETATM   17  C   UNL     1     -40.705  53.288 -54.443  1.00  0.00     0.092 C 
HETATM   18  C   UNL     1     -42.033  53.710 -54.722  1.00  0.00     0.071 C 
BRANCH  17  19
HETATM   19  C   UNL     1     -40.256  52.119 -53.674  1.00  0.00     0.028 A 
HETATM   20  C   UNL     1     -39.908  52.213 -52.314  1.00  0.00     0.078 A 
HETATM   21  C   UNL     1     -39.523  51.089 -51.583  1.00  0.00     0.037 A 
HETATM   22  C   UNL     1     -39.490  49.840 -52.197  1.00  0.00     0.003 A 
HETATM   23  C   UNL     1     -39.834  49.719 -53.541  1.00  0.00     0.001 A 
HETATM   24  C   UNL     1     -40.212  50.849 -54.275  1.00  0.00     0.017 A 
BRANCH  20  25
HETATM   25  O   UNL     1     -39.939  53.398 -51.622  1.00  0.00    -0.360 OA
HETATM   26  H   UNL     1     -39.415  54.039 -52.156  1.00  0.00     0.217 HD
ENDBRANCH  20  25
ENDBRANCH  17  19
ENDBRANCH   9  13
BRANCH   1  27
HETATM   27  C   UNL     1     -41.367  58.280 -50.701  1.00  0.00     0.032 C 
HETATM   28  C   UNL     1     -40.067  58.875 -51.251  1.00  0.00     0.016 C 
HETATM   29  C   UNL     1     -41.265  56.757 -50.612  1.00  0.00     0.016 C 
ENDBRANCH   1  27
TORSDOF 4
ENDMDL
MODEL 2
REMARK VINA RESULT:      -8.6      2.801      6.975
REMARK  4 active torsions:
REMARK  status: ('A' for Active; 'I' for Inactive)
REMARK    1  A    between atoms: C_2  and  C_3 
REMARK       I    between atoms: N_10  and  C_11 
REMARK    2  A    between atoms: C_11  and  C_12 
REMARK    3  A    between atoms: C_16  and  C_17 
REMARK    4  A    between atoms: C_18  and  O_19 
ROOT
HETATM    1  C   UNL     1     -40.088  52.146 -52.063  1.00  0.00     0.068 A 
HETATM    2  N   UNL     1     -39.929  51.313 -51.022  1.00  0.00    -0.178 NA
HETATM    3  N   UNL     1     -40.305  52.033 -49.950  1.00  0.00    -0.281 N 
HETATM    4  H   UNL     1     -40.284  51.587 -49.039  1.00  0.00     0.189 HD
HETATM    5  C   UNL     1     -40.709  53.287 -50.278  1.00  0.00     0.039 A 
HETATM    6  C   UNL     1     -40.550  53.416 -51.637  1.00  0.00     0.011 A 
HETATM    7  C   UNL     1     -40.884  54.648 -52.392  1.00  0.00     0.169 C 
HETATM    8  N   UNL     1     -41.778  55.506 -51.583  1.00  0.00    -0.342 N 
HETATM    9  C   UNL     1     -42.463  56.588 -52.157  1.00  0.00     0.272 C 
HETATM   10  O   UNL     1     -42.746  57.586 -51.494  1.00  0.00    -0.266 OA
HETATM   11  C   UNL     1     -41.409  55.648 -50.153  1.00  0.00     0.132 C 
HETATM   12  C   UNL     1     -41.304  54.307 -49.389  1.00  0.00     0.079 C 
ENDROOT
BRANCH   9  13
HETATM   13  C   UNL     1     -42.797  56.554 -53.560  1.00  0.00     0.120 C 
HETATM   14  N   UNL     1     -44.086  56.372 -53.979  1.00  0.00    -0.272 N 
HETATM   15  H   UNL     1     -44.898  56.214 -53.389  1.00  0.00     0.189 HD
HETATM   16  N   UNL     1     -44.254  56.489 -55.307  1.00  0.00    -0.174 NA
HETATM   17  C   UNL     1     -43.009  56.662 -55.789  1.00  0.00     0.092 C 
HETATM   18  C   UNL     1     -42.064  56.595 -54.728  1.00  0.00     0.071 C 
BRANCH  17  19
HETATM   19  C   UNL     1     -42.768  56.908 -57.217  1.00  0.00     0.028 A 
HETATM   20  C   UNL     1     -43.182  55.999 -58.208  1.00  0.00     0.078 A 
HETATM   21  C   UNL     1     -42.984  56.262 -59.564  1.00  0.00     0.037 A 
HETATM   22  C   UNL     1     -42.376  57.451 -59.959  1.00  0.00     0.003 A 
HETATM   23  C   UNL     1     -41.961  58.370 -58.997  1.00  0.00     0.001 A 
HETATM   24  C   UNL     1     -42.153  58.100 -57.638  1.00  0.00     0.017 A 
BRANCH  20  25
HETATM   25  O   UNL     1     -43.813  54.817 -57.912  1.00  0.00    -0.360 OA
HETATM   26  H   UNL     1     -44.764  54.954 -58.131  1.00  0.00     0.217 HD
ENDBRANCH  20  25
ENDBRANCH  17  19
ENDBRANCH   9  13
BRANCH   1  27
HETATM   27  C   UNL     1     -39.854  51.682 -53.476  1.00  0.00     0.032 C 
HETATM   28  C   UNL     1     -41.024  52.085 -54.379  1.00  0.00     0.016 C 
HETATM   29  C   UNL     1     -39.592  50.179 -53.576  1.00  0.00     0.016 C 
ENDBRANCH   1  27
TORSDOF 4
ENDMDL
MODEL 3
REMARK VINA RESULT:      -8.4      2.353      4.286
REMARK  4 active torsions:
REMARK  status: ('A' for Active; 'I' for Inactive)
REMARK    1  A    between atoms: C_2  and  C_3 
REMARK       I    between atoms: N_10  and  C_11 
REMARK    2  A    between atoms: C_11  and  C_12 
REMARK    3  A    between atoms: C_16  and  C_17 
REMARK    4  A    between atoms: C_18  and  O_19 
ROOT
HETATM    1  C   UNL     1     -43.594  57.693 -58.250  1.00  0.00     0.068 A 
HETATM    2  N   UNL     1     -43.953  58.865 -58.798  1.00  0.00    -0.178 NA
HETATM    3  N   UNL     1     -44.511  59.556 -57.787  1.00  0.00    -0.281 N 
HETATM    4  H   UNL     1     -44.843  60.496 -57.972  1.00  0.00     0.189 HD
HETATM    5  C   UNL     1     -44.505  58.866 -56.617  1.00  0.00     0.039 A 
HETATM    6  C   UNL     1     -43.951  57.637 -56.881  1.00  0.00     0.011 A 
HETATM    7  C   UNL     1     -43.762  56.582 -55.855  1.00  0.00     0.169 C 
HETATM    8  N   UNL     1     -43.840  57.177 -54.502  1.00  0.00    -0.342 N 
HETATM    9  C   UNL     1     -43.426  56.463 -53.368  1.00  0.00     0.272 C 
HETATM   10  O   UNL     1     -43.942  56.659 -52.268  1.00  0.00    -0.266 OA
HETATM   11  C   UNL     1     -44.935  58.158 -54.295  1.00  0.00     0.132 C 
HETATM   12  C   UNL     1     -44.914  59.349 -55.282  1.00  0.00     0.079 C 
ENDROOT
BRANCH   9  13
HETATM   13  C   UNL     1     -42.413  55.444 -53.501  1.00  0.00     0.120 C 
HETATM   14  N   UNL     1     -41.115  55.766 -53.785  1.00  0.00    -0.272 N 
HETATM   15  H   UNL     1     -40.745  56.697 -53.958  1.00  0.00     0.189 HD
HETATM   16  N   UNL     1     -40.270  54.722 -53.753  1.00  0.00    -0.174 NA
HETATM   17  C   UNL     1     -41.062  53.656 -53.532  1.00  0.00     0.092 C 
HETATM   18  C   UNL     1     -42.423  54.064 -53.481  1.00  0.00     0.071 C 
BRANCH  17  19
HETATM   19  C   UNL     1     -40.502  52.310 -53.352  1.00  0.00     0.028 A 
HETATM   20  C   UNL     1     -39.892  51.913 -52.147  1.00  0.00     0.078 A 
HETATM   21  C   UNL     1     -39.400  50.619 -51.973  1.00  0.00     0.037 A 
HETATM   22  C   UNL     1     -39.519  49.687 -53.002  1.00  0.00     0.003 A 
HETATM   23  C   UNL     1     -40.122  50.053 -54.202  1.00  0.00     0.001 A 
HETATM   24  C   UNL     1     -40.608  51.354 -54.377  1.00  0.00     0.017 A 
BRANCH  20  25
HETATM   25  O   UNL     1     -39.757  52.756 -51.074  1.00  0.00    -0.360 OA
HETATM   26  H   UNL     1     -39.588  53.652 -51.449  1.00  0.00     0.217 HD
ENDBRANCH  20  25
ENDBRANCH  17  19
ENDBRANCH   9  13
BRANCH   1  27
HETATM   27  C   UNL     1     -42.843  56.658 -59.046  1.00  0.00     0.032 C 
HETATM   28  C   UNL     1     -42.083  57.311 -60.204  1.00  0.00     0.016 C 
HETATM   29  C   UNL     1     -43.740  55.531 -59.559  1.00  0.00     0.016 C 
ENDBRANCH   1  27
TORSDOF 4
ENDMDL
MODEL 4
REMARK VINA RESULT:      -8.1      1.302      1.844
REMARK  4 active torsions:
REMARK  status: ('A' for Active; 'I' for Inactive)
REMARK    1  A    between atoms: C_2  and  C_3 
REMARK       I    between atoms: N_10  and  C_11 
REMARK    2  A    between atoms: C_11  and  C_12 
REMARK    3  A    between atoms: C_16  and  C_17 
REMARK    4  A    between atoms: C_18  and  O_19 
ROOT
HETATM    1  C   UNL     1     -43.822  59.033 -52.782  1.00  0.00     0.068 A 
HETATM    2  N   UNL     1     -44.891  59.833 -52.644  1.00  0.00    -0.178 NA
HETATM    3  N   UNL     1     -45.549  59.728 -53.813  1.00  0.00    -0.281 N 
HETATM    4  H   UNL     1     -46.415  60.243 -53.926  1.00  0.00     0.189 HD
HETATM    5  C   UNL     1     -44.939  58.879 -54.680  1.00  0.00     0.039 A 
HETATM    6  C   UNL     1     -43.794  58.433 -54.065  1.00  0.00     0.011 A 
HETATM    7  C   UNL     1     -42.844  57.479 -54.688  1.00  0.00     0.169 C 
HETATM    8  N   UNL     1     -43.500  56.778 -55.814  1.00  0.00    -0.342 N 
HETATM    9  C   UNL     1     -42.925  55.638 -56.395  1.00  0.00     0.272 C 
HETATM   10  O   UNL     1     -43.107  55.367 -57.582  1.00  0.00    -0.266 OA
HETATM   11  C   UNL     1     -44.314  57.632 -56.714  1.00  0.00     0.132 C 
HETATM   12  C   UNL     1     -45.434  58.423 -55.997  1.00  0.00     0.079 C 
ENDROOT
BRANCH   9  13
HETATM   13  C   UNL     1     -42.065  54.793 -55.601  1.00  0.00     0.120 C 
HETATM   14  N   UNL     1     -40.733  54.673 -55.884  1.00  0.00    -0.272 N 
HETATM   15  H   UNL     1     -40.234  55.108 -56.655  1.00  0.00     0.189 HD
HETATM   16  N   UNL     1     -40.043  53.952 -54.983  1.00  0.00    -0.174 NA
HETATM   17  C   UNL     1     -40.979  53.503 -54.126  1.00  0.00     0.092 C 
HETATM   18  C   UNL     1     -42.269  53.922 -54.552  1.00  0.00     0.071 C 
BRANCH  17  19
HETATM   19  C   UNL     1     -40.615  52.725 -52.933  1.00  0.00     0.028 A 
HETATM   20  C   UNL     1     -39.927  51.501 -53.026  1.00  0.00     0.078 A 
HETATM   21  C   UNL     1     -39.551  50.791 -51.886  1.00  0.00     0.037 A 
HETATM   22  C   UNL     1     -39.845  51.299 -50.623  1.00  0.00     0.003 A 
HETATM   23  C   UNL     1     -40.521  52.511 -50.504  1.00  0.00     0.001 A 
HETATM   24  C   UNL     1     -40.905  53.217 -51.649  1.00  0.00     0.017 A 
BRANCH  20  25
HETATM   25  O   UNL     1     -39.573  50.940 -54.227  1.00  0.00    -0.360 OA
HETATM   26  H   UNL     1     -39.856  51.581 -54.921  1.00  0.00     0.217 HD
ENDBRANCH  20  25
ENDBRANCH  17  19
ENDBRANCH   9  13
BRANCH   1  27
HETATM   27  C   UNL     1     -42.868  58.802 -51.641  1.00  0.00     0.032 C 
HETATM   28  C   UNL     1     -41.504  59.434 -51.939  1.00  0.00     0.016 C 
HETATM   29  C   UNL     1     -42.709  57.324 -51.284  1.00  0.00     0.016 C 
ENDBRANCH   1  27
TORSDOF 4
ENDMDL
MODEL 5
REMARK VINA RESULT:      -8.0      2.814      7.153
REMARK  4 active torsions:
REMARK  status: ('A' for Active; 'I' for Inactive)
REMARK    1  A    between atoms: C_2  and  C_3 
REMARK       I    between atoms: N_10  and  C_11 
REMARK    2  A    between atoms: C_11  and  C_12 
REMARK    3  A    between atoms: C_16  and  C_17 
REMARK    4  A    between atoms: C_18  and  O_19 
ROOT
HETATM    1  C   UNL     1     -40.813  53.478 -50.580  1.00  0.00     0.068 A 
HETATM    2  N   UNL     1     -39.744  52.666 -50.571  1.00  0.00    -0.178 NA
HETATM    3  N   UNL     1     -39.561  52.332 -51.861  1.00  0.00    -0.281 N 
HETATM    4  H   UNL     1     -38.780  51.728 -52.096  1.00  0.00     0.189 HD
HETATM    5  C   UNL     1     -40.467  52.916 -52.686  1.00  0.00     0.039 A 
HETATM    6  C   UNL     1     -41.323  53.641 -51.891  1.00  0.00     0.011 A 
HETATM    7  C   UNL     1     -42.461  54.434 -52.416  1.00  0.00     0.169 C 
HETATM    8  N   UNL     1     -42.280  54.676 -53.865  1.00  0.00    -0.342 N 
HETATM    9  C   UNL     1     -43.058  55.623 -54.547  1.00  0.00     0.272 C 
HETATM   10  O   UNL     1     -43.329  55.484 -55.740  1.00  0.00    -0.266 OA
HETATM   11  C   UNL     1     -41.825  53.507 -54.658  1.00  0.00     0.132 C 
HETATM   12  C   UNL     1     -40.499  52.882 -54.164  1.00  0.00     0.079 C 
ENDROOT
BRANCH   9  13
HETATM   13  C   UNL     1     -43.595  56.753 -53.828  1.00  0.00     0.120 C 
HETATM   14  N   UNL     1     -44.925  57.064 -53.886  1.00  0.00    -0.272 N 
HETATM   15  H   UNL     1     -45.636  56.588 -54.434  1.00  0.00     0.189 HD
HETATM   16  N   UNL     1     -45.291  58.064 -53.066  1.00  0.00    -0.174 NA
HETATM   17  C   UNL     1     -44.137  58.488 -52.518  1.00  0.00     0.092 C 
HETATM   18  C   UNL     1     -43.045  57.758 -53.061  1.00  0.00     0.071 C 
BRANCH  17  19
HETATM   19  C   UNL     1     -44.118  59.539 -51.491  1.00  0.00     0.028 A 
HETATM   20  C   UNL     1     -45.156  59.680 -50.552  1.00  0.00     0.078 A 
HETATM   21  C   UNL     1     -45.108  60.655 -49.555  1.00  0.00     0.037 A 
HETATM   22  C   UNL     1     -44.009  61.506 -49.470  1.00  0.00     0.003 A 
HETATM   23  C   UNL     1     -42.965  61.384 -50.384  1.00  0.00     0.001 A 
HETATM   24  C   UNL     1     -43.020  60.411 -51.388  1.00  0.00     0.017 A 
BRANCH  20  25
HETATM   25  O   UNL     1     -46.262  58.868 -50.544  1.00  0.00    -0.360 OA
HETATM   26  H   UNL     1     -46.965  59.360 -51.029  1.00  0.00     0.217 HD
ENDBRANCH  20  25
ENDBRANCH  17  19
ENDBRANCH   9  13
BRANCH   1  27
HETATM   27  C   UNL     1     -41.293  54.149 -49.320  1.00  0.00     0.032 C 
HETATM   28  C   UNL     1     -41.300  55.671 -49.484  1.00  0.00     0.016 C 
HETATM   29  C   UNL     1     -40.488  53.745 -48.084  1.00  0.00     0.016 C 
ENDBRANCH   1  27
TORSDOF 4
ENDMDL
MODEL 6
REMARK VINA RESULT:      -7.9      3.016      6.702
REMARK  4 active torsions:
REMARK  status: ('A' for Active; 'I' for Inactive)
REMARK    1  A    between atoms: C_2  and  C_3 
REMARK       I    between atoms: N_10  and  C_11 
REMARK    2  A    between atoms: C_11  and  C_12 
REMARK    3  A    between atoms: C_16  and  C_17 
REMARK    4  A    between atoms: C_18  and  O_19 
ROOT
HETATM    1  C   UNL     1     -41.092  54.133 -53.013  1.00  0.00     0.068 A 
HETATM    2  N   UNL     1     -41.084  53.531 -51.813  1.00  0.00    -0.178 NA
HETATM    3  N   UNL     1     -41.316  54.522 -50.933  1.00  0.00    -0.281 N 
HETATM    4  H   UNL     1     -41.372  54.288 -49.948  1.00  0.00     0.189 HD
HETATM    5  C   UNL     1     -41.485  55.727 -51.537  1.00  0.00     0.039 A 
HETATM    6  C   UNL     1     -41.311  55.527 -52.885  1.00  0.00     0.011 A 
HETATM    7  C   UNL     1     -41.418  56.606 -53.898  1.00  0.00     0.169 C 
HETATM    8  N   UNL     1     -42.135  57.765 -53.323  1.00  0.00    -0.342 N 
HETATM    9  C   UNL     1     -42.612  58.803 -54.139  1.00  0.00     0.272 C 
HETATM   10  O   UNL     1     -42.704  59.955 -53.715  1.00  0.00    -0.266 OA
HETATM   11  C   UNL     1     -41.739  58.145 -51.944  1.00  0.00     0.132 C 
HETATM   12  C   UNL     1     -41.878  57.006 -50.908  1.00  0.00     0.079 C 
ENDROOT
BRANCH   9  13
HETATM   13  C   UNL     1     -42.954  58.526 -55.513  1.00  0.00     0.120 C 
HETATM   14  N   UNL     1     -42.218  59.040 -56.545  1.00  0.00    -0.272 N 
HETATM   15  H   UNL     1     -41.420  59.664 -56.468  1.00  0.00     0.189 HD
HETATM   16  N   UNL     1     -42.585  58.592 -57.757  1.00  0.00    -0.174 NA
HETATM   17  C   UNL     1     -43.665  57.825 -57.519  1.00  0.00     0.092 C 
HETATM   18  C   UNL     1     -43.987  57.855 -56.135  1.00  0.00     0.071 C 
BRANCH  17  19
HETATM   19  C   UNL     1     -44.328  57.080 -58.598  1.00  0.00     0.028 A 
HETATM   20  C   UNL     1     -43.646  56.117 -59.365  1.00  0.00     0.078 A 
HETATM   21  C   UNL     1     -44.296  55.386 -60.360  1.00  0.00     0.037 A 
HETATM   22  C   UNL     1     -45.651  55.595 -60.601  1.00  0.00     0.003 A 
HETATM   23  C   UNL     1     -46.351  56.539 -59.853  1.00  0.00     0.001 A 
HETATM   24  C   UNL     1     -45.695  57.277 -58.862  1.00  0.00     0.017 A 
BRANCH  20  25
HETATM   25  O   UNL     1     -42.318  55.826 -59.176  1.00  0.00    -0.360 OA
HETATM   26  H   UNL     1     -42.146  55.950 -58.214  1.00  0.00     0.217 HD
ENDBRANCH  20  25
ENDBRANCH  17  19
ENDBRANCH   9  13
BRANCH   1  27
HETATM   27  C   UNL     1     -40.955  53.339 -54.285  1.00  0.00     0.032 C 
HETATM   28  C   UNL     1     -40.454  51.923 -53.988  1.00  0.00     0.016 C 
HETATM   29  C   UNL     1     -40.060  54.020 -55.321  1.00  0.00     0.016 C 
ENDBRANCH   1  27
TORSDOF 4
ENDMDL
MODEL 7
REMARK VINA RESULT:      -7.5      3.981      5.553
REMARK  4 active torsions:
REMARK  status: ('A' for Active; 'I' for Inactive)
REMARK    1  A    between atoms: C_2  and  C_3 
REMARK       I    between atoms: N_10  and  C_11 
REMARK    2  A    between atoms: C_11  and  C_12 
REMARK    3  A    between atoms: C_16  and  C_17 
REMARK    4  A    between atoms: C_18  and  O_19 
ROOT
HETATM    1  C   UNL     1     -46.025  61.439 -47.755  1.00  0.00     0.068 A 
HETATM    2  N   UNL     1     -46.988  62.346 -47.522  1.00  0.00    -0.178 NA
HETATM    3  N   UNL     1     -47.293  62.837 -48.736  1.00  0.00    -0.281 N 
HETATM    4  H   UNL     1     -48.025  63.537 -48.803  1.00  0.00     0.189 HD
HETATM    5  C   UNL     1     -46.568  62.263 -49.730  1.00  0.00     0.039 A 
HETATM    6  C   UNL     1     -45.705  61.375 -49.134  1.00  0.00     0.011 A 
HETATM    7  C   UNL     1     -44.737  60.538 -49.883  1.00  0.00     0.169 C 
HETATM    8  N   UNL     1     -45.124  60.477 -51.310  1.00  0.00    -0.342 N 
HETATM    9  C   UNL     1     -44.547  59.540 -52.181  1.00  0.00     0.272 C 
HETATM   10  O   UNL     1     -44.415  59.783 -53.380  1.00  0.00    -0.266 OA
HETATM   11  C   UNL     1     -45.542  61.765 -51.917  1.00  0.00     0.132 C 
HETATM   12  C   UNL     1     -46.718  62.457 -51.188  1.00  0.00     0.079 C 
ENDROOT
BRANCH   9  13
HETATM   13  C   UNL     1     -44.054  58.291 -51.655  1.00  0.00     0.120 C 
HETATM   14  N   UNL     1     -44.909  57.318 -51.217  1.00  0.00    -0.272 N 
HETATM   15  H   UNL     1     -45.923  57.373 -51.181  1.00  0.00     0.189 HD
HETATM   16  N   UNL     1     -44.304  56.168 -50.874  1.00  0.00    -0.174 NA
HETATM   17  C   UNL     1     -42.990  56.429 -51.004  1.00  0.00     0.092 C 
HETATM   18  C   UNL     1     -42.799  57.785 -51.384  1.00  0.00     0.071 C 
BRANCH  17  19
HETATM   19  C   UNL     1     -41.977  55.386 -50.790  1.00  0.00     0.028 A 
HETATM   20  C   UNL     1     -41.913  54.235 -51.598  1.00  0.00     0.078 A 
HETATM   21  C   UNL     1     -40.922  53.271 -51.413  1.00  0.00     0.037 A 
HETATM   22  C   UNL     1     -39.963  53.444 -50.418  1.00  0.00     0.003 A 
HETATM   23  C   UNL     1     -40.002  54.576 -49.607  1.00  0.00     0.001 A 
HETATM   24  C   UNL     1     -41.001  55.538 -49.789  1.00  0.00     0.017 A 
BRANCH  20  25
HETATM   25  O   UNL     1     -42.799  53.998 -52.619  1.00  0.00    -0.360 OA
HETATM   26  H   UNL     1     -42.360  54.317 -53.441  1.00  0.00     0.217 HD
ENDBRANCH  20  25
ENDBRANCH  17  19
ENDBRANCH   9  13
BRANCH   1  27
HETATM   27  C   UNL     1     -45.468  60.590 -46.644  1.00  0.00     0.032 C 
HETATM   28  C   UNL     1     -46.529  59.618 -46.120  1.00  0.00     0.016 C 
HETATM   29  C   UNL     1     -44.883  61.415 -45.497  1.00  0.00     0.016 C 
ENDBRANCH   1  27
TORSDOF 4
ENDMDL
MODEL 8
REMARK VINA RESULT:      -7.4     15.698     18.904
REMARK  4 active torsions:
REMARK  status: ('A' for Active; 'I' for Inactive)
REMARK    1  A    between atoms: C_2  and  C_3 
REMARK       I    between atoms: N_10  and  C_11 
REMARK    2  A    between atoms: C_11  and  C_12 
REMARK    3  A    between atoms: C_16  and  C_17 
REMARK    4  A    between atoms: C_18  and  O_19 
ROOT
HETATM    1  C   UNL     1     -36.032  38.561 -60.114  1.00  0.00     0.068 A 
HETATM    2  N   UNL     1     -36.694  38.794 -61.259  1.00  0.00    -0.178 NA
HETATM    3  N   UNL     1     -37.235  40.015 -61.096  1.00  0.00    -0.281 N 
HETATM    4  H   UNL     1     -37.773  40.409 -61.860  1.00  0.00     0.189 HD
HETATM    5  C   UNL     1     -36.927  40.567 -59.894  1.00  0.00     0.039 A 
HETATM    6  C   UNL     1     -36.177  39.641 -59.209  1.00  0.00     0.011 A 
HETATM    7  C   UNL     1     -35.637  39.865 -57.846  1.00  0.00     0.169 C 
HETATM    8  N   UNL     1     -35.646  41.311 -57.533  1.00  0.00    -0.342 N 
HETATM    9  C   UNL     1     -34.942  41.821 -56.431  1.00  0.00     0.272 C 
HETATM   10  O   UNL     1     -35.330  42.828 -55.839  1.00  0.00    -0.266 OA
HETATM   11  C   UNL     1     -36.877  42.043 -57.920  1.00  0.00     0.132 C 
HETATM   12  C   UNL     1     -37.236  41.932 -59.420  1.00  0.00     0.079 C 
ENDROOT
BRANCH   9  13
HETATM   13  C   UNL     1     -33.772  41.126 -55.952  1.00  0.00     0.120 C 
HETATM   14  N   UNL     1     -33.420  41.156 -54.631  1.00  0.00    -0.272 N 
HETATM   15  H   UNL     1     -33.891  41.667 -53.889  1.00  0.00     0.189 HD
HETATM   16  N   UNL     1     -32.382  40.361 -54.321  1.00  0.00    -0.174 NA
HETATM   17  C   UNL     1     -31.978  39.860 -55.503  1.00  0.00     0.092 C 
HETATM   18  C   UNL     1     -32.760  40.409 -56.556  1.00  0.00     0.071 C 
BRANCH  17  19
HETATM   19  C   UNL     1     -30.895  38.871 -55.586  1.00  0.00     0.028 A 
HETATM   20  C   UNL     1     -29.811  39.026 -56.470  1.00  0.00     0.078 A 
HETATM   21  C   UNL     1     -28.768  38.101 -56.511  1.00  0.00     0.037 A 
HETATM   22  C   UNL     1     -28.780  37.003 -55.655  1.00  0.00     0.003 A 
HETATM   23  C   UNL     1     -29.839  36.828 -54.767  1.00  0.00     0.001 A 
HETATM   24  C   UNL     1     -30.888  37.752 -54.733  1.00  0.00     0.017 A 
BRANCH  20  25
HETATM   25  O   UNL     1     -29.704  40.092 -57.328  1.00  0.00    -0.360 OA
HETATM   26  H   UNL     1     -28.746  40.171 -57.546  1.00  0.00     0.217 HD
ENDBRANCH  20  25
ENDBRANCH  17  19
ENDBRANCH   9  13
BRANCH   1  27
HETATM   27  C   UNL     1     -35.204  37.316 -59.932  1.00  0.00     0.032 C 
HETATM   28  C   UNL     1     -35.505  36.658 -58.582  1.00  0.00     0.016 C 
HETATM   29  C   UNL     1     -33.704  37.569 -60.083  1.00  0.00     0.016 C 
ENDBRANCH   1  27
TORSDOF 4
ENDMDL
MODEL 9
REMARK VINA RESULT:      -7.4      3.216      6.639
REMARK  4 active torsions:
REMARK  status: ('A' for Active; 'I' for Inactive)
REMARK    1  A    between atoms: C_2  and  C_3 
REMARK       I    between atoms: N_10  and  C_11 
REMARK    2  A    between atoms: C_11  and  C_12 
REMARK    3  A    between atoms: C_16  and  C_17 
REMARK    4  A    between atoms: C_18  and  O_19 
ROOT
HETATM    1  C   UNL     1     -41.689  57.584 -51.223  1.00  0.00     0.068 A 
HETATM    2  N   UNL     1     -40.983  57.105 -50.187  1.00  0.00    -0.178 NA
HETATM    3  N   UNL     1     -40.952  55.774 -50.382  1.00  0.00    -0.281 N 
HETATM    4  H   UNL     1     -40.445  55.201 -49.716  1.00  0.00     0.189 HD
HETATM    5  C   UNL     1     -41.601  55.397 -51.514  1.00  0.00     0.039 A 
HETATM    6  C   UNL     1     -42.126  56.537 -52.072  1.00  0.00     0.011 A 
HETATM    7  C   UNL     1     -42.912  56.552 -53.330  1.00  0.00     0.169 C 
HETATM    8  N   UNL     1     -42.678  55.299 -54.082  1.00  0.00    -0.342 N 
HETATM    9  C   UNL     1     -43.076  55.170 -55.422  1.00  0.00     0.272 C 
HETATM   10  O   UNL     1     -43.397  54.077 -55.889  1.00  0.00    -0.266 OA
HETATM   11  C   UNL     1     -42.687  54.055 -53.274  1.00  0.00     0.132 C 
HETATM   12  C   UNL     1     -41.666  54.047 -52.111  1.00  0.00     0.079 C 
ENDROOT
BRANCH   9  13
HETATM   13  C   UNL     1     -43.159  56.345 -56.255  1.00  0.00     0.120 C 
HETATM   14  N   UNL     1     -44.338  57.019 -56.416  1.00  0.00    -0.272 N 
HETATM   15  H   UNL     1     -45.240  56.766 -56.022  1.00  0.00     0.189 HD
HETATM   16  N   UNL     1     -44.227  58.160 -57.117  1.00  0.00    -0.174 NA
HETATM   17  C   UNL     1     -42.940  58.188 -57.511  1.00  0.00     0.092 C 
HETATM   18  C   UNL     1     -42.274  57.008 -57.080  1.00  0.00     0.071 C 
BRANCH  17  19
HETATM   19  C   UNL     1     -42.391  59.333 -58.251  1.00  0.00     0.028 A 
HETATM   20  C   UNL     1     -41.715  60.382 -57.602  1.00  0.00     0.078 A 
HETATM   21  C   UNL     1     -41.161  61.444 -58.318  1.00  0.00     0.037 A 
HETATM   22  C   UNL     1     -41.263  61.471 -59.707  1.00  0.00     0.003 A 
HETATM   23  C   UNL     1     -41.922  60.442 -60.374  1.00  0.00     0.001 A 
HETATM   24  C   UNL     1     -42.484  59.383 -59.653  1.00  0.00     0.017 A 
BRANCH  20  25
HETATM   25  O   UNL     1     -41.544  60.422 -56.241  1.00  0.00    -0.360 OA
HETATM   26  H   UNL     1     -41.944  61.272 -55.941  1.00  0.00     0.217 HD
ENDBRANCH  20  25
ENDBRANCH  17  19
ENDBRANCH   9  13
BRANCH   1  27
HETATM   27  C   UNL     1     -41.876  59.065 -51.421  1.00  0.00     0.032 C 
HETATM   28  C   UNL     1     -41.263  59.516 -52.750  1.00  0.00     0.016 C 
HETATM   29  C   UNL     1     -41.322  59.897 -50.264  1.00  0.00     0.016 C 
ENDBRANCH   1  27
TORSDOF 4
ENDMDL
MODEL 10
REMARK VINA RESULT:      -7.3      2.981      7.527
REMARK  4 active torsions:
REMARK  status: ('A' for Active; 'I' for Inactive)
REMARK    1  A    between atoms: C_2  and  C_3 
REMARK       I    between atoms: N_10  and  C_11 
REMARK    2  A    between atoms: C_11  and  C_12 
REMARK    3  A    between atoms: C_16  and  C_17 
REMARK    4  A    between atoms: C_18  and  O_19 
ROOT
HETATM    1  C   UNL     1     -40.331  53.734 -50.818  1.00  0.00     0.068 A 
HETATM    2  N   UNL     1     -39.688  52.560 -50.917  1.00  0.00    -0.178 NA
HETATM    3  N   UNL     1     -39.891  52.165 -52.187  1.00  0.00    -0.281 N 
HETATM    4  H   UNL     1     -39.471  51.295 -52.494  1.00  0.00     0.189 HD
HETATM    5  C   UNL     1     -40.629  53.056 -52.898  1.00  0.00     0.039 A 
HETATM    6  C   UNL     1     -40.966  54.073 -52.038  1.00  0.00     0.011 A 
HETATM    7  C   UNL     1     -41.774  55.252 -52.435  1.00  0.00     0.169 C 
HETATM    8  N   UNL     1     -41.782  55.384 -53.908  1.00  0.00    -0.342 N 
HETATM    9  C   UNL     1     -42.234  56.557 -54.531  1.00  0.00     0.272 C 
HETATM   10  O   UNL     1     -42.752  56.526 -55.648  1.00  0.00    -0.266 OA
HETATM   11  C   UNL     1     -41.980  54.123 -54.664  1.00  0.00     0.132 C 
HETATM   12  C   UNL     1     -40.942  53.021 -54.342  1.00  0.00     0.079 C 
ENDROOT
BRANCH   9  13
HETATM   13  C   UNL     1     -42.139  57.815 -53.832  1.00  0.00     0.120 C 
HETATM   14  N   UNL     1     -41.006  58.579 -53.897  1.00  0.00    -0.272 N 
HETATM   15  H   UNL     1     -40.145  58.346 -54.384  1.00  0.00     0.189 HD
HETATM   16  N   UNL     1     -41.116  59.777 -53.297  1.00  0.00    -0.174 NA
HETATM   17  C   UNL     1     -42.339  59.760 -52.736  1.00  0.00     0.092 C 
HETATM   18  C   UNL     1     -42.959  58.500 -52.960  1.00  0.00     0.071 C 
BRANCH  17  19
HETATM   19  C   UNL     1     -42.879  60.936 -52.040  1.00  0.00     0.028 A 
HETATM   20  C   UNL     1     -43.048  62.173 -52.690  1.00  0.00     0.078 A 
HETATM   21  C   UNL     1     -43.599  63.271 -52.030  1.00  0.00     0.037 A 
HETATM   22  C   UNL     1     -44.005  63.152 -50.703  1.00  0.00     0.003 A 
HETATM   23  C   UNL     1     -43.852  61.938 -50.038  1.00  0.00     0.001 A 
HETATM   24  C   UNL     1     -43.292  60.840 -50.699  1.00  0.00     0.017 A 
BRANCH  20  25
HETATM   25  O   UNL     1     -42.702  62.372 -54.002  1.00  0.00    -0.360 OA
HETATM   26  H   UNL     1     -43.193  63.174 -54.296  1.00  0.00     0.217 HD
ENDBRANCH  20  25
ENDBRANCH  17  19
ENDBRANCH   9  13
BRANCH   1  27
HETATM   27  C   UNL     1     -40.267  54.555 -49.558  1.00  0.00     0.032 C 
HETATM   28  C   UNL     1     -40.285  53.652 -48.321  1.00  0.00     0.016 C 
HETATM   29  C   UNL     1     -41.374  55.606 -49.473  1.00  0.00     0.016 C 
ENDBRANCH   1  27
TORSDOF 4
ENDMDL
