MODEL 1
REMARK VINA RESULT:      -9.2      0.000      0.000
REMARK  6 active torsions:
REMARK  status: ('A' for Active; 'I' for Inactive)
REMARK    1  A    between atoms: C_2  and  C_3 
REMARK    2  A    between atoms: C_4  and  N_5 
REMARK       I    between atoms: N_5  and  C_6 
REMARK    3  A    between atoms: C_6  and  C_7 
REMARK    4  A    between atoms: C_10  and  C_11 
REMARK    5  A    between atoms: C_11  and  C_12 
REMARK    6  A    between atoms: C_25  and  C_26 
ROOT
HETATM    1  N   UNL     1     -42.097  58.403 -55.250  1.00  0.00    -0.307 N 
HETATM    2  C   UNL     1     -41.980  57.654 -54.038  1.00  0.00     0.257 C 
HETATM    3  O   UNL     1     -42.017  58.295 -53.003  1.00  0.00    -0.267 OA
HETATM    4  H   UNL     1     -41.895  59.394 -55.167  1.00  0.00     0.170 HD
ENDROOT
BRANCH   2   5
HETATM    5  C   UNL     1     -41.742  56.191 -54.065  1.00  0.00     0.032 A 
HETATM    6  C   UNL     1     -42.696  55.297 -53.563  1.00  0.00     0.017 A 
HETATM    7  C   UNL     1     -42.451  53.924 -53.585  1.00  0.00     0.008 A 
HETATM    8  C   UNL     1     -41.279  53.421 -54.160  1.00  0.00    -0.057 A 
HETATM    9  C   UNL     1     -40.347  54.321 -54.698  1.00  0.00     0.008 A 
HETATM   10  C   UNL     1     -40.575  55.701 -54.653  1.00  0.00     0.017 A 
BRANCH   8  11
HETATM   11  C   UNL     1     -41.032  51.928 -54.241  1.00  0.00     0.053 C 
BRANCH  11  12
HETATM   12  C   UNL     1     -39.691  51.434 -53.676  1.00  0.00     0.091 C 
HETATM   13  C   UNL     1     -39.559  49.936 -53.797  1.00  0.00     0.229 C 
HETATM   14  O   UNL     1     -39.558  49.305 -54.842  1.00  0.00    -0.273 OA
HETATM   15  N   UNL     1     -39.530  49.396 -52.553  1.00  0.00    -0.297 N 
HETATM   16  C   UNL     1     -39.650  50.322 -51.571  1.00  0.00     0.225 C 
HETATM   17  H   UNL     1     -39.568  48.403 -52.384  1.00  0.00     0.171 HD
HETATM   18  O   UNL     1     -39.841  50.090 -50.389  1.00  0.00    -0.273 OA
HETATM   19  C   UNL     1     -39.491  51.684 -52.181  1.00  0.00     0.117 C 
ENDBRANCH  11  12
ENDBRANCH   8  11
ENDBRANCH   2   5
BRANCH   1  20
HETATM   20  C   UNL     1     -42.531  57.911 -56.468  1.00  0.00     0.133 A 
HETATM   21  C   UNL     1     -43.838  57.570 -56.768  1.00  0.00     0.018 A 
HETATM   22  C   UNL     1     -43.800  57.192 -58.164  1.00  0.00     0.097 A 
HETATM   23  N   UNL     1     -42.535  57.253 -58.620  1.00  0.00    -0.172 NA
HETATM   24  N   UNL     1     -41.800  57.666 -57.590  1.00  0.00    -0.261 N 
HETATM   25  H   UNL     1     -40.800  57.759 -57.731  1.00  0.00     0.191 HD
BRANCH  21  26
HETATM   26  C   UNL     1     -45.001  57.701 -55.839  1.00  0.00     0.040 C 
HETATM   27  C   UNL     1     -45.545  59.120 -55.782  1.00  0.00     0.010 C 
ENDBRANCH  21  26
BRANCH  22  28
HETATM   28  C   UNL     1     -44.871  56.824 -59.113  1.00  0.00    -0.002 A 
HETATM   29  C   UNL     1     -44.649  55.779 -60.023  1.00  0.00     0.033 A 
HETATM   30  C   UNL     1     -45.636  55.443 -60.935  1.00  0.00     0.117 A 
HETATM   31  N   UNL     1     -46.823  56.075 -61.010  1.00  0.00    -0.273 NA
HETATM   32  C   UNL     1     -47.032  57.067 -60.125  1.00  0.00     0.117 A 
HETATM   33  C   UNL     1     -46.107  57.467 -59.169  1.00  0.00     0.033 A 
ENDBRANCH  22  28
ENDBRANCH   1  20
TORSDOF 6
ENDMDL
MODEL 2
REMARK VINA RESULT:      -8.8      1.229      1.846
REMARK  6 active torsions:
REMARK  status: ('A' for Active; 'I' for Inactive)
REMARK    1  A    between atoms: C_2  and  C_3 
REMARK    2  A    between atoms: C_4  and  N_5 
REMARK       I    between atoms: N_5  and  C_6 
REMARK    3  A    between atoms: C_6  and  C_7 
REMARK    4  A    between atoms: C_10  and  C_11 
REMARK    5  A    between atoms: C_11  and  C_12 
REMARK    6  A    between atoms: C_25  and  C_26 
ROOT
HETATM    1  N   UNL     1     -41.835  58.752 -54.500  1.00  0.00    -0.307 N 
HETATM    2  C   UNL     1     -41.098  57.930 -53.592  1.00  0.00     0.257 C 
HETATM    3  O   UNL     1     -40.458  58.515 -52.736  1.00  0.00    -0.267 OA
HETATM    4  H   UNL     1     -41.532  59.718 -54.553  1.00  0.00     0.170 HD
ENDROOT
BRANCH   2   5
HETATM    5  C   UNL     1     -41.060  56.458 -53.753  1.00  0.00     0.032 A 
HETATM    6  C   UNL     1     -40.258  55.860 -54.734  1.00  0.00     0.017 A 
HETATM    7  C   UNL     1     -40.244  54.473 -54.880  1.00  0.00     0.008 A 
HETATM    8  C   UNL     1     -40.983  53.661 -54.014  1.00  0.00    -0.057 A 
HETATM    9  C   UNL     1     -41.753  54.265 -53.008  1.00  0.00     0.008 A 
HETATM   10  C   UNL     1     -41.793  55.657 -52.875  1.00  0.00     0.017 A 
BRANCH   8  11
HETATM   11  C   UNL     1     -40.927  52.151 -54.128  1.00  0.00     0.053 C 
BRANCH  11  12
HETATM   12  C   UNL     1     -39.624  51.485 -53.657  1.00  0.00     0.091 C 
HETATM   13  C   UNL     1     -39.661  49.991 -53.860  1.00  0.00     0.229 C 
HETATM   14  O   UNL     1     -39.774  49.423 -54.935  1.00  0.00    -0.273 OA
HETATM   15  N   UNL     1     -39.637  49.382 -52.649  1.00  0.00    -0.297 N 
HETATM   16  C   UNL     1     -39.612  50.259 -51.616  1.00  0.00     0.225 C 
HETATM   17  H   UNL     1     -39.775  48.391 -52.530  1.00  0.00     0.171 HD
HETATM   18  O   UNL     1     -39.775  49.982 -50.440  1.00  0.00    -0.273 OA
HETATM   19  C   UNL     1     -39.332  51.628 -52.162  1.00  0.00     0.117 C 
ENDBRANCH  11  12
ENDBRANCH   8  11
ENDBRANCH   2   5
BRANCH   1  20
HETATM   20  C   UNL     1     -42.947  58.362 -55.225  1.00  0.00     0.133 A 
HETATM   21  C   UNL     1     -43.003  58.263 -56.604  1.00  0.00     0.018 A 
HETATM   22  C   UNL     1     -44.327  57.746 -56.875  1.00  0.00     0.097 A 
HETATM   23  N   UNL     1     -45.011  57.615 -55.723  1.00  0.00    -0.172 NA
HETATM   24  N   UNL     1     -44.176  58.003 -54.762  1.00  0.00    -0.261 N 
HETATM   25  H   UNL     1     -44.518  57.993 -53.807  1.00  0.00     0.191 HD
BRANCH  21  26
HETATM   26  C   UNL     1     -41.869  58.536 -57.538  1.00  0.00     0.040 C 
HETATM   27  C   UNL     1     -41.765  60.005 -57.918  1.00  0.00     0.010 C 
ENDBRANCH  21  26
BRANCH  22  28
HETATM   28  C   UNL     1     -44.980  57.322 -58.130  1.00  0.00    -0.002 A 
HETATM   29  C   UNL     1     -44.305  56.440 -58.989  1.00  0.00     0.033 A 
HETATM   30  C   UNL     1     -44.897  56.057 -60.181  1.00  0.00     0.117 A 
HETATM   31  N   UNL     1     -46.106  56.491 -60.582  1.00  0.00    -0.273 NA
HETATM   32  C   UNL     1     -46.753  57.325 -59.746  1.00  0.00     0.117 A 
HETATM   33  C   UNL     1     -46.244  57.756 -58.528  1.00  0.00     0.033 A 
ENDBRANCH  22  28
ENDBRANCH   1  20
TORSDOF 6
ENDMDL
MODEL 3
REMARK VINA RESULT:      -8.5      2.984      8.204
REMARK  6 active torsions:
REMARK  status: ('A' for Active; 'I' for Inactive)
REMARK    1  A    between atoms: C_2  and  C_3 
REMARK    2  A    between atoms: C_4  and  N_5 
REMARK       I    between atoms: N_5  and  C_6 
REMARK    3  A    between atoms: C_6  and  C_7 
REMARK    4  A    between atoms: C_10  and  C_11 
REMARK    5  A    between atoms: C_11  and  C_12 
REMARK    6  A    between atoms: C_25  and  C_26 
ROOT
HETATM    1  N   UNL     1     -41.748  56.587 -51.697  1.00  0.00    -0.307 N 
HETATM    2  C   UNL     1     -42.236  57.793 -52.288  1.00  0.00     0.257 C 
HETATM    3  O   UNL     1     -42.257  58.775 -51.567  1.00  0.00    -0.267 OA
HETATM    4  H   UNL     1     -41.753  56.569 -50.683  1.00  0.00     0.170 HD
ENDROOT
BRANCH   2   5
HETATM    5  C   UNL     1     -42.761  57.807 -53.674  1.00  0.00     0.032 A 
HETATM    6  C   UNL     1     -44.034  57.301 -53.968  1.00  0.00     0.017 A 
HETATM    7  C   UNL     1     -44.508  57.310 -55.280  1.00  0.00     0.008 A 
HETATM    8  C   UNL     1     -43.744  57.876 -56.306  1.00  0.00    -0.057 A 
HETATM    9  C   UNL     1     -42.486  58.417 -55.997  1.00  0.00     0.008 A 
HETATM   10  C   UNL     1     -41.995  58.385 -54.688  1.00  0.00     0.017 A 
BRANCH   8  11
HETATM   11  C   UNL     1     -44.276  57.943 -57.723  1.00  0.00     0.053 C 
BRANCH  11  12
HETATM   12  C   UNL     1     -43.451  57.204 -58.790  1.00  0.00     0.091 C 
HETATM   13  C   UNL     1     -43.937  57.521 -60.182  1.00  0.00     0.229 C 
HETATM   14  O   UNL     1     -43.945  58.629 -60.696  1.00  0.00    -0.273 OA
HETATM   15  N   UNL     1     -44.444  56.393 -60.738  1.00  0.00    -0.297 N 
HETATM   16  C   UNL     1     -44.400  55.326 -59.904  1.00  0.00     0.225 C 
HETATM   17  H   UNL     1     -44.937  56.388 -61.617  1.00  0.00     0.171 HD
HETATM   18  O   UNL     1     -44.955  54.255 -60.084  1.00  0.00    -0.273 OA
HETATM   19  C   UNL     1     -43.538  55.678 -58.728  1.00  0.00     0.117 C 
ENDBRANCH  11  12
ENDBRANCH   8  11
ENDBRANCH   2   5
BRANCH   1  20
HETATM   20  C   UNL     1     -41.211  55.510 -52.380  1.00  0.00     0.133 A 
HETATM   21  C   UNL     1     -40.957  54.266 -51.830  1.00  0.00     0.018 A 
HETATM   22  C   UNL     1     -40.483  53.471 -52.943  1.00  0.00     0.097 A 
HETATM   23  N   UNL     1     -40.411  54.233 -54.051  1.00  0.00    -0.172 NA
HETATM   24  N   UNL     1     -40.832  55.441 -53.685  1.00  0.00    -0.261 N 
HETATM   25  H   UNL     1     -40.834  56.172 -54.388  1.00  0.00     0.191 HD
BRANCH  21  26
HETATM   26  C   UNL     1     -41.244  53.869 -50.419  1.00  0.00     0.040 C 
HETATM   27  C   UNL     1     -40.058  54.100 -49.495  1.00  0.00     0.010 C 
ENDBRANCH  21  26
BRANCH  22  28
HETATM   28  C   UNL     1     -40.139  52.039 -53.052  1.00  0.00    -0.002 A 
HETATM   29  C   UNL     1     -40.313  51.385 -54.282  1.00  0.00     0.033 A 
HETATM   30  C   UNL     1     -40.019  50.036 -54.389  1.00  0.00     0.117 A 
HETATM   31  N   UNL     1     -39.570  49.291 -53.361  1.00  0.00    -0.273 NA
HETATM   32  C   UNL     1     -39.392  49.929 -52.189  1.00  0.00     0.117 A 
HETATM   33  C   UNL     1     -39.651  51.279 -51.990  1.00  0.00     0.033 A 
ENDBRANCH  22  28
ENDBRANCH   1  20
TORSDOF 6
ENDMDL
MODEL 4
REMARK VINA RESULT:      -8.3      2.793      5.584
REMARK  6 active torsions:
REMARK  status: ('A' for Active; 'I' for Inactive)
REMARK    1  A    between atoms: C_2  and  C_3 
REMARK    2  A    between atoms: C_4  and  N_5 
REMARK       I    between atoms: N_5  and  C_6 
REMARK    3  A    between atoms: C_6  and  C_7 
REMARK    4  A    between atoms: C_10  and  C_11 
REMARK    5  A    between atoms: C_11  and  C_12 
REMARK    6  A    between atoms: C_25  and  C_26 
ROOT
HETATM    1  N   UNL     1     -43.575  57.339 -56.738  1.00  0.00    -0.307 N 
HETATM    2  C   UNL     1     -43.248  55.999 -57.114  1.00  0.00     0.257 C 
HETATM    3  O   UNL     1     -43.623  55.643 -58.217  1.00  0.00    -0.267 OA
HETATM    4  H   UNL     1     -44.330  57.764 -57.265  1.00  0.00     0.170 HD
ENDROOT
BRANCH   2   5
HETATM    5  C   UNL     1     -42.565  55.085 -56.168  1.00  0.00     0.032 A 
HETATM    6  C   UNL     1     -43.273  54.079 -55.499  1.00  0.00     0.017 A 
HETATM    7  C   UNL     1     -42.617  53.236 -54.602  1.00  0.00     0.008 A 
HETATM    8  C   UNL     1     -41.236  53.346 -54.405  1.00  0.00    -0.057 A 
HETATM    9  C   UNL     1     -40.526  54.330 -55.110  1.00  0.00     0.008 A 
HETATM   10  C   UNL     1     -41.184  55.197 -55.989  1.00  0.00     0.017 A 
BRANCH   8  11
HETATM   11  C   UNL     1     -40.506  52.396 -53.477  1.00  0.00     0.053 C 
BRANCH  11  12
HETATM   12  C   UNL     1     -39.915  53.018 -52.202  1.00  0.00     0.091 C 
HETATM   13  C   UNL     1     -40.036  52.083 -51.024  1.00  0.00     0.229 C 
HETATM   14  O   UNL     1     -39.524  50.978 -50.939  1.00  0.00    -0.273 OA
HETATM   15  N   UNL     1     -40.876  52.632 -50.112  1.00  0.00    -0.297 N 
HETATM   16  C   UNL     1     -41.382  53.825 -50.510  1.00  0.00     0.225 C 
HETATM   17  H   UNL     1     -41.203  52.135 -49.299  1.00  0.00     0.171 HD
HETATM   18  O   UNL     1     -42.293  54.429 -49.969  1.00  0.00    -0.273 OA
HETATM   19  C   UNL     1     -40.621  54.285 -51.717  1.00  0.00     0.117 C 
ENDBRANCH  11  12
ENDBRANCH   8  11
ENDBRANCH   2   5
BRANCH   1  20
HETATM   20  C   UNL     1     -42.907  58.101 -55.797  1.00  0.00     0.133 A 
HETATM   21  C   UNL     1     -43.148  58.075 -54.435  1.00  0.00     0.018 A 
HETATM   22  C   UNL     1     -42.157  58.969 -53.877  1.00  0.00     0.097 A 
HETATM   23  N   UNL     1     -41.431  59.523 -54.866  1.00  0.00    -0.172 NA
HETATM   24  N   UNL     1     -41.907  59.004 -55.995  1.00  0.00    -0.261 N 
HETATM   25  H   UNL     1     -41.496  59.316 -56.868  1.00  0.00     0.191 HD
BRANCH  21  26
HETATM   26  C   UNL     1     -44.149  57.202 -53.750  1.00  0.00     0.040 C 
HETATM   27  C   UNL     1     -43.522  56.327 -52.676  1.00  0.00     0.010 C 
ENDBRANCH  21  26
BRANCH  22  28
HETATM   28  C   UNL     1     -41.811  59.306 -52.480  1.00  0.00    -0.002 A 
HETATM   29  C   UNL     1     -40.651  58.757 -51.911  1.00  0.00     0.033 A 
HETATM   30  C   UNL     1     -40.332  59.044 -50.595  1.00  0.00     0.117 A 
HETATM   31  N   UNL     1     -41.083  59.832 -49.803  1.00  0.00    -0.273 NA
HETATM   32  C   UNL     1     -42.187  60.366 -50.362  1.00  0.00     0.117 A 
HETATM   33  C   UNL     1     -42.582  60.143 -51.674  1.00  0.00     0.033 A 
ENDBRANCH  22  28
ENDBRANCH   1  20
TORSDOF 6
ENDMDL
MODEL 5
REMARK VINA RESULT:      -8.1      2.969      7.578
REMARK  6 active torsions:
REMARK  status: ('A' for Active; 'I' for Inactive)
REMARK    1  A    between atoms: C_2  and  C_3 
REMARK    2  A    between atoms: C_4  and  N_5 
REMARK       I    between atoms: N_5  and  C_6 
REMARK    3  A    between atoms: C_6  and  C_7 
REMARK    4  A    between atoms: C_10  and  C_11 
REMARK    5  A    between atoms: C_11  and  C_12 
REMARK    6  A    between atoms: C_25  and  C_26 
ROOT
HETATM    1  N   UNL     1     -43.778  57.557 -50.662  1.00  0.00    -0.307 N 
HETATM    2  C   UNL     1     -43.801  58.752 -51.447  1.00  0.00     0.257 C 
HETATM    3  O   UNL     1     -43.684  59.799 -50.837  1.00  0.00    -0.267 OA
HETATM    4  H   UNL     1     -43.972  57.685 -49.675  1.00  0.00     0.170 HD
ENDROOT
BRANCH   2   5
HETATM    5  C   UNL     1     -44.040  58.700 -52.909  1.00  0.00     0.032 A 
HETATM    6  C   UNL     1     -44.902  57.746 -53.465  1.00  0.00     0.017 A 
HETATM    7  C   UNL     1     -45.106  57.704 -54.844  1.00  0.00     0.008 A 
HETATM    8  C   UNL     1     -44.500  58.648 -55.681  1.00  0.00    -0.057 A 
HETATM    9  C   UNL     1     -43.670  59.625 -55.112  1.00  0.00     0.008 A 
HETATM   10  C   UNL     1     -43.439  59.655 -53.732  1.00  0.00     0.017 A 
BRANCH   8  11
HETATM   11  C   UNL     1     -44.764  58.645 -57.173  1.00  0.00     0.053 C 
BRANCH  11  12
HETATM   12  C   UNL     1     -43.753  57.871 -58.036  1.00  0.00     0.091 C 
HETATM   13  C   UNL     1     -44.404  56.704 -58.736  1.00  0.00     0.229 C 
HETATM   14  O   UNL     1     -45.313  56.780 -59.548  1.00  0.00    -0.273 OA
HETATM   15  N   UNL     1     -43.877  55.552 -58.254  1.00  0.00    -0.297 N 
HETATM   16  C   UNL     1     -42.953  55.759 -57.283  1.00  0.00     0.225 C 
HETATM   17  H   UNL     1     -44.242  54.642 -58.485  1.00  0.00     0.171 HD
HETATM   18  O   UNL     1     -42.472  54.902 -56.561  1.00  0.00    -0.273 OA
HETATM   19  C   UNL     1     -42.609  57.219 -57.258  1.00  0.00     0.117 C 
ENDBRANCH  11  12
ENDBRANCH   8  11
ENDBRANCH   2   5
BRANCH   1  20
HETATM   20  C   UNL     1     -43.439  56.295 -51.117  1.00  0.00     0.133 A 
HETATM   21  C   UNL     1     -42.233  55.959 -51.705  1.00  0.00     0.018 A 
HETATM   22  C   UNL     1     -42.327  54.533 -51.929  1.00  0.00     0.097 A 
HETATM   23  N   UNL     1     -43.540  54.089 -51.549  1.00  0.00    -0.172 NA
HETATM   24  N   UNL     1     -44.186  55.157 -51.088  1.00  0.00    -0.261 N 
HETATM   25  H   UNL     1     -45.139  55.030 -50.766  1.00  0.00     0.191 HD
BRANCH  21  26
HETATM   26  C   UNL     1     -41.085  56.892 -51.921  1.00  0.00     0.040 C 
HETATM   27  C   UNL     1     -40.785  57.115 -53.395  1.00  0.00     0.010 C 
ENDBRANCH  21  26
BRANCH  22  28
HETATM   28  C   UNL     1     -41.345  53.548 -52.428  1.00  0.00    -0.002 A 
HETATM   29  C   UNL     1     -41.320  53.241 -53.798  1.00  0.00     0.033 A 
HETATM   30  C   UNL     1     -40.422  52.300 -54.272  1.00  0.00     0.117 A 
HETATM   31  N   UNL     1     -39.553  51.639 -53.484  1.00  0.00    -0.273 NA
HETATM   32  C   UNL     1     -39.574  51.950 -52.174  1.00  0.00     0.117 A 
HETATM   33  C   UNL     1     -40.431  52.885 -51.609  1.00  0.00     0.033 A 
ENDBRANCH  22  28
ENDBRANCH   1  20
TORSDOF 6
ENDMDL
MODEL 6
REMARK VINA RESULT:      -8.0      2.068      2.840
REMARK  6 active torsions:
REMARK  status: ('A' for Active; 'I' for Inactive)
REMARK    1  A    between atoms: C_2  and  C_3 
REMARK    2  A    between atoms: C_4  and  N_5 
REMARK       I    between atoms: N_5  and  C_6 
REMARK    3  A    between atoms: C_6  and  C_7 
REMARK    4  A    between atoms: C_10  and  C_11 
REMARK    5  A    between atoms: C_11  and  C_12 
REMARK    6  A    between atoms: C_25  and  C_26 
ROOT
HETATM    1  N   UNL     1     -43.825  59.895 -53.781  1.00  0.00    -0.307 N 
HETATM    2  C   UNL     1     -43.526  59.339 -52.498  1.00  0.00     0.257 C 
HETATM    3  O   UNL     1     -43.561  60.111 -51.556  1.00  0.00    -0.267 OA
HETATM    4  H   UNL     1     -43.739  60.903 -53.846  1.00  0.00     0.170 HD
ENDROOT
BRANCH   2   5
HETATM    5  C   UNL     1     -43.117  57.922 -52.356  1.00  0.00     0.032 A 
HETATM    6  C   UNL     1     -43.968  56.981 -51.763  1.00  0.00     0.017 A 
HETATM    7  C   UNL     1     -43.562  55.654 -51.626  1.00  0.00     0.008 A 
HETATM    8  C   UNL     1     -42.326  55.234 -52.131  1.00  0.00    -0.057 A 
HETATM    9  C   UNL     1     -41.495  56.174 -52.759  1.00  0.00     0.008 A 
HETATM   10  C   UNL     1     -41.886  57.513 -52.874  1.00  0.00     0.017 A 
BRANCH   8  11
HETATM   11  C   UNL     1     -41.903  53.782 -52.039  1.00  0.00     0.053 C 
BRANCH  11  12
HETATM   12  C   UNL     1     -40.412  53.497 -52.285  1.00  0.00     0.091 C 
HETATM   13  C   UNL     1     -40.206  52.675 -53.533  1.00  0.00     0.229 C 
HETATM   14  O   UNL     1     -40.515  53.013 -54.665  1.00  0.00    -0.273 OA
HETATM   15  N   UNL     1     -39.704  51.465 -53.185  1.00  0.00    -0.297 N 
HETATM   16  C   UNL     1     -39.553  51.321 -51.845  1.00  0.00     0.225 C 
HETATM   17  H   UNL     1     -39.599  50.705 -53.838  1.00  0.00     0.171 HD
HETATM   18  O   UNL     1     -39.303  50.279 -51.263  1.00  0.00    -0.273 OA
HETATM   19  C   UNL     1     -39.728  52.664 -51.200  1.00  0.00     0.117 C 
ENDBRANCH  11  12
ENDBRANCH   8  11
ENDBRANCH   2   5
BRANCH   1  20
HETATM   20  C   UNL     1     -44.288  59.192 -54.879  1.00  0.00     0.133 A 
HETATM   21  C   UNL     1     -43.539  58.889 -56.002  1.00  0.00     0.018 A 
HETATM   22  C   UNL     1     -44.424  58.086 -56.818  1.00  0.00     0.097 A 
HETATM   23  N   UNL     1     -45.629  57.988 -56.226  1.00  0.00    -0.172 NA
HETATM   24  N   UNL     1     -45.526  58.666 -55.086  1.00  0.00    -0.261 N 
HETATM   25  H   UNL     1     -46.349  58.726 -54.496  1.00  0.00     0.191 HD
BRANCH  21  26
HETATM   26  C   UNL     1     -42.102  59.245 -56.207  1.00  0.00     0.040 C 
HETATM   27  C   UNL     1     -41.900  60.211 -57.364  1.00  0.00     0.010 C 
ENDBRANCH  21  26
BRANCH  22  28
HETATM   28  C   UNL     1     -44.207  57.366 -58.090  1.00  0.00    -0.002 A 
HETATM   29  C   UNL     1     -45.095  57.577 -59.157  1.00  0.00     0.033 A 
HETATM   30  C   UNL     1     -44.916  56.887 -60.344  1.00  0.00     0.117 A 
HETATM   31  N   UNL     1     -43.923  56.000 -60.545  1.00  0.00    -0.273 NA
HETATM   32  C   UNL     1     -43.068  55.814 -59.521  1.00  0.00     0.117 A 
HETATM   33  C   UNL     1     -43.162  56.467 -58.299  1.00  0.00     0.033 A 
ENDBRANCH  22  28
ENDBRANCH   1  20
TORSDOF 6
ENDMDL
MODEL 7
REMARK VINA RESULT:      -7.9      1.209      1.462
REMARK  6 active torsions:
REMARK  status: ('A' for Active; 'I' for Inactive)
REMARK    1  A    between atoms: C_2  and  C_3 
REMARK    2  A    between atoms: C_4  and  N_5 
REMARK       I    between atoms: N_5  and  C_6 
REMARK    3  A    between atoms: C_6  and  C_7 
REMARK    4  A    between atoms: C_10  and  C_11 
REMARK    5  A    between atoms: C_11  and  C_12 
REMARK    6  A    between atoms: C_25  and  C_26 
ROOT
HETATM    1  N   UNL     1     -42.786  59.224 -55.461  1.00  0.00    -0.307 N 
HETATM    2  C   UNL     1     -42.836  58.876 -54.075  1.00  0.00     0.257 C 
HETATM    3  O   UNL     1     -43.040  59.792 -53.298  1.00  0.00    -0.267 OA
HETATM    4  H   UNL     1     -42.619  60.205 -55.655  1.00  0.00     0.170 HD
ENDROOT
BRANCH   2   5
HETATM    5  C   UNL     1     -42.568  57.490 -53.625  1.00  0.00     0.032 A 
HETATM    6  C   UNL     1     -43.614  56.642 -53.240  1.00  0.00     0.017 A 
HETATM    7  C   UNL     1     -43.343  55.344 -52.808  1.00  0.00     0.008 A 
HETATM    8  C   UNL     1     -42.033  54.855 -52.809  1.00  0.00    -0.057 A 
HETATM    9  C   UNL     1     -40.994  55.697 -53.236  1.00  0.00     0.008 A 
HETATM   10  C   UNL     1     -41.257  57.009 -53.643  1.00  0.00     0.017 A 
BRANCH   8  11
HETATM   11  C   UNL     1     -41.737  53.427 -52.397  1.00  0.00     0.053 C 
BRANCH  11  12
HETATM   12  C   UNL     1     -40.255  53.015 -52.403  1.00  0.00     0.091 C 
HETATM   13  C   UNL     1     -39.972  51.986 -53.468  1.00  0.00     0.229 C 
HETATM   14  O   UNL     1     -40.118  52.148 -54.669  1.00  0.00    -0.273 OA
HETATM   15  N   UNL     1     -39.612  50.823 -52.871  1.00  0.00    -0.297 N 
HETATM   16  C   UNL     1     -39.630  50.896 -51.518  1.00  0.00     0.225 C 
HETATM   17  H   UNL     1     -39.492  49.960 -53.377  1.00  0.00     0.171 HD
HETATM   18  O   UNL     1     -39.533  49.953 -50.751  1.00  0.00    -0.273 OA
HETATM   19  C   UNL     1     -39.771  52.336 -51.121  1.00  0.00     0.117 C 
ENDBRANCH  11  12
ENDBRANCH   8  11
ENDBRANCH   2   5
BRANCH   1  20
HETATM   20  C   UNL     1     -43.024  58.366 -56.520  1.00  0.00     0.133 A 
HETATM   21  C   UNL     1     -44.266  58.110 -57.073  1.00  0.00     0.018 A 
HETATM   22  C   UNL     1     -43.989  57.227 -58.185  1.00  0.00     0.097 A 
HETATM   23  N   UNL     1     -42.673  56.945 -58.230  1.00  0.00    -0.172 NA
HETATM   24  N   UNL     1     -42.127  57.619 -57.221  1.00  0.00    -0.261 N 
HETATM   25  H   UNL     1     -41.128  57.521 -57.074  1.00  0.00     0.191 HD
BRANCH  21  26
HETATM   26  C   UNL     1     -45.552  58.734 -56.639  1.00  0.00     0.040 C 
HETATM   27  C   UNL     1     -45.792  60.088 -57.289  1.00  0.00     0.010 C 
ENDBRANCH  21  26
BRANCH  22  28
HETATM   28  C   UNL     1     -44.862  56.668 -59.238  1.00  0.00    -0.002 A 
HETATM   29  C   UNL     1     -44.328  55.746 -60.152  1.00  0.00     0.033 A 
HETATM   30  C   UNL     1     -45.130  55.236 -61.159  1.00  0.00     0.117 A 
HETATM   31  N   UNL     1     -46.421  55.580 -61.326  1.00  0.00    -0.273 NA
HETATM   32  C   UNL     1     -46.929  56.454 -60.436  1.00  0.00     0.117 A 
HETATM   33  C   UNL     1     -46.206  57.011 -59.390  1.00  0.00     0.033 A 
ENDBRANCH  22  28
ENDBRANCH   1  20
TORSDOF 6
ENDMDL
MODEL 8
REMARK VINA RESULT:      -7.9      3.750      8.222
REMARK  6 active torsions:
REMARK  status: ('A' for Active; 'I' for Inactive)
REMARK    1  A    between atoms: C_2  and  C_3 
REMARK    2  A    between atoms: C_4  and  N_5 
REMARK       I    between atoms: N_5  and  C_6 
REMARK    3  A    between atoms: C_6  and  C_7 
REMARK    4  A    between atoms: C_10  and  C_11 
REMARK    5  A    between atoms: C_11  and  C_12 
REMARK    6  A    between atoms: C_25  and  C_26 
ROOT
HETATM    1  N   UNL     1     -43.212  55.584 -56.377  1.00  0.00    -0.307 N 
HETATM    2  C   UNL     1     -43.644  56.891 -56.761  1.00  0.00     0.257 C 
HETATM    3  O   UNL     1     -44.004  57.021 -57.917  1.00  0.00    -0.267 OA
HETATM    4  H   UNL     1     -42.954  54.971 -57.143  1.00  0.00     0.170 HD
ENDROOT
BRANCH   2   5
HETATM    5  C   UNL     1     -43.569  58.029 -55.814  1.00  0.00     0.032 A 
HETATM    6  C   UNL     1     -44.729  58.582 -55.258  1.00  0.00     0.017 A 
HETATM    7  C   UNL     1     -44.641  59.660 -54.378  1.00  0.00     0.008 A 
HETATM    8  C   UNL     1     -43.394  60.164 -53.995  1.00  0.00    -0.057 A 
HETATM    9  C   UNL     1     -42.233  59.578 -54.525  1.00  0.00     0.008 A 
HETATM   10  C   UNL     1     -42.317  58.515 -55.429  1.00  0.00     0.017 A 
BRANCH   8  11
HETATM   11  C   UNL     1     -43.287  61.297 -52.994  1.00  0.00     0.053 C 
BRANCH  11  12
HETATM   12  C   UNL     1     -43.487  60.915 -51.518  1.00  0.00     0.091 C 
HETATM   13  C   UNL     1     -42.559  59.800 -51.105  1.00  0.00     0.229 C 
HETATM   14  O   UNL     1     -41.339  59.851 -51.115  1.00  0.00    -0.273 OA
HETATM   15  N   UNL     1     -43.297  58.703 -50.805  1.00  0.00    -0.297 N 
HETATM   16  C   UNL     1     -44.627  58.897 -50.979  1.00  0.00     0.225 C 
HETATM   17  H   UNL     1     -42.889  57.800 -50.621  1.00  0.00     0.171 HD
HETATM   18  O   UNL     1     -45.483  58.028 -50.962  1.00  0.00    -0.273 OA
HETATM   19  C   UNL     1     -44.872  60.363 -51.178  1.00  0.00     0.117 C 
ENDBRANCH  11  12
ENDBRANCH   8  11
ENDBRANCH   2   5
BRANCH   1  20
HETATM   20  C   UNL     1     -43.199  55.081 -55.088  1.00  0.00     0.133 A 
HETATM   21  C   UNL     1     -42.063  54.883 -54.322  1.00  0.00     0.018 A 
HETATM   22  C   UNL     1     -42.566  54.429 -53.044  1.00  0.00     0.097 A 
HETATM   23  N   UNL     1     -43.906  54.313 -53.094  1.00  0.00    -0.172 NA
HETATM   24  N   UNL     1     -44.254  54.690 -54.322  1.00  0.00    -0.261 N 
HETATM   25  H   UNL     1     -45.238  54.655 -54.565  1.00  0.00     0.191 HD
BRANCH  21  26
HETATM   26  C   UNL     1     -40.667  55.202 -54.748  1.00  0.00     0.040 C 
HETATM   27  C   UNL     1     -39.860  53.957 -55.082  1.00  0.00     0.010 C 
ENDBRANCH  21  26
BRANCH  22  28
HETATM   28  C   UNL     1     -41.884  54.140 -51.765  1.00  0.00    -0.002 A 
HETATM   29  C   UNL     1     -42.208  54.899 -50.630  1.00  0.00     0.033 A 
HETATM   30  C   UNL     1     -41.556  54.655 -49.433  1.00  0.00     0.117 A 
HETATM   31  N   UNL     1     -40.603  53.715 -49.285  1.00  0.00    -0.273 NA
HETATM   32  C   UNL     1     -40.308  52.982 -50.376  1.00  0.00     0.117 A 
HETATM   33  C   UNL     1     -40.915  53.148 -51.614  1.00  0.00     0.033 A 
ENDBRANCH  22  28
ENDBRANCH   1  20
TORSDOF 6
ENDMDL
MODEL 9
REMARK VINA RESULT:      -7.8      3.440      7.230
REMARK  6 active torsions:
REMARK  status: ('A' for Active; 'I' for Inactive)
REMARK    1  A    between atoms: C_2  and  C_3 
REMARK    2  A    between atoms: C_4  and  N_5 
REMARK       I    between atoms: N_5  and  C_6 
REMARK    3  A    between atoms: C_6  and  C_7 
REMARK    4  A    between atoms: C_10  and  C_11 
REMARK    5  A    between atoms: C_11  and  C_12 
REMARK    6  A    between atoms: C_25  and  C_26 
ROOT
HETATM    1  N   UNL     1     -41.936  55.603 -50.775  1.00  0.00    -0.307 N 
HETATM    2  C   UNL     1     -41.514  54.631 -51.734  1.00  0.00     0.257 C 
HETATM    3  O   UNL     1     -40.828  53.718 -51.309  1.00  0.00    -0.267 OA
HETATM    4  H   UNL     1     -41.396  55.627 -49.917  1.00  0.00     0.170 HD
ENDROOT
BRANCH   2   5
HETATM    5  C   UNL     1     -41.833  54.788 -53.173  1.00  0.00     0.032 A 
HETATM    6  C   UNL     1     -40.829  55.075 -54.107  1.00  0.00     0.017 A 
HETATM    7  C   UNL     1     -41.149  55.233 -55.455  1.00  0.00     0.008 A 
HETATM    8  C   UNL     1     -42.462  55.049 -55.899  1.00  0.00    -0.057 A 
HETATM    9  C   UNL     1     -43.456  54.722 -54.963  1.00  0.00     0.008 A 
HETATM   10  C   UNL     1     -43.146  54.590 -53.606  1.00  0.00     0.017 A 
BRANCH   8  11
HETATM   11  C   UNL     1     -42.808  55.160 -57.371  1.00  0.00     0.053 C 
BRANCH  11  12
HETATM   12  C   UNL     1     -43.445  56.486 -57.816  1.00  0.00     0.091 C 
HETATM   13  C   UNL     1     -42.785  57.026 -59.061  1.00  0.00     0.229 C 
HETATM   14  O   UNL     1     -42.752  56.468 -60.146  1.00  0.00    -0.273 OA
HETATM   15  N   UNL     1     -42.159  58.190 -58.757  1.00  0.00    -0.297 N 
HETATM   16  C   UNL     1     -42.274  58.525 -57.449  1.00  0.00     0.225 C 
HETATM   17  H   UNL     1     -41.550  58.670 -59.400  1.00  0.00     0.171 HD
HETATM   18  O   UNL     1     -41.655  59.411 -56.882  1.00  0.00    -0.273 OA
HETATM   19  C   UNL     1     -43.304  57.636 -56.818  1.00  0.00     0.117 C 
ENDBRANCH  11  12
ENDBRANCH   8  11
ENDBRANCH   2   5
BRANCH   1  20
HETATM   20  C   UNL     1     -43.040  56.429 -50.892  1.00  0.00     0.133 A 
HETATM   21  C   UNL     1     -43.020  57.717 -51.396  1.00  0.00     0.018 A 
HETATM   22  C   UNL     1     -44.407  58.128 -51.389  1.00  0.00     0.097 A 
HETATM   23  N   UNL     1     -45.170  57.156 -50.854  1.00  0.00    -0.172 NA
HETATM   24  N   UNL     1     -44.332  56.167 -50.552  1.00  0.00    -0.261 N 
HETATM   25  H   UNL     1     -44.719  55.337 -50.115  1.00  0.00     0.191 HD
BRANCH  21  26
HETATM   26  C   UNL     1     -41.812  58.422 -51.922  1.00  0.00     0.040 C 
HETATM   27  C   UNL     1     -41.794  58.494 -53.441  1.00  0.00     0.010 C 
ENDBRANCH  21  26
BRANCH  22  28
HETATM   28  C   UNL     1     -45.075  59.347 -51.890  1.00  0.00    -0.002 A 
HETATM   29  C   UNL     1     -45.703  60.208 -50.978  1.00  0.00     0.033 A 
HETATM   30  C   UNL     1     -46.355  61.339 -51.440  1.00  0.00     0.117 A 
HETATM   31  N   UNL     1     -46.432  61.671 -52.742  1.00  0.00    -0.273 NA
HETATM   32  C   UNL     1     -45.815  60.847 -53.610  1.00  0.00     0.117 A 
HETATM   33  C   UNL     1     -45.129  59.698 -53.239  1.00  0.00     0.033 A 
ENDBRANCH  22  28
ENDBRANCH   1  20
TORSDOF 6
ENDMDL
MODEL 10
REMARK VINA RESULT:      -7.7      3.658      6.138
REMARK  6 active torsions:
REMARK  status: ('A' for Active; 'I' for Inactive)
REMARK    1  A    between atoms: C_2  and  C_3 
REMARK    2  A    between atoms: C_4  and  N_5 
REMARK       I    between atoms: N_5  and  C_6 
REMARK    3  A    between atoms: C_6  and  C_7 
REMARK    4  A    between atoms: C_10  and  C_11 
REMARK    5  A    between atoms: C_11  and  C_12 
REMARK    6  A    between atoms: C_25  and  C_26 
ROOT
HETATM    1  N   UNL     1     -43.374  57.494 -56.759  1.00  0.00    -0.307 N 
HETATM    2  C   UNL     1     -42.998  56.117 -56.683  1.00  0.00     0.257 C 
HETATM    3  O   UNL     1     -43.079  55.480 -57.718  1.00  0.00    -0.267 OA
HETATM    4  H   UNL     1     -43.949  57.743 -57.556  1.00  0.00     0.170 HD
ENDROOT
BRANCH   2   5
HETATM    5  C   UNL     1     -42.618  55.499 -55.391  1.00  0.00     0.032 A 
HETATM    6  C   UNL     1     -43.496  54.643 -54.714  1.00  0.00     0.017 A 
HETATM    7  C   UNL     1     -43.127  54.080 -53.493  1.00  0.00     0.008 A 
HETATM    8  C   UNL     1     -41.855  54.315 -52.959  1.00  0.00    -0.057 A 
HETATM    9  C   UNL     1     -40.966  55.141 -53.663  1.00  0.00     0.008 A 
HETATM   10  C   UNL     1     -41.342  55.731 -54.874  1.00  0.00     0.017 A 
BRANCH   8  11
HETATM   11  C   UNL     1     -41.425  53.660 -51.662  1.00  0.00     0.053 C 
BRANCH  11  12
HETATM   12  C   UNL     1     -41.590  54.507 -50.390  1.00  0.00     0.091 C 
HETATM   13  C   UNL     1     -42.809  55.392 -50.470  1.00  0.00     0.229 C 
HETATM   14  O   UNL     1     -43.962  55.005 -50.579  1.00  0.00    -0.273 OA
HETATM   15  N   UNL     1     -42.411  56.688 -50.488  1.00  0.00    -0.297 N 
HETATM   16  C   UNL     1     -41.063  56.827 -50.457  1.00  0.00     0.225 C 
HETATM   17  H   UNL     1     -43.043  57.454 -50.660  1.00  0.00     0.171 HD
HETATM   18  O   UNL     1     -40.448  57.862 -50.651  1.00  0.00    -0.273 OA
HETATM   19  C   UNL     1     -40.455  55.497 -50.124  1.00  0.00     0.117 C 
ENDBRANCH  11  12
ENDBRANCH   8  11
ENDBRANCH   2   5
BRANCH   1  20
HETATM   20  C   UNL     1     -42.956  58.495 -55.900  1.00  0.00     0.133 A 
HETATM   21  C   UNL     1     -43.642  58.915 -54.774  1.00  0.00     0.018 A 
HETATM   22  C   UNL     1     -42.777  59.907 -54.174  1.00  0.00     0.097 A 
HETATM   23  N   UNL     1     -41.688  60.090 -54.944  1.00  0.00    -0.172 NA
HETATM   24  N   UNL     1     -41.828  59.254 -55.970  1.00  0.00    -0.261 N 
HETATM   25  H   UNL     1     -41.106  59.256 -56.682  1.00  0.00     0.191 HD
BRANCH  21  26
HETATM   26  C   UNL     1     -44.931  58.341 -54.282  1.00  0.00     0.040 C 
HETATM   27  C   UNL     1     -44.758  57.518 -53.015  1.00  0.00     0.010 C 
ENDBRANCH  21  26
BRANCH  22  28
HETATM   28  C   UNL     1     -42.874  60.661 -52.907  1.00  0.00    -0.002 A 
HETATM   29  C   UNL     1     -43.297  61.999 -52.937  1.00  0.00     0.033 A 
HETATM   30  C   UNL     1     -43.366  62.722 -51.759  1.00  0.00     0.117 A 
HETATM   31  N   UNL     1     -43.040  62.214 -50.555  1.00  0.00    -0.273 NA
HETATM   32  C   UNL     1     -42.648  60.926 -50.533  1.00  0.00     0.117 A 
HETATM   33  C   UNL     1     -42.558  60.120 -51.661  1.00  0.00     0.033 A 
ENDBRANCH  22  28
ENDBRANCH   1  20
TORSDOF 6
ENDMDL
