MODEL 1
REMARK VINA RESULT:      -8.5      0.000      0.000
REMARK  12 active torsions:
REMARK  status: ('A' for Active; 'I' for Inactive)
REMARK    1  A    between atoms: C_2  and  C_3 
REMARK    2  A    between atoms: C_3  and  N_4 
REMARK    3  A    between atoms: C_3  and  C_25 
REMARK    4  A    between atoms: N_4  and  C_6 
REMARK    5  A    between atoms: N_4  and  C_21 
REMARK    6  A    between atoms: C_6  and  C_7 
REMARK    7  A    between atoms: C_8  and  O_9 
REMARK    8  A    between atoms: C_21  and  C_22 
REMARK    9  A    between atoms: C_22  and  C_23 
REMARK   10  A    between atoms: C_23  and  O_24 
REMARK   11  A    between atoms: N_26  and  C_27 
REMARK   12  A    between atoms: C_27  and  C_28 
ROOT
HETATM    1  N   UNL     1     -41.641  57.077 -53.871  1.00  0.00    -0.055 N 
HETATM    2  H   UNL     1     -40.877  57.388 -54.477  1.00  0.00     0.281 HD
ENDROOT
BRANCH   1   3
HETATM    3  C   UNL     1     -41.337  55.591 -53.584  1.00  0.00     0.263 C 
BRANCH   3   4
HETATM    4  C   UNL     1     -41.373  54.673 -54.848  1.00  0.00     0.016 C 
HETATM    5  C   UNL     1     -42.406  53.543 -54.740  1.00  0.00     0.012 C 
HETATM    6  C   UNL     1     -40.039  54.099 -55.337  1.00  0.00     0.012 C 
ENDBRANCH   3   4
BRANCH   3   7
HETATM    7  C   UNL     1     -42.021  54.967 -52.410  1.00  0.00     0.168 A 
HETATM    8  N   UNL     1     -41.455  54.088 -51.514  1.00  0.00    -0.257 N 
HETATM    9  N   UNL     1     -42.383  53.688 -50.630  1.00  0.00    -0.003 NA
HETATM   10  N   UNL     1     -43.494  54.314 -50.974  1.00  0.00     0.018 NA
HETATM   11  N   UNL     1     -43.288  55.095 -52.073  1.00  0.00    -0.145 NA
BRANCH   8  12
HETATM   12  C   UNL     1     -40.101  53.579 -51.406  1.00  0.00     0.186 C 
BRANCH  12  13
HETATM   13  C   UNL     1     -39.997  52.113 -51.763  1.00  0.00    -0.039 A 
HETATM   14  C   UNL     1     -39.811  51.682 -53.089  1.00  0.00     0.009 A 
HETATM   15  C   UNL     1     -39.635  50.329 -53.381  1.00  0.00     0.001 A 
HETATM   16  C   UNL     1     -39.622  49.389 -52.356  1.00  0.00     0.000 A 
HETATM   17  C   UNL     1     -39.783  49.800 -51.034  1.00  0.00     0.001 A 
HETATM   18  C   UNL     1     -39.963  51.153 -50.738  1.00  0.00     0.009 A 
ENDBRANCH  12  13
ENDBRANCH   8  12
ENDBRANCH   3   7
ENDBRANCH   1   3
BRANCH   1  19
HETATM   19  C   UNL     1     -42.862  57.438 -54.731  1.00  0.00     0.278 C 
BRANCH  19  20
HETATM   20  C   UNL     1     -42.698  57.960 -56.123  1.00  0.00     0.021 A 
HETATM   21  C   UNL     1     -43.070  57.186 -57.213  1.00  0.00     0.170 A 
HETATM   22  N   UNL     1     -42.972  57.526 -58.506  1.00  0.00    -0.224 NA
HETATM   23  C   UNL     1     -42.470  58.736 -58.791  1.00  0.00     0.072 A 
HETATM   24  C   UNL     1     -42.005  59.612 -57.771  1.00  0.00    -0.004 A 
HETATM   25  C   UNL     1     -42.392  59.145 -60.117  1.00  0.00     0.072 A 
HETATM   26  C   UNL     1     -42.111  59.188 -56.437  1.00  0.00     0.027 A 
HETATM   27  C   UNL     1     -41.463  60.868 -58.094  1.00  0.00     0.053 A 
HETATM   28  C   UNL     1     -41.414  61.227 -59.421  1.00  0.00     0.106 A 
HETATM   29  C   UNL     1     -41.869  60.388 -60.406  1.00  0.00     0.107 A 
HETATM   30  O   UNL     1     -40.939  62.400 -59.911  1.00  0.00    -0.323 OA
HETATM   31  O   UNL     1     -41.738  60.929 -61.646  1.00  0.00    -0.323 OA
HETATM   32  C   UNL     1     -41.160  62.213 -61.327  1.00  0.00     0.352 A 
BRANCH  21  33
HETATM   33  O   UNL     1     -43.587  55.945 -57.043  1.00  0.00    -0.344 OA
HETATM   34  H   UNL     1     -42.833  55.519 -56.584  1.00  0.00     0.219 HD
ENDBRANCH  21  33
ENDBRANCH  19  20
ENDBRANCH   1  19
BRANCH   1  35
HETATM   35  C   UNL     1     -41.512  57.974 -52.646  1.00  0.00     0.238 C 
BRANCH  35  36
HETATM   36  C   UNL     1     -40.263  58.853 -52.735  1.00  0.00     0.054 C 
BRANCH  36  37
HETATM   37  C   UNL     1     -39.732  59.177 -51.345  1.00  0.00     0.165 C 
BRANCH  37  38
HETATM   38  O   UNL     1     -38.389  59.617 -51.476  1.00  0.00    -0.401 OA
HETATM   39  H   UNL     1     -38.341  60.169 -52.281  1.00  0.00     0.209 HD
ENDBRANCH  37  38
ENDBRANCH  36  37
ENDBRANCH  35  36
ENDBRANCH   1  35
TORSDOF 12
ENDMDL
MODEL 2
REMARK VINA RESULT:      -8.4      4.092      9.064
REMARK  12 active torsions:
REMARK  status: ('A' for Active; 'I' for Inactive)
REMARK    1  A    between atoms: C_2  and  C_3 
REMARK    2  A    between atoms: C_3  and  N_4 
REMARK    3  A    between atoms: C_3  and  C_25 
REMARK    4  A    between atoms: N_4  and  C_6 
REMARK    5  A    between atoms: N_4  and  C_21 
REMARK    6  A    between atoms: C_6  and  C_7 
REMARK    7  A    between atoms: C_8  and  O_9 
REMARK    8  A    between atoms: C_21  and  C_22 
REMARK    9  A    between atoms: C_22  and  C_23 
REMARK   10  A    between atoms: C_23  and  O_24 
REMARK   11  A    between atoms: N_26  and  C_27 
REMARK   12  A    between atoms: C_27  and  C_28 
ROOT
HETATM    1  N   UNL     1     -43.168  57.719 -52.572  1.00  0.00    -0.055 N 
HETATM    2  H   UNL     1     -43.124  56.984 -53.283  1.00  0.00     0.281 HD
ENDROOT
BRANCH   1   3
HETATM    3  C   UNL     1     -42.229  58.828 -53.090  1.00  0.00     0.263 C 
BRANCH   3   4
HETATM    4  C   UNL     1     -41.801  58.660 -54.584  1.00  0.00     0.016 C 
HETATM    5  C   UNL     1     -42.121  59.891 -55.443  1.00  0.00     0.012 C 
HETATM    6  C   UNL     1     -42.271  57.396 -55.311  1.00  0.00     0.012 C 
ENDBRANCH   3   4
BRANCH   3   7
HETATM    7  C   UNL     1     -41.083  59.219 -52.213  1.00  0.00     0.168 A 
HETATM    8  N   UNL     1     -41.165  59.948 -51.049  1.00  0.00    -0.257 N 
HETATM    9  N   UNL     1     -39.932  60.162 -50.564  1.00  0.00    -0.003 NA
HETATM   10  N   UNL     1     -39.110  59.570 -51.412  1.00  0.00     0.018 NA
HETATM   11  N   UNL     1     -39.804  58.997 -52.437  1.00  0.00    -0.145 NA
BRANCH   8  12
HETATM   12  C   UNL     1     -42.313  60.472 -50.332  1.00  0.00     0.186 C 
BRANCH  12  13
HETATM   13  C   UNL     1     -42.771  61.813 -50.862  1.00  0.00    -0.039 A 
HETATM   14  C   UNL     1     -43.460  61.935 -52.081  1.00  0.00     0.009 A 
HETATM   15  C   UNL     1     -43.944  63.173 -52.506  1.00  0.00     0.001 A 
HETATM   16  C   UNL     1     -43.764  64.303 -51.715  1.00  0.00     0.000 A 
HETATM   17  C   UNL     1     -43.102  64.197 -50.493  1.00  0.00     0.001 A 
HETATM   18  C   UNL     1     -42.614  62.960 -50.066  1.00  0.00     0.009 A 
ENDBRANCH  12  13
ENDBRANCH   8  12
ENDBRANCH   3   7
ENDBRANCH   1   3
BRANCH   1  19
HETATM   19  C   UNL     1     -42.775  56.932 -51.313  1.00  0.00     0.278 C 
BRANCH  19  20
HETATM   20  C   UNL     1     -42.029  55.638 -51.412  1.00  0.00     0.021 A 
HETATM   21  C   UNL     1     -41.390  55.107 -50.302  1.00  0.00     0.170 A 
HETATM   22  N   UNL     1     -40.685  53.968 -50.253  1.00  0.00    -0.224 NA
HETATM   23  C   UNL     1     -40.584  53.254 -51.384  1.00  0.00     0.072 A 
HETATM   24  C   UNL     1     -41.151  53.708 -52.608  1.00  0.00    -0.004 A 
HETATM   25  C   UNL     1     -39.900  52.045 -51.367  1.00  0.00     0.072 A 
HETATM   26  C   UNL     1     -41.855  54.923 -52.600  1.00  0.00     0.027 A 
HETATM   27  C   UNL     1     -41.015  52.955 -53.787  1.00  0.00     0.053 A 
HETATM   28  C   UNL     1     -40.333  51.762 -53.713  1.00  0.00     0.106 A 
HETATM   29  C   UNL     1     -39.792  51.318 -52.534  1.00  0.00     0.107 A 
HETATM   30  O   UNL     1     -40.119  50.904 -54.743  1.00  0.00    -0.323 OA
HETATM   31  O   UNL     1     -39.166  50.120 -52.672  1.00  0.00    -0.323 OA
HETATM   32  C   UNL     1     -39.388  49.852 -54.073  1.00  0.00     0.352 A 
BRANCH  21  33
HETATM   33  O   UNL     1     -41.424  55.745 -49.106  1.00  0.00    -0.344 OA
HETATM   34  H   UNL     1     -42.122  56.405 -49.296  1.00  0.00     0.219 HD
ENDBRANCH  21  33
ENDBRANCH  19  20
ENDBRANCH   1  19
BRANCH   1  35
HETATM   35  C   UNL     1     -44.639  58.118 -52.566  1.00  0.00     0.238 C 
BRANCH  35  36
HETATM   36  C   UNL     1     -45.252  57.945 -51.174  1.00  0.00     0.054 C 
BRANCH  36  37
HETATM   37  C   UNL     1     -45.808  59.268 -50.662  1.00  0.00     0.165 C 
BRANCH  37  38
HETATM   38  O   UNL     1     -45.887  59.196 -49.247  1.00  0.00    -0.401 OA
HETATM   39  H   UNL     1     -46.689  58.683 -49.026  1.00  0.00     0.209 HD
ENDBRANCH  37  38
ENDBRANCH  36  37
ENDBRANCH  35  36
ENDBRANCH   1  35
TORSDOF 12
ENDMDL
MODEL 3
REMARK VINA RESULT:      -8.3      3.823      8.586
REMARK  12 active torsions:
REMARK  status: ('A' for Active; 'I' for Inactive)
REMARK    1  A    between atoms: C_2  and  C_3 
REMARK    2  A    between atoms: C_3  and  N_4 
REMARK    3  A    between atoms: C_3  and  C_25 
REMARK    4  A    between atoms: N_4  and  C_6 
REMARK    5  A    between atoms: N_4  and  C_21 
REMARK    6  A    between atoms: C_6  and  C_7 
REMARK    7  A    between atoms: C_8  and  O_9 
REMARK    8  A    between atoms: C_21  and  C_22 
REMARK    9  A    between atoms: C_22  and  C_23 
REMARK   10  A    between atoms: C_23  and  O_24 
REMARK   11  A    between atoms: N_26  and  C_27 
REMARK   12  A    between atoms: C_27  and  C_28 
ROOT
HETATM    1  N   UNL     1     -43.294  58.022 -53.609  1.00  0.00    -0.055 N 
HETATM    2  H   UNL     1     -43.158  57.289 -54.310  1.00  0.00     0.281 HD
ENDROOT
BRANCH   1   3
HETATM    3  C   UNL     1     -43.372  59.333 -54.419  1.00  0.00     0.263 C 
BRANCH   3   4
HETATM    4  C   UNL     1     -44.806  59.948 -54.506  1.00  0.00     0.016 C 
HETATM    5  C   UNL     1     -45.405  59.879 -55.917  1.00  0.00     0.012 C 
HETATM    6  C   UNL     1     -45.001  61.358 -53.939  1.00  0.00     0.012 C 
ENDBRANCH   3   4
BRANCH   3   7
HETATM    7  C   UNL     1     -42.659  59.370 -55.732  1.00  0.00     0.168 A 
HETATM    8  N   UNL     1     -42.577  58.339 -56.640  1.00  0.00    -0.257 N 
HETATM    9  N   UNL     1     -41.805  58.710 -57.674  1.00  0.00    -0.003 NA
HETATM   10  N   UNL     1     -41.426  59.947 -57.407  1.00  0.00     0.018 NA
HETATM   11  N   UNL     1     -41.935  60.361 -56.211  1.00  0.00    -0.145 NA
BRANCH   8  12
HETATM   12  C   UNL     1     -43.167  57.013 -56.631  1.00  0.00     0.186 C 
BRANCH  12  13
HETATM   13  C   UNL     1     -43.784  56.639 -57.960  1.00  0.00    -0.039 A 
HETATM   14  C   UNL     1     -43.413  55.473 -58.651  1.00  0.00     0.009 A 
HETATM   15  C   UNL     1     -44.057  55.108 -59.834  1.00  0.00     0.001 A 
HETATM   16  C   UNL     1     -45.094  55.889 -60.334  1.00  0.00     0.000 A 
HETATM   17  C   UNL     1     -45.490  57.037 -59.651  1.00  0.00     0.001 A 
HETATM   18  C   UNL     1     -44.845  57.407 -58.468  1.00  0.00     0.009 A 
ENDBRANCH  12  13
ENDBRANCH   8  12
ENDBRANCH   3   7
ENDBRANCH   1   3
BRANCH   1  19
HETATM   19  C   UNL     1     -42.084  57.779 -52.693  1.00  0.00     0.278 C 
BRANCH  19  20
HETATM   20  C   UNL     1     -41.568  56.396 -52.446  1.00  0.00     0.021 A 
HETATM   21  C   UNL     1     -41.242  55.985 -51.162  1.00  0.00     0.170 A 
HETATM   22  N   UNL     1     -40.765  54.785 -50.803  1.00  0.00    -0.224 NA
HETATM   23  C   UNL     1     -40.586  53.875 -51.772  1.00  0.00     0.072 A 
HETATM   24  C   UNL     1     -40.835  54.181 -53.139  1.00  0.00    -0.004 A 
HETATM   25  C   UNL     1     -40.136  52.604 -51.437  1.00  0.00     0.072 A 
HETATM   26  C   UNL     1     -41.308  55.465 -53.454  1.00  0.00     0.027 A 
HETATM   27  C   UNL     1     -40.620  53.219 -54.142  1.00  0.00     0.053 A 
HETATM   28  C   UNL     1     -40.179  51.974 -53.755  1.00  0.00     0.106 A 
HETATM   29  C   UNL     1     -39.945  51.675 -52.438  1.00  0.00     0.107 A 
HETATM   30  O   UNL     1     -39.934  50.926 -54.582  1.00  0.00    -0.323 OA
HETATM   31  O   UNL     1     -39.522  50.394 -52.267  1.00  0.00    -0.323 OA
HETATM   32  C   UNL     1     -39.529  49.917 -53.629  1.00  0.00     0.352 A 
BRANCH  21  33
HETATM   33  O   UNL     1     -41.381  56.823 -50.105  1.00  0.00    -0.344 OA
HETATM   34  H   UNL     1     -40.584  56.571 -49.595  1.00  0.00     0.219 HD
ENDBRANCH  21  33
ENDBRANCH  19  20
ENDBRANCH   1  19
BRANCH   1  35
HETATM   35  C   UNL     1     -44.608  57.636 -52.942  1.00  0.00     0.238 C 
BRANCH  35  36
HETATM   36  C   UNL     1     -44.556  57.886 -51.433  1.00  0.00     0.054 C 
BRANCH  36  37
HETATM   37  C   UNL     1     -45.596  58.919 -51.021  1.00  0.00     0.165 C 
BRANCH  37  38
HETATM   38  O   UNL     1     -45.842  58.770 -49.632  1.00  0.00    -0.401 OA
HETATM   39  H   UNL     1     -46.792  58.942 -49.484  1.00  0.00     0.209 HD
ENDBRANCH  37  38
ENDBRANCH  36  37
ENDBRANCH  35  36
ENDBRANCH   1  35
TORSDOF 12
ENDMDL
MODEL 4
REMARK VINA RESULT:      -8.2      3.810      8.989
REMARK  12 active torsions:
REMARK  status: ('A' for Active; 'I' for Inactive)
REMARK    1  A    between atoms: C_2  and  C_3 
REMARK    2  A    between atoms: C_3  and  N_4 
REMARK    3  A    between atoms: C_3  and  C_25 
REMARK    4  A    between atoms: N_4  and  C_6 
REMARK    5  A    between atoms: N_4  and  C_21 
REMARK    6  A    between atoms: C_6  and  C_7 
REMARK    7  A    between atoms: C_8  and  O_9 
REMARK    8  A    between atoms: C_21  and  C_22 
REMARK    9  A    between atoms: C_22  and  C_23 
REMARK   10  A    between atoms: C_23  and  O_24 
REMARK   11  A    between atoms: N_26  and  C_27 
REMARK   12  A    between atoms: C_27  and  C_28 
ROOT
HETATM    1  N   UNL     1     -43.231  57.681 -53.142  1.00  0.00    -0.055 N 
HETATM    2  H   UNL     1     -43.672  56.805 -52.848  1.00  0.00     0.281 HD
ENDROOT
BRANCH   1   3
HETATM    3  C   UNL     1     -43.672  57.873 -54.608  1.00  0.00     0.263 C 
BRANCH   3   4
HETATM    4  C   UNL     1     -43.727  56.551 -55.440  1.00  0.00     0.016 C 
HETATM    5  C   UNL     1     -44.114  55.328 -54.599  1.00  0.00     0.012 C 
HETATM    6  C   UNL     1     -42.505  56.212 -56.300  1.00  0.00     0.012 C 
ENDBRANCH   3   4
BRANCH   3   7
HETATM    7  C   UNL     1     -43.046  58.996 -55.370  1.00  0.00     0.168 A 
HETATM    8  N   UNL     1     -43.665  59.778 -56.318  1.00  0.00    -0.257 N 
HETATM    9  N   UNL     1     -42.780  60.644 -56.835  1.00  0.00    -0.003 NA
HETATM   10  N   UNL     1     -41.641  60.401 -56.212  1.00  0.00     0.018 NA
HETATM   11  N   UNL     1     -41.788  59.383 -55.317  1.00  0.00    -0.145 NA
BRANCH   8  12
HETATM   12  C   UNL     1     -45.036  59.792 -56.793  1.00  0.00     0.186 C 
BRANCH  12  13
HETATM   13  C   UNL     1     -45.283  58.788 -57.896  1.00  0.00    -0.039 A 
HETATM   14  C   UNL     1     -44.253  58.347 -58.745  1.00  0.00     0.009 A 
HETATM   15  C   UNL     1     -44.489  57.358 -59.700  1.00  0.00     0.001 A 
HETATM   16  C   UNL     1     -45.750  56.780 -59.811  1.00  0.00     0.000 A 
HETATM   17  C   UNL     1     -46.778  57.189 -58.964  1.00  0.00     0.001 A 
HETATM   18  C   UNL     1     -46.545  58.181 -58.008  1.00  0.00     0.009 A 
ENDBRANCH  12  13
ENDBRANCH   8  12
ENDBRANCH   3   7
ENDBRANCH   1   3
BRANCH   1  19
HETATM   19  C   UNL     1     -41.755  57.382 -52.837  1.00  0.00     0.278 C 
BRANCH  19  20
HETATM   20  C   UNL     1     -41.328  56.042 -52.328  1.00  0.00     0.021 A 
HETATM   21  C   UNL     1     -41.214  55.809 -50.965  1.00  0.00     0.170 A 
HETATM   22  N   UNL     1     -40.837  54.665 -50.377  1.00  0.00    -0.224 NA
HETATM   23  C   UNL     1     -40.542  53.628 -51.174  1.00  0.00     0.072 A 
HETATM   24  C   UNL     1     -40.571  53.743 -52.592  1.00  0.00    -0.004 A 
HETATM   25  C   UNL     1     -40.190  52.410 -50.605  1.00  0.00     0.072 A 
HETATM   26  C   UNL     1     -40.949  54.976 -53.148  1.00  0.00     0.027 A 
HETATM   27  C   UNL     1     -40.237  52.649 -53.409  1.00  0.00     0.053 A 
HETATM   28  C   UNL     1     -39.902  51.465 -52.794  1.00  0.00     0.106 A 
HETATM   29  C   UNL     1     -39.881  51.349 -51.428  1.00  0.00     0.107 A 
HETATM   30  O   UNL     1     -39.568  50.309 -53.423  1.00  0.00    -0.323 OA
HETATM   31  O   UNL     1     -39.530  50.100 -51.021  1.00  0.00    -0.323 OA
HETATM   32  C   UNL     1     -39.346  49.438 -52.291  1.00  0.00     0.352 A 
BRANCH  21  33
HETATM   33  O   UNL     1     -41.485  56.787 -50.066  1.00  0.00    -0.344 OA
HETATM   34  H   UNL     1     -40.862  57.473 -50.383  1.00  0.00     0.219 HD
ENDBRANCH  21  33
ENDBRANCH  19  20
ENDBRANCH   1  19
BRANCH   1  35
HETATM   35  C   UNL     1     -43.818  58.713 -52.187  1.00  0.00     0.238 C 
BRANCH  35  36
HETATM   36  C   UNL     1     -44.862  58.080 -51.264  1.00  0.00     0.054 C 
BRANCH  36  37
HETATM   37  C   UNL     1     -45.831  59.133 -50.743  1.00  0.00     0.165 C 
BRANCH  37  38
HETATM   38  O   UNL     1     -45.827  59.075 -49.325  1.00  0.00    -0.401 OA
HETATM   39  H   UNL     1     -45.034  58.570 -49.057  1.00  0.00     0.209 HD
ENDBRANCH  37  38
ENDBRANCH  36  37
ENDBRANCH  35  36
ENDBRANCH   1  35
TORSDOF 12
ENDMDL
MODEL 5
REMARK VINA RESULT:      -8.2      2.077      2.820
REMARK  12 active torsions:
REMARK  status: ('A' for Active; 'I' for Inactive)
REMARK    1  A    between atoms: C_2  and  C_3 
REMARK    2  A    between atoms: C_3  and  N_4 
REMARK    3  A    between atoms: C_3  and  C_25 
REMARK    4  A    between atoms: N_4  and  C_6 
REMARK    5  A    between atoms: N_4  and  C_21 
REMARK    6  A    between atoms: C_6  and  C_7 
REMARK    7  A    between atoms: C_8  and  O_9 
REMARK    8  A    between atoms: C_21  and  C_22 
REMARK    9  A    between atoms: C_22  and  C_23 
REMARK   10  A    between atoms: C_23  and  O_24 
REMARK   11  A    between atoms: N_26  and  C_27 
REMARK   12  A    between atoms: C_27  and  C_28 
ROOT
HETATM    1  N   UNL     1     -43.529  58.060 -53.149  1.00  0.00    -0.055 N 
HETATM    2  H   UNL     1     -42.890  58.705 -53.621  1.00  0.00     0.281 HD
ENDROOT
BRANCH   1   3
HETATM    3  C   UNL     1     -42.706  57.471 -51.984  1.00  0.00     0.263 C 
BRANCH   3   4
HETATM    4  C   UNL     1     -41.170  57.739 -52.084  1.00  0.00     0.016 C 
HETATM    5  C   UNL     1     -40.551  58.190 -50.755  1.00  0.00     0.012 C 
HETATM    6  C   UNL     1     -40.690  58.663 -53.208  1.00  0.00     0.012 C 
ENDBRANCH   3   4
BRANCH   3   7
HETATM    7  C   UNL     1     -43.010  56.066 -51.573  1.00  0.00     0.168 A 
HETATM    8  N   UNL     1     -42.455  54.926 -52.109  1.00  0.00    -0.257 N 
HETATM    9  N   UNL     1     -43.010  53.845 -51.540  1.00  0.00    -0.003 NA
HETATM   10  N   UNL     1     -43.885  54.313 -50.668  1.00  0.00     0.018 NA
HETATM   11  N   UNL     1     -43.902  55.677 -50.686  1.00  0.00    -0.145 NA
BRANCH   8  12
HETATM   12  C   UNL     1     -41.432  54.751 -53.124  1.00  0.00     0.186 C 
BRANCH  12  13
HETATM   13  C   UNL     1     -40.853  53.354 -53.135  1.00  0.00    -0.039 A 
HETATM   14  C   UNL     1     -40.966  52.510 -54.254  1.00  0.00     0.009 A 
HETATM   15  C   UNL     1     -40.351  51.258 -54.268  1.00  0.00     0.001 A 
HETATM   16  C   UNL     1     -39.599  50.836 -53.176  1.00  0.00     0.000 A 
HETATM   17  C   UNL     1     -39.458  51.667 -52.067  1.00  0.00     0.001 A 
HETATM   18  C   UNL     1     -40.075  52.921 -52.048  1.00  0.00     0.009 A 
ENDBRANCH  12  13
ENDBRANCH   8  12
ENDBRANCH   3   7
ENDBRANCH   1   3
BRANCH   1  19
HETATM   19  C   UNL     1     -43.938  57.147 -54.314  1.00  0.00     0.278 C 
BRANCH  19  20
HETATM   20  C   UNL     1     -43.491  57.432 -55.713  1.00  0.00     0.021 A 
HETATM   21  C   UNL     1     -43.236  56.394 -56.596  1.00  0.00     0.170 A 
HETATM   22  N   UNL     1     -42.825  56.507 -57.867  1.00  0.00    -0.224 NA
HETATM   23  C   UNL     1     -42.642  57.745 -58.350  1.00  0.00     0.072 A 
HETATM   24  C   UNL     1     -42.821  58.899 -57.537  1.00  0.00    -0.004 A 
HETATM   25  C   UNL     1     -42.260  57.908 -59.676  1.00  0.00     0.072 A 
HETATM   26  C   UNL     1     -43.227  58.713 -56.206  1.00  0.00     0.027 A 
HETATM   27  C   UNL     1     -42.604  60.186 -58.058  1.00  0.00     0.053 A 
HETATM   28  C   UNL     1     -42.232  60.292 -59.378  1.00  0.00     0.106 A 
HETATM   29  C   UNL     1     -42.066  59.182 -60.166  1.00  0.00     0.107 A 
HETATM   30  O   UNL     1     -41.995  61.449 -60.047  1.00  0.00    -0.323 OA
HETATM   31  O   UNL     1     -41.703  59.501 -61.437  1.00  0.00    -0.323 OA
HETATM   32  C   UNL     1     -41.673  60.942 -61.362  1.00  0.00     0.352 A 
BRANCH  21  33
HETATM   33  O   UNL     1     -43.385  55.102 -56.215  1.00  0.00    -0.344 OA
HETATM   34  H   UNL     1     -42.701  55.061 -55.514  1.00  0.00     0.219 HD
ENDBRANCH  21  33
ENDBRANCH  19  20
ENDBRANCH   1  19
BRANCH   1  35
HETATM   35  C   UNL     1     -44.671  58.961 -52.694  1.00  0.00     0.238 C 
BRANCH  35  36
HETATM   36  C   UNL     1     -44.482  59.402 -51.242  1.00  0.00     0.054 C 
BRANCH  36  37
HETATM   37  C   UNL     1     -45.828  59.657 -50.576  1.00  0.00     0.165 C 
BRANCH  37  38
HETATM   38  O   UNL     1     -45.800  59.069 -49.284  1.00  0.00    -0.401 OA
HETATM   39  H   UNL     1     -45.865  58.102 -49.403  1.00  0.00     0.209 HD
ENDBRANCH  37  38
ENDBRANCH  36  37
ENDBRANCH  35  36
ENDBRANCH   1  35
TORSDOF 12
ENDMDL
MODEL 6
REMARK VINA RESULT:      -8.1      2.372      3.477
REMARK  12 active torsions:
REMARK  status: ('A' for Active; 'I' for Inactive)
REMARK    1  A    between atoms: C_2  and  C_3 
REMARK    2  A    between atoms: C_3  and  N_4 
REMARK    3  A    between atoms: C_3  and  C_25 
REMARK    4  A    between atoms: N_4  and  C_6 
REMARK    5  A    between atoms: N_4  and  C_21 
REMARK    6  A    between atoms: C_6  and  C_7 
REMARK    7  A    between atoms: C_8  and  O_9 
REMARK    8  A    between atoms: C_21  and  C_22 
REMARK    9  A    between atoms: C_22  and  C_23 
REMARK   10  A    between atoms: C_23  and  O_24 
REMARK   11  A    between atoms: N_26  and  C_27 
REMARK   12  A    between atoms: C_27  and  C_28 
ROOT
HETATM    1  N   UNL     1     -42.286  56.706 -51.996  1.00  0.00    -0.055 N 
HETATM    2  H   UNL     1     -41.688  56.534 -51.183  1.00  0.00     0.281 HD
ENDROOT
BRANCH   1   3
HETATM    3  C   UNL     1     -43.089  55.401 -52.179  1.00  0.00     0.263 C 
BRANCH   3   4
HETATM    4  C   UNL     1     -42.999  54.417 -50.967  1.00  0.00     0.016 C 
HETATM    5  C   UNL     1     -44.335  54.243 -50.234  1.00  0.00     0.012 C 
HETATM    6  C   UNL     1     -41.885  54.664 -49.945  1.00  0.00     0.012 C 
ENDBRANCH   3   4
BRANCH   3   7
HETATM    7  C   UNL     1     -42.961  54.697 -53.491  1.00  0.00     0.168 A 
HETATM    8  N   UNL     1     -41.841  54.047 -53.957  1.00  0.00    -0.257 N 
HETATM    9  N   UNL     1     -42.070  53.588 -55.197  1.00  0.00    -0.003 NA
HETATM   10  N   UNL     1     -43.310  53.944 -55.484  1.00  0.00     0.018 NA
HETATM   11  N   UNL     1     -43.865  54.636 -54.447  1.00  0.00    -0.145 NA
BRANCH   8  12
HETATM   12  C   UNL     1     -40.550  53.811 -53.337  1.00  0.00     0.186 C 
BRANCH  12  13
HETATM   13  C   UNL     1     -40.268  52.341 -53.117  1.00  0.00    -0.039 A 
HETATM   14  C   UNL     1     -40.249  51.420 -54.178  1.00  0.00     0.009 A 
HETATM   15  C   UNL     1     -39.905  50.085 -53.959  1.00  0.00     0.001 A 
HETATM   16  C   UNL     1     -39.556  49.654 -52.683  1.00  0.00     0.000 A 
HETATM   17  C   UNL     1     -39.548  50.558 -51.623  1.00  0.00     0.001 A 
HETATM   18  C   UNL     1     -39.896  51.894 -51.838  1.00  0.00     0.009 A 
ENDBRANCH  12  13
ENDBRANCH   8  12
ENDBRANCH   3   7
ENDBRANCH   1   3
BRANCH   1  19
HETATM   19  C   UNL     1     -41.241  57.097 -53.052  1.00  0.00     0.278 C 
BRANCH  19  20
HETATM   20  C   UNL     1     -41.624  57.887 -54.263  1.00  0.00     0.021 A 
HETATM   21  C   UNL     1     -41.482  59.266 -54.278  1.00  0.00     0.170 A 
HETATM   22  N   UNL     1     -41.791  60.092 -55.288  1.00  0.00    -0.224 NA
HETATM   23  C   UNL     1     -42.285  59.542 -56.407  1.00  0.00     0.072 A 
HETATM   24  C   UNL     1     -42.527  58.144 -56.509  1.00  0.00    -0.004 A 
HETATM   25  C   UNL     1     -42.577  60.357 -57.494  1.00  0.00     0.072 A 
HETATM   26  C   UNL     1     -42.206  57.335 -55.407  1.00  0.00     0.027 A 
HETATM   27  C   UNL     1     -43.065  57.591 -57.684  1.00  0.00     0.053 A 
HETATM   28  C   UNL     1     -43.331  58.441 -58.733  1.00  0.00     0.106 A 
HETATM   29  C   UNL     1     -43.091  59.788 -58.640  1.00  0.00     0.107 A 
HETATM   30  O   UNL     1     -43.835  58.081 -59.940  1.00  0.00    -0.323 OA
HETATM   31  O   UNL     1     -43.415  60.450 -59.783  1.00  0.00    -0.323 OA
HETATM   32  C   UNL     1     -43.874  59.361 -60.611  1.00  0.00     0.352 A 
BRANCH  21  33
HETATM   33  O   UNL     1     -40.995  59.929 -53.200  1.00  0.00    -0.344 OA
HETATM   34  H   UNL     1     -40.414  59.231 -52.832  1.00  0.00     0.219 HD
ENDBRANCH  21  33
ENDBRANCH  19  20
ENDBRANCH   1  19
BRANCH   1  35
HETATM   35  C   UNL     1     -43.140  57.893 -51.564  1.00  0.00     0.238 C 
BRANCH  35  36
HETATM   36  C   UNL     1     -44.624  57.631 -51.828  1.00  0.00     0.054 C 
BRANCH  36  37
HETATM   37  C   UNL     1     -45.493  58.570 -51.002  1.00  0.00     0.165 C 
BRANCH  37  38
HETATM   38  O   UNL     1     -44.644  59.326 -50.153  1.00  0.00    -0.401 OA
HETATM   39  H   UNL     1     -44.310  58.721 -49.462  1.00  0.00     0.209 HD
ENDBRANCH  37  38
ENDBRANCH  36  37
ENDBRANCH  35  36
ENDBRANCH   1  35
TORSDOF 12
ENDMDL
MODEL 7
REMARK VINA RESULT:      -7.9     16.660     19.062
REMARK  12 active torsions:
REMARK  status: ('A' for Active; 'I' for Inactive)
REMARK    1  A    between atoms: C_2  and  C_3 
REMARK    2  A    between atoms: C_3  and  N_4 
REMARK    3  A    between atoms: C_3  and  C_25 
REMARK    4  A    between atoms: N_4  and  C_6 
REMARK    5  A    between atoms: N_4  and  C_21 
REMARK    6  A    between atoms: C_6  and  C_7 
REMARK    7  A    between atoms: C_8  and  O_9 
REMARK    8  A    between atoms: C_21  and  C_22 
REMARK    9  A    between atoms: C_22  and  C_23 
REMARK   10  A    between atoms: C_23  and  O_24 
REMARK   11  A    between atoms: N_26  and  C_27 
REMARK   12  A    between atoms: C_27  and  C_28 
ROOT
HETATM    1  N   UNL     1     -33.074  39.034 -54.085  1.00  0.00    -0.055 N 
HETATM    2  H   UNL     1     -32.348  38.666 -53.465  1.00  0.00     0.281 HD
ENDROOT
BRANCH   1   3
HETATM    3  C   UNL     1     -33.886  40.009 -53.206  1.00  0.00     0.263 C 
BRANCH   3   4
HETATM    4  C   UNL     1     -33.091  40.596 -51.996  1.00  0.00     0.016 C 
HETATM    5  C   UNL     1     -32.048  39.621 -51.433  1.00  0.00     0.012 C 
HETATM    6  C   UNL     1     -33.905  41.192 -50.843  1.00  0.00     0.012 C 
ENDBRANCH   3   4
BRANCH   3   7
HETATM    7  C   UNL     1     -35.272  39.596 -52.827  1.00  0.00     0.168 A 
HETATM    8  N   UNL     1     -36.405  40.370 -52.931  1.00  0.00    -0.257 N 
HETATM    9  N   UNL     1     -37.457  39.695 -52.440  1.00  0.00    -0.003 NA
HETATM   10  N   UNL     1     -36.978  38.528 -52.048  1.00  0.00     0.018 NA
HETATM   11  N   UNL     1     -35.634  38.459 -52.270  1.00  0.00    -0.145 NA
BRANCH   8  12
HETATM   12  C   UNL     1     -36.601  41.707 -53.459  1.00  0.00     0.186 C 
BRANCH  12  13
HETATM   13  C   UNL     1     -36.592  41.747 -54.971  1.00  0.00    -0.039 A 
HETATM   14  C   UNL     1     -35.455  42.142 -55.698  1.00  0.00     0.009 A 
HETATM   15  C   UNL     1     -35.447  42.089 -57.092  1.00  0.00     0.001 A 
HETATM   16  C   UNL     1     -36.563  41.625 -57.781  1.00  0.00     0.000 A 
HETATM   17  C   UNL     1     -37.690  41.209 -57.076  1.00  0.00     0.001 A 
HETATM   18  C   UNL     1     -37.704  41.263 -55.680  1.00  0.00     0.009 A 
ENDBRANCH  12  13
ENDBRANCH   8  12
ENDBRANCH   3   7
ENDBRANCH   1   3
BRANCH   1  19
HETATM   19  C   UNL     1     -33.734  37.734 -54.568  1.00  0.00     0.278 C 
BRANCH  19  20
HETATM   20  C   UNL     1     -34.739  37.743 -55.675  1.00  0.00     0.021 A 
HETATM   21  C   UNL     1     -36.003  37.204 -55.484  1.00  0.00     0.170 A 
HETATM   22  N   UNL     1     -36.992  37.141 -56.388  1.00  0.00    -0.224 NA
HETATM   23  C   UNL     1     -36.751  37.652 -57.604  1.00  0.00     0.072 A 
HETATM   24  C   UNL     1     -35.481  38.192 -57.950  1.00  0.00    -0.004 A 
HETATM   25  C   UNL     1     -37.763  37.647 -58.556  1.00  0.00     0.072 A 
HETATM   26  C   UNL     1     -34.478  38.206 -56.967  1.00  0.00     0.027 A 
HETATM   27  C   UNL     1     -35.244  38.703 -59.238  1.00  0.00     0.053 A 
HETATM   28  C   UNL     1     -36.282  38.679 -60.141  1.00  0.00     0.106 A 
HETATM   29  C   UNL     1     -37.509  38.166 -59.808  1.00  0.00     0.107 A 
HETATM   30  O   UNL     1     -36.236  39.141 -61.417  1.00  0.00    -0.323 OA
HETATM   31  O   UNL     1     -38.396  38.240 -60.835  1.00  0.00    -0.323 OA
HETATM   32  C   UNL     1     -37.589  38.873 -61.851  1.00  0.00     0.352 A 
BRANCH  21  33
HETATM   33  O   UNL     1     -36.355  36.658 -54.294  1.00  0.00    -0.344 OA
HETATM   34  H   UNL     1     -37.275  36.394 -54.504  1.00  0.00     0.219 HD
ENDBRANCH  21  33
ENDBRANCH  19  20
ENDBRANCH   1  19
BRANCH   1  35
HETATM   35  C   UNL     1     -32.282  39.723 -55.190  1.00  0.00     0.238 C 
BRANCH  35  36
HETATM   36  C   UNL     1     -30.876  39.132 -55.311  1.00  0.00     0.054 C 
BRANCH  36  37
HETATM   37  C   UNL     1     -30.427  39.103 -56.766  1.00  0.00     0.165 C 
BRANCH  37  38
HETATM   38  O   UNL     1     -29.878  40.373 -57.085  1.00  0.00    -0.401 OA
HETATM   39  H   UNL     1     -30.558  41.044 -56.877  1.00  0.00     0.209 HD
ENDBRANCH  37  38
ENDBRANCH  36  37
ENDBRANCH  35  36
ENDBRANCH   1  35
TORSDOF 12
ENDMDL
MODEL 8
REMARK VINA RESULT:      -7.9      2.816      3.769
REMARK  12 active torsions:
REMARK  status: ('A' for Active; 'I' for Inactive)
REMARK    1  A    between atoms: C_2  and  C_3 
REMARK    2  A    between atoms: C_3  and  N_4 
REMARK    3  A    between atoms: C_3  and  C_25 
REMARK    4  A    between atoms: N_4  and  C_6 
REMARK    5  A    between atoms: N_4  and  C_21 
REMARK    6  A    between atoms: C_6  and  C_7 
REMARK    7  A    between atoms: C_8  and  O_9 
REMARK    8  A    between atoms: C_21  and  C_22 
REMARK    9  A    between atoms: C_22  and  C_23 
REMARK   10  A    between atoms: C_23  and  O_24 
REMARK   11  A    between atoms: N_26  and  C_27 
REMARK   12  A    between atoms: C_27  and  C_28 
ROOT
HETATM    1  N   UNL     1     -41.821  58.084 -53.167  1.00  0.00    -0.055 N 
HETATM    2  H   UNL     1     -41.066  57.392 -53.182  1.00  0.00     0.281 HD
ENDROOT
BRANCH   1   3
HETATM    3  C   UNL     1     -43.097  57.269 -52.864  1.00  0.00     0.263 C 
BRANCH   3   4
HETATM    4  C   UNL     1     -43.454  57.178 -51.346  1.00  0.00     0.016 C 
HETATM    5  C   UNL     1     -43.331  55.756 -50.784  1.00  0.00     0.012 C 
HETATM    6  C   UNL     1     -44.788  57.788 -50.901  1.00  0.00     0.012 C 
ENDBRANCH   3   4
BRANCH   3   7
HETATM    7  C   UNL     1     -43.252  55.957 -53.563  1.00  0.00     0.168 A 
HETATM    8  N   UNL     1     -42.268  55.012 -53.743  1.00  0.00    -0.257 N 
HETATM    9  N   UNL     1     -42.751  53.991 -54.468  1.00  0.00    -0.003 NA
HETATM   10  N   UNL     1     -44.010  54.301 -54.722  1.00  0.00     0.018 NA
HETATM   11  N   UNL     1     -44.327  55.513 -54.181  1.00  0.00    -0.145 NA
BRANCH   8  12
HETATM   12  C   UNL     1     -40.889  54.975 -53.291  1.00  0.00     0.186 C 
BRANCH  12  13
HETATM   13  C   UNL     1     -40.471  53.606 -52.803  1.00  0.00    -0.039 A 
HETATM   14  C   UNL     1     -39.989  52.619 -53.680  1.00  0.00     0.009 A 
HETATM   15  C   UNL     1     -39.532  51.393 -53.194  1.00  0.00     0.001 A 
HETATM   16  C   UNL     1     -39.531  51.141 -51.826  1.00  0.00     0.000 A 
HETATM   17  C   UNL     1     -39.986  52.115 -50.940  1.00  0.00     0.001 A 
HETATM   18  C   UNL     1     -40.447  53.342 -51.424  1.00  0.00     0.009 A 
ENDBRANCH  12  13
ENDBRANCH   8  12
ENDBRANCH   3   7
ENDBRANCH   1   3
BRANCH   1  19
HETATM   19  C   UNL     1     -41.654  58.729 -54.551  1.00  0.00     0.278 C 
BRANCH  19  20
HETATM   20  C   UNL     1     -42.571  58.380 -55.681  1.00  0.00     0.021 A 
HETATM   21  C   UNL     1     -43.737  59.102 -55.890  1.00  0.00     0.170 A 
HETATM   22  N   UNL     1     -44.645  58.893 -56.854  1.00  0.00    -0.224 NA
HETATM   23  C   UNL     1     -44.415  57.891 -57.714  1.00  0.00     0.072 A 
HETATM   24  C   UNL     1     -43.281  57.041 -57.586  1.00  0.00    -0.004 A 
HETATM   25  C   UNL     1     -45.308  57.668 -58.755  1.00  0.00     0.072 A 
HETATM   26  C   UNL     1     -42.379  57.295 -56.540  1.00  0.00     0.027 A 
HETATM   27  C   UNL     1     -43.069  55.982 -58.486  1.00  0.00     0.053 A 
HETATM   28  C   UNL     1     -43.981  55.810 -59.502  1.00  0.00     0.106 A 
HETATM   29  C   UNL     1     -45.071  56.632 -59.633  1.00  0.00     0.107 A 
HETATM   30  O   UNL     1     -43.928  54.854 -60.465  1.00  0.00    -0.323 OA
HETATM   31  O   UNL     1     -45.844  56.298 -60.700  1.00  0.00    -0.323 OA
HETATM   32  C   UNL     1     -45.108  55.178 -61.235  1.00  0.00     0.352 A 
BRANCH  21  33
HETATM   33  O   UNL     1     -44.073  60.135 -55.079  1.00  0.00    -0.344 OA
HETATM   34  H   UNL     1     -43.688  60.874 -55.594  1.00  0.00     0.219 HD
ENDBRANCH  21  33
ENDBRANCH  19  20
ENDBRANCH   1  19
BRANCH   1  35
HETATM   35  C   UNL     1     -41.416  59.026 -52.040  1.00  0.00     0.238 C 
BRANCH  35  36
HETATM   36  C   UNL     1     -40.321  58.408 -51.169  1.00  0.00     0.054 C 
BRANCH  36  37
HETATM   37  C   UNL     1     -39.160  59.377 -50.993  1.00  0.00     0.165 C 
BRANCH  37  38
HETATM   38  O   UNL     1     -38.463  59.462 -52.226  1.00  0.00    -0.401 OA
HETATM   39  H   UNL     1     -38.072  58.584 -52.400  1.00  0.00     0.209 HD
ENDBRANCH  37  38
ENDBRANCH  36  37
ENDBRANCH  35  36
ENDBRANCH   1  35
TORSDOF 12
ENDMDL
MODEL 9
REMARK VINA RESULT:      -7.8      3.419      8.540
REMARK  12 active torsions:
REMARK  status: ('A' for Active; 'I' for Inactive)
REMARK    1  A    between atoms: C_2  and  C_3 
REMARK    2  A    between atoms: C_3  and  N_4 
REMARK    3  A    between atoms: C_3  and  C_25 
REMARK    4  A    between atoms: N_4  and  C_6 
REMARK    5  A    between atoms: N_4  and  C_21 
REMARK    6  A    between atoms: C_6  and  C_7 
REMARK    7  A    between atoms: C_8  and  O_9 
REMARK    8  A    between atoms: C_21  and  C_22 
REMARK    9  A    between atoms: C_22  and  C_23 
REMARK   10  A    between atoms: C_23  and  O_24 
REMARK   11  A    between atoms: N_26  and  C_27 
REMARK   12  A    between atoms: C_27  and  C_28 
ROOT
HETATM    1  N   UNL     1     -44.383  58.579 -55.230  1.00  0.00    -0.055 N 
HETATM    2  H   UNL     1     -43.644  58.317 -55.889  1.00  0.00     0.281 HD
ENDROOT
BRANCH   1   3
HETATM    3  C   UNL     1     -43.750  59.668 -54.338  1.00  0.00     0.263 C 
BRANCH   3   4
HETATM    4  C   UNL     1     -43.807  61.107 -54.945  1.00  0.00     0.016 C 
HETATM    5  C   UNL     1     -42.844  61.301 -56.124  1.00  0.00     0.012 C 
HETATM    6  C   UNL     1     -43.667  62.284 -53.974  1.00  0.00     0.012 C 
ENDBRANCH   3   4
BRANCH   3   7
HETATM    7  C   UNL     1     -42.421  59.363 -53.726  1.00  0.00     0.168 A 
HETATM    8  N   UNL     1     -42.186  59.066 -52.403  1.00  0.00    -0.257 N 
HETATM    9  N   UNL     1     -40.868  58.911 -52.203  1.00  0.00    -0.003 NA
HETATM   10  N   UNL     1     -40.306  59.105 -53.382  1.00  0.00     0.018 NA
HETATM   11  N   UNL     1     -41.248  59.394 -54.325  1.00  0.00    -0.145 NA
BRANCH   8  12
HETATM   12  C   UNL     1     -43.099  58.908 -51.286  1.00  0.00     0.186 C 
BRANCH  12  13
HETATM   13  C   UNL     1     -43.679  60.223 -50.815  1.00  0.00    -0.039 A 
HETATM   14  C   UNL     1     -42.863  61.305 -50.442  1.00  0.00     0.009 A 
HETATM   15  C   UNL     1     -43.423  62.534 -50.091  1.00  0.00     0.001 A 
HETATM   16  C   UNL     1     -44.803  62.708 -50.124  1.00  0.00     0.000 A 
HETATM   17  C   UNL     1     -45.627  61.653 -50.511  1.00  0.00     0.001 A 
HETATM   18  C   UNL     1     -45.069  60.421 -50.861  1.00  0.00     0.009 A 
ENDBRANCH  12  13
ENDBRANCH   8  12
ENDBRANCH   3   7
ENDBRANCH   1   3
BRANCH   1  19
HETATM   19  C   UNL     1     -44.725  57.213 -54.616  1.00  0.00     0.278 C 
BRANCH  19  20
HETATM   20  C   UNL     1     -43.696  56.130 -54.520  1.00  0.00     0.021 A 
HETATM   21  C   UNL     1     -43.157  55.567 -55.667  1.00  0.00     0.170 A 
HETATM   22  N   UNL     1     -42.239  54.592 -55.724  1.00  0.00    -0.224 NA
HETATM   23  C   UNL     1     -41.782  54.103 -54.562  1.00  0.00     0.072 A 
HETATM   24  C   UNL     1     -42.286  54.557 -53.311  1.00  0.00    -0.004 A 
HETATM   25  C   UNL     1     -40.798  53.123 -54.575  1.00  0.00     0.072 A 
HETATM   26  C   UNL     1     -43.265  55.563 -53.318  1.00  0.00     0.027 A 
HETATM   27  C   UNL     1     -41.808  54.017 -52.104  1.00  0.00     0.053 A 
HETATM   28  C   UNL     1     -40.829  53.052 -52.174  1.00  0.00     0.106 A 
HETATM   29  C   UNL     1     -40.337  52.618 -53.378  1.00  0.00     0.107 A 
HETATM   30  O   UNL     1     -40.245  52.434 -51.116  1.00  0.00    -0.323 OA
HETATM   31  O   UNL     1     -39.375  51.669 -53.231  1.00  0.00    -0.323 OA
HETATM   32  C   UNL     1     -39.309  51.564 -51.793  1.00  0.00     0.352 A 
BRANCH  21  33
HETATM   33  O   UNL     1     -43.547  55.982 -56.897  1.00  0.00    -0.344 OA
HETATM   34  H   UNL     1     -44.192  56.672 -56.637  1.00  0.00     0.219 HD
ENDBRANCH  21  33
ENDBRANCH  19  20
ENDBRANCH   1  19
BRANCH   1  35
HETATM   35  C   UNL     1     -45.495  59.099 -56.133  1.00  0.00     0.238 C 
BRANCH  35  36
HETATM   36  C   UNL     1     -45.186  58.821 -57.606  1.00  0.00     0.054 C 
BRANCH  36  37
HETATM   37  C   UNL     1     -46.295  57.995 -58.243  1.00  0.00     0.165 C 
BRANCH  37  38
HETATM   38  O   UNL     1     -45.733  56.774 -58.696  1.00  0.00    -0.401 OA
HETATM   39  H   UNL     1     -45.507  56.890 -59.640  1.00  0.00     0.209 HD
ENDBRANCH  37  38
ENDBRANCH  36  37
ENDBRANCH  35  36
ENDBRANCH   1  35
TORSDOF 12
ENDMDL
MODEL 10
REMARK VINA RESULT:      -7.8      3.217      4.945
REMARK  12 active torsions:
REMARK  status: ('A' for Active; 'I' for Inactive)
REMARK    1  A    between atoms: C_2  and  C_3 
REMARK    2  A    between atoms: C_3  and  N_4 
REMARK    3  A    between atoms: C_3  and  C_25 
REMARK    4  A    between atoms: N_4  and  C_6 
REMARK    5  A    between atoms: N_4  and  C_21 
REMARK    6  A    between atoms: C_6  and  C_7 
REMARK    7  A    between atoms: C_8  and  O_9 
REMARK    8  A    between atoms: C_21  and  C_22 
REMARK    9  A    between atoms: C_22  and  C_23 
REMARK   10  A    between atoms: C_23  and  O_24 
REMARK   11  A    between atoms: N_26  and  C_27 
REMARK   12  A    between atoms: C_27  and  C_28 
ROOT
HETATM    1  N   UNL     1     -44.017  60.440 -53.719  1.00  0.00    -0.055 N 
HETATM    2  H   UNL     1     -43.444  61.121 -53.212  1.00  0.00     0.281 HD
ENDROOT
BRANCH   1   3
HETATM    3  C   UNL     1     -43.418  59.066 -53.349  1.00  0.00     0.263 C 
BRANCH   3   4
HETATM    4  C   UNL     1     -44.480  57.936 -53.152  1.00  0.00     0.016 C 
HETATM    5  C   UNL     1     -44.443  57.314 -51.751  1.00  0.00     0.012 C 
HETATM    6  C   UNL     1     -44.521  56.822 -54.203  1.00  0.00     0.012 C 
ENDBRANCH   3   4
BRANCH   3   7
HETATM    7  C   UNL     1     -42.363  59.043 -52.290  1.00  0.00     0.168 A 
HETATM    8  N   UNL     1     -41.139  58.419 -52.378  1.00  0.00    -0.257 N 
HETATM    9  N   UNL     1     -40.480  58.555 -51.217  1.00  0.00    -0.003 NA
HETATM   10  N   UNL     1     -41.282  59.254 -50.434  1.00  0.00     0.018 NA
HETATM   11  N   UNL     1     -42.448  59.551 -51.078  1.00  0.00    -0.145 NA
BRANCH   8  12
HETATM   12  C   UNL     1     -40.516  57.694 -53.470  1.00  0.00     0.186 C 
BRANCH  12  13
HETATM   13  C   UNL     1     -40.934  56.241 -53.521  1.00  0.00    -0.039 A 
HETATM   14  C   UNL     1     -41.367  55.551 -52.375  1.00  0.00     0.009 A 
HETATM   15  C   UNL     1     -41.825  54.236 -52.465  1.00  0.00     0.001 A 
HETATM   16  C   UNL     1     -41.877  53.597 -53.700  1.00  0.00     0.000 A 
HETATM   17  C   UNL     1     -41.472  54.273 -54.849  1.00  0.00     0.001 A 
HETATM   18  C   UNL     1     -41.010  55.588 -54.762  1.00  0.00     0.009 A 
ENDBRANCH  12  13
ENDBRANCH   8  12
ENDBRANCH   3   7
ENDBRANCH   1   3
BRANCH   1  19
HETATM   19  C   UNL     1     -43.874  60.955 -55.160  1.00  0.00     0.278 C 
BRANCH  19  20
HETATM   20  C   UNL     1     -43.718  60.007 -56.307  1.00  0.00     0.021 A 
HETATM   21  C   UNL     1     -42.490  59.858 -56.934  1.00  0.00     0.170 A 
HETATM   22  N   UNL     1     -42.213  59.055 -57.971  1.00  0.00    -0.224 NA
HETATM   23  C   UNL     1     -43.214  58.308 -58.459  1.00  0.00     0.072 A 
HETATM   24  C   UNL     1     -44.536  58.398 -57.940  1.00  0.00    -0.004 A 
HETATM   25  C   UNL     1     -42.960  57.428 -59.505  1.00  0.00     0.072 A 
HETATM   26  C   UNL     1     -44.768  59.278 -56.870  1.00  0.00     0.027 A 
HETATM   27  C   UNL     1     -45.575  57.622 -58.480  1.00  0.00     0.053 A 
HETATM   28  C   UNL     1     -45.269  56.763 -59.511  1.00  0.00     0.106 A 
HETATM   29  C   UNL     1     -43.994  56.668 -60.008  1.00  0.00     0.107 A 
HETATM   30  O   UNL     1     -46.139  55.932 -60.139  1.00  0.00    -0.323 OA
HETATM   31  O   UNL     1     -43.900  55.761 -61.016  1.00  0.00    -0.323 OA
HETATM   32  C   UNL     1     -45.260  55.285 -61.088  1.00  0.00     0.352 A 
BRANCH  21  33
HETATM   33  O   UNL     1     -41.408  60.566 -56.526  1.00  0.00    -0.344 OA
HETATM   34  H   UNL     1     -41.844  61.416 -56.311  1.00  0.00     0.219 HD
ENDBRANCH  21  33
ENDBRANCH  19  20
ENDBRANCH   1  19
BRANCH   1  35
HETATM   35  C   UNL     1     -45.417  60.667 -53.162  1.00  0.00     0.238 C 
BRANCH  35  36
HETATM   36  C   UNL     1     -45.518  62.022 -52.459  1.00  0.00     0.054 C 
BRANCH  36  37
HETATM   37  C   UNL     1     -45.650  61.840 -50.953  1.00  0.00     0.165 C 
BRANCH  37  38
HETATM   38  O   UNL     1     -45.162  60.550 -50.619  1.00  0.00    -0.401 OA
HETATM   39  H   UNL     1     -44.798  60.156 -51.436  1.00  0.00     0.209 HD
ENDBRANCH  37  38
ENDBRANCH  36  37
ENDBRANCH  35  36
ENDBRANCH   1  35
TORSDOF 12
ENDMDL
