MODEL 1
REMARK VINA RESULT:      -8.9      0.000      0.000
REMARK  4 active torsions:
REMARK  status: ('A' for Active; 'I' for Inactive)
REMARK    1  A    between atoms: C_7  and  C_8 
REMARK    2  A    between atoms: N_9  and  N_10 
REMARK       I    between atoms: N_10  and  C_11 
REMARK    3  A    between atoms: C_11  and  C_12 
REMARK    4  A    between atoms: C_16  and  C_17 
ROOT
HETATM    1  N   UNL     1     -42.176  55.842 -54.776  1.00  0.00    -0.242 N 
HETATM    2  C   UNL     1     -42.808  55.475 -55.955  1.00  0.00     0.289 C 
HETATM    3  O   UNL     1     -43.242  54.349 -56.187  1.00  0.00    -0.264 OA
HETATM    4  H   UNL     1     -41.845  56.787 -54.644  1.00  0.00     0.192 HD
ENDROOT
BRANCH   1   5
HETATM    5  N   UNL     1     -41.987  54.921 -53.785  1.00  0.00    -0.183 NA
HETATM    6  C   UNL     1     -40.770  54.522 -53.606  1.00  0.00     0.153 C 
BRANCH   6   7
HETATM    7  C   UNL     1     -40.458  53.539 -52.585  1.00  0.00     0.018 A 
HETATM    8  C   UNL     1     -40.406  53.746 -51.211  1.00  0.00     0.018 A 
HETATM    9  C   UNL     1     -40.640  54.968 -50.394  1.00  0.00     0.069 C 
HETATM   10  N   UNL     1     -40.077  52.551 -50.621  1.00  0.00    -0.358 N 
HETATM   11  H   UNL     1     -39.970  52.407 -49.626  1.00  0.00     0.166 HD
HETATM   12  C   UNL     1     -39.912  51.570 -51.569  1.00  0.00     0.043 A 
HETATM   13  C   UNL     1     -40.143  52.158 -52.812  1.00  0.00     0.004 A 
HETATM   14  C   UNL     1     -39.579  50.220 -51.415  1.00  0.00     0.030 A 
HETATM   15  C   UNL     1     -40.033  51.347 -53.963  1.00  0.00     0.014 A 
HETATM   16  C   UNL     1     -39.699  49.994 -53.828  1.00  0.00     0.001 A 
HETATM   17  C   UNL     1     -39.476  49.440 -52.570  1.00  0.00     0.002 A 
ENDBRANCH   6   7
ENDBRANCH   1   5
BRANCH   2  18
HETATM   18  C   UNL     1     -42.929  56.532 -56.929  1.00  0.00     0.121 A 
HETATM   19  N   UNL     1     -44.107  56.757 -57.581  1.00  0.00    -0.272 N 
HETATM   20  H   UNL     1     -44.975  56.240 -57.462  1.00  0.00     0.189 HD
HETATM   21  N   UNL     1     -44.066  57.769 -58.460  1.00  0.00    -0.174 NA
HETATM   22  C   UNL     1     -42.811  58.236 -58.389  1.00  0.00     0.089 A 
HETATM   23  C   UNL     1     -42.064  57.483 -57.434  1.00  0.00     0.071 A 
BRANCH  22  24
HETATM   24  C   UNL     1     -42.362  59.362 -59.221  1.00  0.00    -0.006 A 
HETATM   25  C   UNL     1     -42.522  59.319 -60.617  1.00  0.00     0.015 A 
HETATM   26  C   UNL     1     -42.099  60.380 -61.424  1.00  0.00     0.024 A 
HETATM   27  C   UNL     1     -41.511  61.499 -60.842  1.00  0.00     0.034 A 
HETATM   28 CL   UNL     1     -40.988  62.806 -61.829  1.00  0.00    -0.084 Cl
HETATM   29  C   UNL     1     -41.343  61.563 -59.460  1.00  0.00     0.024 A 
HETATM   30  C   UNL     1     -41.768  60.500 -58.654  1.00  0.00     0.015 A 
ENDBRANCH  22  24
ENDBRANCH   2  18
TORSDOF 4
ENDMDL
MODEL 2
REMARK VINA RESULT:      -8.7      3.898      4.445
REMARK  4 active torsions:
REMARK  status: ('A' for Active; 'I' for Inactive)
REMARK    1  A    between atoms: C_7  and  C_8 
REMARK    2  A    between atoms: N_9  and  N_10 
REMARK       I    between atoms: N_10  and  C_11 
REMARK    3  A    between atoms: C_11  and  C_12 
REMARK    4  A    between atoms: C_16  and  C_17 
ROOT
HETATM    1  N   UNL     1     -43.322  55.058 -56.943  1.00  0.00    -0.242 N 
HETATM    2  C   UNL     1     -43.323  56.215 -57.708  1.00  0.00     0.289 C 
HETATM    3  O   UNL     1     -42.503  57.123 -57.591  1.00  0.00    -0.264 OA
HETATM    4  H   UNL     1     -44.022  54.345 -57.091  1.00  0.00     0.192 HD
ENDROOT
BRANCH   1   5
HETATM    5  N   UNL     1     -42.377  54.879 -55.974  1.00  0.00    -0.183 NA
HETATM    6  C   UNL     1     -42.737  54.169 -54.954  1.00  0.00     0.153 C 
BRANCH   6   7
HETATM    7  C   UNL     1     -41.812  53.923 -53.863  1.00  0.00     0.018 A 
HETATM    8  C   UNL     1     -41.521  54.774 -52.804  1.00  0.00     0.018 A 
HETATM    9  C   UNL     1     -42.031  56.131 -52.468  1.00  0.00     0.069 C 
HETATM   10  N   UNL     1     -40.598  54.147 -52.005  1.00  0.00    -0.358 N 
HETATM   11  H   UNL     1     -40.205  54.536 -51.159  1.00  0.00     0.166 HD
HETATM   12  C   UNL     1     -40.279  52.910 -52.510  1.00  0.00     0.043 A 
HETATM   13  C   UNL     1     -41.023  52.739 -53.677  1.00  0.00     0.004 A 
HETATM   14  C   UNL     1     -39.393  51.942 -52.023  1.00  0.00     0.030 A 
HETATM   15  C   UNL     1     -40.870  51.531 -54.394  1.00  0.00     0.014 A 
HETATM   16  C   UNL     1     -39.988  50.552 -53.921  1.00  0.00     0.001 A 
HETATM   17  C   UNL     1     -39.261  50.756 -52.751  1.00  0.00     0.002 A 
ENDBRANCH   6   7
ENDBRANCH   1   5
BRANCH   2  18
HETATM   18  C   UNL     1     -44.383  56.293 -58.683  1.00  0.00     0.121 A 
HETATM   19  N   UNL     1     -44.706  55.216 -59.459  1.00  0.00    -0.272 N 
HETATM   20  H   UNL     1     -44.266  54.299 -59.437  1.00  0.00     0.189 HD
HETATM   21  N   UNL     1     -45.707  55.439 -60.322  1.00  0.00    -0.174 NA
HETATM   22  C   UNL     1     -46.064  56.715 -60.112  1.00  0.00     0.089 A 
HETATM   23  C   UNL     1     -45.254  57.286 -59.086  1.00  0.00     0.071 A 
BRANCH  22  24
HETATM   24  C   UNL     1     -47.145  57.347 -60.884  1.00  0.00    -0.006 A 
HETATM   25  C   UNL     1     -47.391  58.725 -60.761  1.00  0.00     0.015 A 
HETATM   26  C   UNL     1     -48.416  59.342 -61.485  1.00  0.00     0.024 A 
HETATM   27  C   UNL     1     -49.208  58.585 -62.342  1.00  0.00     0.034 A 
HETATM   28 CL   UNL     1     -50.471  59.338 -63.234  1.00  0.00    -0.084 Cl
HETATM   29  C   UNL     1     -48.982  57.218 -62.479  1.00  0.00     0.024 A 
HETATM   30  C   UNL     1     -47.955  56.601 -61.754  1.00  0.00     0.015 A 
ENDBRANCH  22  24
ENDBRANCH   2  18
TORSDOF 4
ENDMDL
MODEL 3
REMARK VINA RESULT:      -8.5      3.094      4.362
REMARK  4 active torsions:
REMARK  status: ('A' for Active; 'I' for Inactive)
REMARK    1  A    between atoms: C_7  and  C_8 
REMARK    2  A    between atoms: N_9  and  N_10 
REMARK       I    between atoms: N_10  and  C_11 
REMARK    3  A    between atoms: C_11  and  C_12 
REMARK    4  A    between atoms: C_16  and  C_17 
ROOT
HETATM    1  N   UNL     1     -41.716  55.220 -56.046  1.00  0.00    -0.242 N 
HETATM    2  C   UNL     1     -42.175  56.527 -56.121  1.00  0.00     0.289 C 
HETATM    3  O   UNL     1     -41.984  57.378 -55.257  1.00  0.00    -0.264 OA
HETATM    4  H   UNL     1     -41.903  54.567 -56.794  1.00  0.00     0.192 HD
ENDROOT
BRANCH   1   5
HETATM    5  N   UNL     1     -41.014  54.803 -54.951  1.00  0.00    -0.183 NA
HETATM    6  C   UNL     1     -41.622  53.969 -54.172  1.00  0.00     0.153 C 
BRANCH   6   7
HETATM    7  C   UNL     1     -40.970  53.467 -52.975  1.00  0.00     0.018 A 
HETATM    8  C   UNL     1     -40.160  52.344 -52.872  1.00  0.00     0.018 A 
HETATM    9  C   UNL     1     -39.724  51.351 -53.892  1.00  0.00     0.069 C 
HETATM   10  N   UNL     1     -39.755  52.239 -51.565  1.00  0.00    -0.358 N 
HETATM   11  H   UNL     1     -39.155  51.512 -51.200  1.00  0.00     0.166 HD
HETATM   12  C   UNL     1     -40.278  53.262 -50.811  1.00  0.00     0.043 A 
HETATM   13  C   UNL     1     -41.046  54.050 -51.666  1.00  0.00     0.004 A 
HETATM   14  C   UNL     1     -40.126  53.541 -49.448  1.00  0.00     0.030 A 
HETATM   15  C   UNL     1     -41.698  55.180 -51.125  1.00  0.00     0.014 A 
HETATM   16  C   UNL     1     -41.559  55.474 -49.763  1.00  0.00     0.001 A 
HETATM   17  C   UNL     1     -40.782  54.665 -48.939  1.00  0.00     0.002 A 
ENDBRANCH   6   7
ENDBRANCH   1   5
BRANCH   2  18
HETATM   18  C   UNL     1     -42.919  56.837 -57.318  1.00  0.00     0.121 A 
HETATM   19  N   UNL     1     -42.284  57.257 -58.451  1.00  0.00    -0.272 N 
HETATM   20  H   UNL     1     -41.283  57.388 -58.573  1.00  0.00     0.189 HD
HETATM   21  N   UNL     1     -43.105  57.512 -59.480  1.00  0.00    -0.174 NA
HETATM   22  C   UNL     1     -44.335  57.251 -59.012  1.00  0.00     0.089 A 
HETATM   23  C   UNL     1     -44.258  56.822 -57.653  1.00  0.00     0.071 A 
BRANCH  22  24
HETATM   24  C   UNL     1     -45.529  57.419 -59.853  1.00  0.00    -0.006 A 
HETATM   25  C   UNL     1     -45.947  58.704 -60.242  1.00  0.00     0.015 A 
HETATM   26  C   UNL     1     -47.081  58.883 -61.040  1.00  0.00     0.024 A 
HETATM   27  C   UNL     1     -47.812  57.776 -61.459  1.00  0.00     0.034 A 
HETATM   28 CL   UNL     1     -49.208  57.990 -62.440  1.00  0.00    -0.084 Cl
HETATM   29  C   UNL     1     -47.416  56.494 -61.087  1.00  0.00     0.024 A 
HETATM   30  C   UNL     1     -46.280  56.316 -60.289  1.00  0.00     0.015 A 
ENDBRANCH  22  24
ENDBRANCH   2  18
TORSDOF 4
ENDMDL
MODEL 4
REMARK VINA RESULT:      -8.4      7.007     10.836
REMARK  4 active torsions:
REMARK  status: ('A' for Active; 'I' for Inactive)
REMARK    1  A    between atoms: C_7  and  C_8 
REMARK    2  A    between atoms: N_9  and  N_10 
REMARK       I    between atoms: N_10  and  C_11 
REMARK    3  A    between atoms: C_11  and  C_12 
REMARK    4  A    between atoms: C_16  and  C_17 
ROOT
HETATM    1  N   UNL     1     -43.493  58.457 -50.980  1.00  0.00    -0.242 N 
HETATM    2  C   UNL     1     -42.118  58.282 -50.948  1.00  0.00     0.289 C 
HETATM    3  O   UNL     1     -41.305  59.197 -50.840  1.00  0.00    -0.264 OA
HETATM    4  H   UNL     1     -44.110  57.662 -51.066  1.00  0.00     0.192 HD
ENDROOT
BRANCH   1   5
HETATM    5  N   UNL     1     -44.026  59.713 -50.905  1.00  0.00    -0.183 NA
HETATM    6  C   UNL     1     -45.131  59.823 -50.244  1.00  0.00     0.153 C 
BRANCH   6   7
HETATM    7  C   UNL     1     -45.787  61.111 -50.109  1.00  0.00     0.018 A 
HETATM    8  C   UNL     1     -46.550  61.766 -51.067  1.00  0.00     0.018 A 
HETATM    9  C   UNL     1     -46.921  61.381 -52.457  1.00  0.00     0.069 C 
HETATM   10  N   UNL     1     -46.978  62.950 -50.523  1.00  0.00    -0.358 N 
HETATM   11  H   UNL     1     -47.555  63.632 -50.997  1.00  0.00     0.166 HD
HETATM   12  C   UNL     1     -46.517  63.088 -49.236  1.00  0.00     0.043 A 
HETATM   13  C   UNL     1     -45.765  61.951 -48.946  1.00  0.00     0.004 A 
HETATM   14  C   UNL     1     -46.710  64.128 -48.319  1.00  0.00     0.030 A 
HETATM   15  C   UNL     1     -45.173  61.852 -47.667  1.00  0.00     0.014 A 
HETATM   16  C   UNL     1     -45.355  62.883 -46.738  1.00  0.00     0.001 A 
HETATM   17  C   UNL     1     -46.114  64.004 -47.061  1.00  0.00     0.002 A 
ENDBRANCH   6   7
ENDBRANCH   1   5
BRANCH   2  18
HETATM   18  C   UNL     1     -41.682  56.911 -51.054  1.00  0.00     0.121 A 
HETATM   19  N   UNL     1     -41.448  56.159 -49.939  1.00  0.00    -0.272 N 
HETATM   20  H   UNL     1     -41.550  56.459 -48.972  1.00  0.00     0.189 HD
HETATM   21  N   UNL     1     -41.044  54.906 -50.194  1.00  0.00    -0.174 NA
HETATM   22  C   UNL     1     -41.007  54.822 -51.532  1.00  0.00     0.089 A 
HETATM   23  C   UNL     1     -41.403  56.065 -52.110  1.00  0.00     0.071 A 
BRANCH  22  24
HETATM   24  C   UNL     1     -40.598  53.585 -52.213  1.00  0.00    -0.006 A 
HETATM   25  C   UNL     1     -40.950  53.366 -53.557  1.00  0.00     0.015 A 
HETATM   26  C   UNL     1     -40.572  52.194 -54.219  1.00  0.00     0.024 A 
HETATM   27  C   UNL     1     -39.835  51.226 -53.544  1.00  0.00     0.034 A 
HETATM   28 CL   UNL     1     -39.368  49.783 -54.353  1.00  0.00    -0.084 Cl
HETATM   29  C   UNL     1     -39.475  51.422 -52.213  1.00  0.00     0.024 A 
HETATM   30  C   UNL     1     -39.853  52.596 -51.551  1.00  0.00     0.015 A 
ENDBRANCH  22  24
ENDBRANCH   2  18
TORSDOF 4
ENDMDL
MODEL 5
REMARK VINA RESULT:      -8.3      1.441      2.891
REMARK  4 active torsions:
REMARK  status: ('A' for Active; 'I' for Inactive)
REMARK    1  A    between atoms: C_7  and  C_8 
REMARK    2  A    between atoms: N_9  and  N_10 
REMARK       I    between atoms: N_10  and  C_11 
REMARK    3  A    between atoms: C_11  and  C_12 
REMARK    4  A    between atoms: C_16  and  C_17 
ROOT
HETATM    1  N   UNL     1     -42.299  54.677 -55.773  1.00  0.00    -0.242 N 
HETATM    2  C   UNL     1     -42.939  55.908 -55.766  1.00  0.00     0.289 C 
HETATM    3  O   UNL     1     -43.327  56.481 -54.751  1.00  0.00    -0.264 OA
HETATM    4  H   UNL     1     -41.999  54.260 -56.643  1.00  0.00     0.192 HD
ENDROOT
BRANCH   1   5
HETATM    5  N   UNL     1     -42.079  54.013 -54.600  1.00  0.00    -0.183 NA
HETATM    6  C   UNL     1     -40.930  54.213 -54.041  1.00  0.00     0.153 C 
BRANCH   6   7
HETATM    7  C   UNL     1     -40.589  53.551 -52.796  1.00  0.00     0.018 A 
HETATM    8  C   UNL     1     -40.030  52.288 -52.644  1.00  0.00     0.018 A 
HETATM    9  C   UNL     1     -39.625  51.268 -53.651  1.00  0.00     0.069 C 
HETATM   10  N   UNL     1     -39.873  52.058 -51.301  1.00  0.00    -0.358 N 
HETATM   11  H   UNL     1     -39.487  51.215 -50.898  1.00  0.00     0.166 HD
HETATM   12  C   UNL     1     -40.314  53.134 -50.569  1.00  0.00     0.043 A 
HETATM   13  C   UNL     1     -40.770  54.088 -51.477  1.00  0.00     0.004 A 
HETATM   14  C   UNL     1     -40.339  53.328 -49.183  1.00  0.00     0.030 A 
HETATM   15  C   UNL     1     -41.281  55.303 -50.968  1.00  0.00     0.014 A 
HETATM   16  C   UNL     1     -41.316  55.513 -49.585  1.00  0.00     0.001 A 
HETATM   17  C   UNL     1     -40.850  54.539 -48.706  1.00  0.00     0.002 A 
ENDBRANCH   6   7
ENDBRANCH   1   5
BRANCH   2  18
HETATM   18  C   UNL     1     -43.128  56.497 -57.070  1.00  0.00     0.121 A 
HETATM   19  N   UNL     1     -43.680  55.779 -58.092  1.00  0.00    -0.272 N 
HETATM   20  H   UNL     1     -43.999  54.814 -58.052  1.00  0.00     0.189 HD
HETATM   21  N   UNL     1     -43.789  56.455 -59.244  1.00  0.00    -0.174 NA
HETATM   22  C   UNL     1     -43.289  57.672 -58.978  1.00  0.00     0.089 A 
HETATM   23  C   UNL     1     -42.864  57.736 -57.617  1.00  0.00     0.071 A 
BRANCH  22  24
HETATM   24  C   UNL     1     -43.226  58.719 -60.008  1.00  0.00    -0.006 A 
HETATM   25  C   UNL     1     -44.409  59.292 -60.507  1.00  0.00     0.015 A 
HETATM   26  C   UNL     1     -44.368  60.287 -61.489  1.00  0.00     0.024 A 
HETATM   27  C   UNL     1     -43.142  60.720 -61.983  1.00  0.00     0.034 A 
HETATM   28 CL   UNL     1     -43.086  61.943 -63.191  1.00  0.00    -0.084 Cl
HETATM   29  C   UNL     1     -41.958  60.167 -61.503  1.00  0.00     0.024 A 
HETATM   30  C   UNL     1     -42.000  59.171 -60.519  1.00  0.00     0.015 A 
ENDBRANCH  22  24
ENDBRANCH   2  18
TORSDOF 4
ENDMDL
MODEL 6
REMARK VINA RESULT:      -8.3      7.016     10.576
REMARK  4 active torsions:
REMARK  status: ('A' for Active; 'I' for Inactive)
REMARK    1  A    between atoms: C_7  and  C_8 
REMARK    2  A    between atoms: N_9  and  N_10 
REMARK       I    between atoms: N_10  and  C_11 
REMARK    3  A    between atoms: C_11  and  C_12 
REMARK    4  A    between atoms: C_16  and  C_17 
ROOT
HETATM    1  N   UNL     1     -43.480  58.940 -51.055  1.00  0.00    -0.242 N 
HETATM    2  C   UNL     1     -43.939  57.638 -51.183  1.00  0.00     0.289 C 
HETATM    3  O   UNL     1     -45.047  57.255 -50.818  1.00  0.00    -0.264 OA
HETATM    4  H   UNL     1     -42.557  59.194 -51.379  1.00  0.00     0.192 HD
ENDROOT
BRANCH   1   5
HETATM    5  N   UNL     1     -44.272  59.892 -50.477  1.00  0.00    -0.183 NA
HETATM    6  C   UNL     1     -43.678  60.983 -50.118  1.00  0.00     0.153 C 
BRANCH   6   7
HETATM    7  C   UNL     1     -44.424  62.056 -49.486  1.00  0.00     0.018 A 
HETATM    8  C   UNL     1     -44.865  63.232 -50.081  1.00  0.00     0.018 A 
HETATM    9  C   UNL     1     -44.723  63.740 -51.473  1.00  0.00     0.069 C 
HETATM   10  N   UNL     1     -45.527  63.961 -49.126  1.00  0.00    -0.358 N 
HETATM   11  H   UNL     1     -45.956  64.864 -49.279  1.00  0.00     0.166 HD
HETATM   12  C   UNL     1     -45.533  63.295 -47.924  1.00  0.00     0.043 A 
HETATM   13  C   UNL     1     -44.847  62.097 -48.116  1.00  0.00     0.004 A 
HETATM   14  C   UNL     1     -46.089  63.666 -46.694  1.00  0.00     0.030 A 
HETATM   15  C   UNL     1     -44.712  61.222 -47.015  1.00  0.00     0.014 A 
HETATM   16  C   UNL     1     -45.261  61.577 -45.777  1.00  0.00     0.001 A 
HETATM   17  C   UNL     1     -45.941  62.782 -45.622  1.00  0.00     0.002 A 
ENDBRANCH   6   7
ENDBRANCH   1   5
BRANCH   2  18
HETATM   18  C   UNL     1     -43.001  56.725 -51.791  1.00  0.00     0.121 A 
HETATM   19  N   UNL     1     -42.002  57.181 -52.603  1.00  0.00    -0.272 N 
HETATM   20  H   UNL     1     -41.818  58.149 -52.853  1.00  0.00     0.189 HD
HETATM   21  N   UNL     1     -41.214  56.217 -53.099  1.00  0.00    -0.174 NA
HETATM   22  C   UNL     1     -41.707  55.075 -52.597  1.00  0.00     0.089 A 
HETATM   23  C   UNL     1     -42.833  55.355 -51.767  1.00  0.00     0.071 A 
BRANCH  22  24
HETATM   24  C   UNL     1     -41.107  53.772 -52.919  1.00  0.00    -0.006 A 
HETATM   25  C   UNL     1     -40.325  53.097 -51.966  1.00  0.00     0.015 A 
HETATM   26  C   UNL     1     -39.745  51.858 -52.255  1.00  0.00     0.024 A 
HETATM   27  C   UNL     1     -39.941  51.280 -53.505  1.00  0.00     0.034 A 
HETATM   28 CL   UNL     1     -39.229  49.757 -53.867  1.00  0.00    -0.084 Cl
HETATM   29  C   UNL     1     -40.713  51.930 -54.465  1.00  0.00     0.024 A 
HETATM   30  C   UNL     1     -41.294  53.170 -54.173  1.00  0.00     0.015 A 
ENDBRANCH  22  24
ENDBRANCH   2  18
TORSDOF 4
ENDMDL
MODEL 7
REMARK VINA RESULT:      -8.3      1.871      2.164
REMARK  4 active torsions:
REMARK  status: ('A' for Active; 'I' for Inactive)
REMARK    1  A    between atoms: C_7  and  C_8 
REMARK    2  A    between atoms: N_9  and  N_10 
REMARK       I    between atoms: N_10  and  C_11 
REMARK    3  A    between atoms: C_11  and  C_12 
REMARK    4  A    between atoms: C_16  and  C_17 
ROOT
HETATM    1  N   UNL     1     -41.964  55.063 -56.128  1.00  0.00    -0.242 N 
HETATM    2  C   UNL     1     -42.957  56.030 -56.089  1.00  0.00     0.289 C 
HETATM    3  O   UNL     1     -43.732  56.188 -55.149  1.00  0.00    -0.264 OA
HETATM    4  H   UNL     1     -41.354  54.986 -56.930  1.00  0.00     0.192 HD
ENDROOT
BRANCH   1   5
HETATM    5  N   UNL     1     -41.809  54.197 -55.083  1.00  0.00    -0.183 NA
HETATM    6  C   UNL     1     -40.765  54.382 -54.342  1.00  0.00     0.153 C 
BRANCH   6   7
HETATM    7  C   UNL     1     -40.500  53.514 -53.210  1.00  0.00     0.018 A 
HETATM    8  C   UNL     1     -40.548  53.855 -51.864  1.00  0.00     0.018 A 
HETATM    9  C   UNL     1     -40.868  55.143 -51.189  1.00  0.00     0.069 C 
HETATM   10  N   UNL     1     -40.231  52.735 -51.137  1.00  0.00    -0.358 N 
HETATM   11  H   UNL     1     -40.190  52.692 -50.127  1.00  0.00     0.166 HD
HETATM   12  C   UNL     1     -39.978  51.672 -51.968  1.00  0.00     0.043 A 
HETATM   13  C   UNL     1     -40.137  52.127 -53.276  1.00  0.00     0.004 A 
HETATM   14  C   UNL     1     -39.622  50.354 -51.658  1.00  0.00     0.030 A 
HETATM   15  C   UNL     1     -39.927  51.211 -54.331  1.00  0.00     0.014 A 
HETATM   16  C   UNL     1     -39.570  49.889 -54.039  1.00  0.00     0.001 A 
HETATM   17  C   UNL     1     -39.421  49.468 -52.721  1.00  0.00     0.002 A 
ENDBRANCH   6   7
ENDBRANCH   1   5
BRANCH   2  18
HETATM   18  C   UNL     1     -43.030  56.868 -57.260  1.00  0.00     0.121 A 
HETATM   19  N   UNL     1     -41.908  57.175 -57.976  1.00  0.00    -0.272 N 
HETATM   20  H   UNL     1     -40.959  56.868 -57.777  1.00  0.00     0.189 HD
HETATM   21  N   UNL     1     -42.130  57.966 -59.035  1.00  0.00    -0.174 NA
HETATM   22  C   UNL     1     -43.452  58.194 -59.024  1.00  0.00     0.089 A 
HETATM   23  C   UNL     1     -44.053  57.518 -57.921  1.00  0.00     0.071 A 
BRANCH  22  24
HETATM   24  C   UNL     1     -44.094  59.039 -60.042  1.00  0.00    -0.006 A 
HETATM   25  C   UNL     1     -43.311  59.776 -60.947  1.00  0.00     0.015 A 
HETATM   26  C   UNL     1     -43.905  60.586 -61.920  1.00  0.00     0.024 A 
HETATM   27  C   UNL     1     -45.291  60.669 -61.998  1.00  0.00     0.034 A 
HETATM   28 CL   UNL     1     -46.027  61.664 -63.192  1.00  0.00    -0.084 Cl
HETATM   29  C   UNL     1     -46.086  59.947 -61.112  1.00  0.00     0.024 A 
HETATM   30  C   UNL     1     -45.491  59.135 -60.139  1.00  0.00     0.015 A 
ENDBRANCH  22  24
ENDBRANCH   2  18
TORSDOF 4
ENDMDL
MODEL 8
REMARK VINA RESULT:      -8.0      4.599     10.478
REMARK  4 active torsions:
REMARK  status: ('A' for Active; 'I' for Inactive)
REMARK    1  A    between atoms: C_7  and  C_8 
REMARK    2  A    between atoms: N_9  and  N_10 
REMARK       I    between atoms: N_10  and  C_11 
REMARK    3  A    between atoms: C_11  and  C_12 
REMARK    4  A    between atoms: C_16  and  C_17 
ROOT
HETATM    1  N   UNL     1     -43.950  56.661 -57.337  1.00  0.00    -0.242 N 
HETATM    2  C   UNL     1     -42.666  57.017 -56.951  1.00  0.00     0.289 C 
HETATM    3  O   UNL     1     -41.998  57.895 -57.491  1.00  0.00    -0.264 OA
HETATM    4  H   UNL     1     -44.449  55.931 -56.849  1.00  0.00     0.192 HD
ENDROOT
BRANCH   1   5
HETATM    5  N   UNL     1     -44.546  57.291 -58.392  1.00  0.00    -0.183 NA
HETATM    6  C   UNL     1     -45.614  57.968 -58.119  1.00  0.00     0.153 C 
BRANCH   6   7
HETATM    7  C   UNL     1     -46.331  58.670 -59.168  1.00  0.00     0.018 A 
HETATM    8  C   UNL     1     -46.469  60.045 -59.312  1.00  0.00     0.018 A 
HETATM    9  C   UNL     1     -45.956  61.174 -58.488  1.00  0.00     0.069 C 
HETATM   10  N   UNL     1     -47.221  60.274 -60.437  1.00  0.00    -0.358 N 
HETATM   11  H   UNL     1     -47.479  61.188 -60.786  1.00  0.00     0.166 HD
HETATM   12  C   UNL     1     -47.578  59.089 -61.032  1.00  0.00     0.043 A 
HETATM   13  C   UNL     1     -47.036  58.063 -60.260  1.00  0.00     0.004 A 
HETATM   14  C   UNL     1     -48.334  58.856 -62.187  1.00  0.00     0.030 A 
HETATM   15  C   UNL     1     -47.266  56.730 -60.667  1.00  0.00     0.014 A 
HETATM   16  C   UNL     1     -48.021  56.478 -61.819  1.00  0.00     0.001 A 
HETATM   17  C   UNL     1     -48.546  57.528 -62.567  1.00  0.00     0.002 A 
ENDBRANCH   6   7
ENDBRANCH   1   5
BRANCH   2  18
HETATM   18  C   UNL     1     -42.141  56.264 -55.838  1.00  0.00     0.121 A 
HETATM   19  N   UNL     1     -41.944  56.853 -54.621  1.00  0.00    -0.272 N 
HETATM   20  H   UNL     1     -42.133  57.822 -54.379  1.00  0.00     0.189 HD
HETATM   21  N   UNL     1     -41.447  56.031 -53.686  1.00  0.00    -0.174 NA
HETATM   22  C   UNL     1     -41.308  54.849 -54.305  1.00  0.00     0.089 A 
HETATM   23  C   UNL     1     -41.736  54.956 -55.662  1.00  0.00     0.071 A 
BRANCH  22  24
HETATM   24  C   UNL     1     -40.776  53.672 -53.602  1.00  0.00    -0.006 A 
HETATM   25  C   UNL     1     -40.584  53.706 -52.210  1.00  0.00     0.015 A 
HETATM   26  C   UNL     1     -40.077  52.597 -51.525  1.00  0.00     0.024 A 
HETATM   27  C   UNL     1     -39.756  51.439 -52.227  1.00  0.00     0.034 A 
HETATM   28 CL   UNL     1     -39.131  50.073 -51.390  1.00  0.00    -0.084 Cl
HETATM   29  C   UNL     1     -39.940  51.383 -53.606  1.00  0.00     0.024 A 
HETATM   30  C   UNL     1     -40.448  52.494 -54.290  1.00  0.00     0.015 A 
ENDBRANCH  22  24
ENDBRANCH   2  18
TORSDOF 4
ENDMDL
MODEL 9
REMARK VINA RESULT:      -7.9      6.964     10.720
REMARK  4 active torsions:
REMARK  status: ('A' for Active; 'I' for Inactive)
REMARK    1  A    between atoms: C_7  and  C_8 
REMARK    2  A    between atoms: N_9  and  N_10 
REMARK       I    between atoms: N_10  and  C_11 
REMARK    3  A    between atoms: C_11  and  C_12 
REMARK    4  A    between atoms: C_16  and  C_17 
ROOT
HETATM    1  N   UNL     1     -43.355  58.926 -50.611  1.00  0.00    -0.242 N 
HETATM    2  C   UNL     1     -42.484  58.584 -51.635  1.00  0.00     0.289 C 
HETATM    3  O   UNL     1     -42.127  59.352 -52.525  1.00  0.00    -0.264 OA
HETATM    4  H   UNL     1     -43.607  58.249 -49.905  1.00  0.00     0.192 HD
ENDROOT
BRANCH   1   5
HETATM    5  N   UNL     1     -43.887  60.183 -50.555  1.00  0.00    -0.183 NA
HETATM    6  C   UNL     1     -45.127  60.259 -50.193  1.00  0.00     0.153 C 
BRANCH   6   7
HETATM    7  C   UNL     1     -45.793  61.545 -50.109  1.00  0.00     0.018 A 
HETATM    8  C   UNL     1     -45.659  62.493 -49.102  1.00  0.00     0.018 A 
HETATM    9  C   UNL     1     -44.837  62.496 -47.861  1.00  0.00     0.069 C 
HETATM   10  N   UNL     1     -46.465  63.557 -49.420  1.00  0.00    -0.358 N 
HETATM   11  H   UNL     1     -46.565  64.395 -48.862  1.00  0.00     0.166 HD
HETATM   12  C   UNL     1     -47.123  63.332 -50.604  1.00  0.00     0.043 A 
HETATM   13  C   UNL     1     -46.724  62.077 -51.063  1.00  0.00     0.004 A 
HETATM   14  C   UNL     1     -48.032  64.141 -51.295  1.00  0.00     0.030 A 
HETATM   15  C   UNL     1     -47.267  61.608 -52.279  1.00  0.00     0.014 A 
HETATM   16  C   UNL     1     -48.179  62.404 -52.983  1.00  0.00     0.001 A 
HETATM   17  C   UNL     1     -48.554  63.653 -52.496  1.00  0.00     0.002 A 
ENDBRANCH   6   7
ENDBRANCH   1   5
BRANCH   2  18
HETATM   18  C   UNL     1     -42.008  57.223 -51.593  1.00  0.00     0.121 A 
HETATM   19  N   UNL     1     -41.847  56.571 -50.404  1.00  0.00    -0.272 N 
HETATM   20  H   UNL     1     -42.034  56.945 -49.477  1.00  0.00     0.189 HD
HETATM   21  N   UNL     1     -41.393  55.315 -50.522  1.00  0.00    -0.174 NA
HETATM   22  C   UNL     1     -41.246  55.125 -51.842  1.00  0.00     0.089 A 
HETATM   23  C   UNL     1     -41.624  56.304 -52.549  1.00  0.00     0.071 A 
BRANCH  22  24
HETATM   24  C   UNL     1     -40.752  53.850 -52.383  1.00  0.00    -0.006 A 
HETATM   25  C   UNL     1     -40.946  53.534 -53.739  1.00  0.00     0.015 A 
HETATM   26  C   UNL     1     -40.486  52.325 -54.270  1.00  0.00     0.024 A 
HETATM   27  C   UNL     1     -39.826  51.417 -53.450  1.00  0.00     0.034 A 
HETATM   28 CL   UNL     1     -39.259  49.928 -54.097  1.00  0.00    -0.084 Cl
HETATM   29  C   UNL     1     -39.622  51.709 -52.103  1.00  0.00     0.024 A 
HETATM   30  C   UNL     1     -40.082  52.920 -51.573  1.00  0.00     0.015 A 
ENDBRANCH  22  24
ENDBRANCH   2  18
TORSDOF 4
ENDMDL
MODEL 10
REMARK VINA RESULT:      -7.9     15.943     18.964
REMARK  4 active torsions:
REMARK  status: ('A' for Active; 'I' for Inactive)
REMARK    1  A    between atoms: C_7  and  C_8 
REMARK    2  A    between atoms: N_9  and  N_10 
REMARK       I    between atoms: N_10  and  C_11 
REMARK    3  A    between atoms: C_11  and  C_12 
REMARK    4  A    between atoms: C_16  and  C_17 
ROOT
HETATM    1  N   UNL     1     -37.677  40.154 -58.292  1.00  0.00    -0.242 N 
HETATM    2  C   UNL     1     -37.022  41.338 -57.983  1.00  0.00     0.289 C 
HETATM    3  O   UNL     1     -36.803  42.238 -58.789  1.00  0.00    -0.264 OA
HETATM    4  H   UNL     1     -37.831  39.453 -57.581  1.00  0.00     0.192 HD
ENDROOT
BRANCH   1   5
HETATM    5  N   UNL     1     -38.112  39.925 -59.566  1.00  0.00    -0.183 NA
HETATM    6  C   UNL     1     -38.235  38.684 -59.909  1.00  0.00     0.153 C 
BRANCH   6   7
HETATM    7  C   UNL     1     -38.682  38.327 -61.243  1.00  0.00     0.018 A 
HETATM    8  C   UNL     1     -37.896  38.188 -62.380  1.00  0.00     0.018 A 
HETATM    9  C   UNL     1     -36.430  38.350 -62.585  1.00  0.00     0.069 C 
HETATM   10  N   UNL     1     -38.722  37.840 -63.419  1.00  0.00    -0.358 N 
HETATM   11  H   UNL     1     -38.419  37.673 -64.370  1.00  0.00     0.166 HD
HETATM   12  C   UNL     1     -40.025  37.749 -62.994  1.00  0.00     0.043 A 
HETATM   13  C   UNL     1     -40.035  38.049 -61.633  1.00  0.00     0.004 A 
HETATM   14  C   UNL     1     -41.183  37.424 -63.711  1.00  0.00     0.030 A 
HETATM   15  C   UNL     1     -41.273  38.024 -60.953  1.00  0.00     0.014 A 
HETATM   16  C   UNL     1     -42.441  37.703 -61.654  1.00  0.00     0.001 A 
HETATM   17  C   UNL     1     -42.394  37.407 -63.014  1.00  0.00     0.002 A 
ENDBRANCH   6   7
ENDBRANCH   1   5
BRANCH   2  18
HETATM   18  C   UNL     1     -36.596  41.450 -56.610  1.00  0.00     0.121 A 
HETATM   19  N   UNL     1     -37.225  42.301 -55.746  1.00  0.00    -0.272 N 
HETATM   20  H   UNL     1     -38.012  42.908 -55.958  1.00  0.00     0.189 HD
HETATM   21  N   UNL     1     -36.716  42.301 -54.506  1.00  0.00    -0.174 NA
HETATM   22  C   UNL     1     -35.708  41.417 -54.547  1.00  0.00     0.089 A 
HETATM   23  C   UNL     1     -35.602  40.859 -55.855  1.00  0.00     0.071 A 
BRANCH  22  24
HETATM   24  C   UNL     1     -34.884  41.135 -53.361  1.00  0.00    -0.006 A 
HETATM   25  C   UNL     1     -33.780  40.271 -53.455  1.00  0.00     0.015 A 
HETATM   26  C   UNL     1     -32.987  39.990 -52.338  1.00  0.00     0.024 A 
HETATM   27  C   UNL     1     -33.291  40.572 -51.111  1.00  0.00     0.034 A 
HETATM   28 CL   UNL     1     -32.321  40.229 -49.734  1.00  0.00    -0.084 Cl
HETATM   29  C   UNL     1     -34.381  41.432 -50.995  1.00  0.00     0.024 A 
HETATM   30  C   UNL     1     -35.173  41.713 -52.115  1.00  0.00     0.015 A 
ENDBRANCH  22  24
ENDBRANCH   2  18
TORSDOF 4
ENDMDL
