MODEL 1
REMARK VINA RESULT:      -9.2      0.000      0.000
REMARK  7 active torsions:
REMARK  status: ('A' for Active; 'I' for Inactive)
REMARK    1  A    between atoms: C_2  and  N_3 
REMARK    2  A    between atoms: C_2  and  C_10 
REMARK    3  A    between atoms: N_11  and  C_12 
REMARK    4  A    between atoms: C_19  and  S_20 
REMARK    5  A    between atoms: S_20  and  C_21 
REMARK    6  A    between atoms: C_21  and  C_22 
REMARK    7  A    between atoms: C_21  and  C_28 
REMARK       I    between atoms: C_22  and  N_23 
REMARK       I    between atoms: N_23  and  C_24 
REMARK       I    between atoms: C_24  and  N_25 
ROOT
HETATM    1  C   UNL     1     -43.247  57.049 -56.118  1.00  0.00     0.166 A 
HETATM    2  N   UNL     1     -42.931  56.307 -54.980  1.00  0.00    -0.274 N 
HETATM    3  C   UNL     1     -43.673  56.907 -53.978  1.00  0.00     0.197 A 
HETATM    4  N   UNL     1     -44.329  57.938 -54.455  1.00  0.00    -0.122 NA
HETATM    5  N   UNL     1     -44.039  58.048 -55.780  1.00  0.00    -0.131 NA
ENDROOT
BRANCH   3   6
HETATM    6  S   UNL     1     -43.695  56.464 -52.308  1.00  0.00    -0.070 SA
BRANCH   6   7
HETATM    7  C   UNL     1     -41.931  56.623 -51.843  1.00  0.00     0.180 C 
BRANCH   7   8
HETATM    8  C   UNL     1     -41.633  58.046 -51.349  1.00  0.00     0.244 C 
HETATM    9  N   UNL     1     -42.752  58.812 -51.060  1.00  0.00    -0.278 N 
HETATM   10  C   UNL     1     -42.812  60.085 -50.574  1.00  0.00     0.320 C 
HETATM   11  H   UNL     1     -43.668  58.427 -51.243  1.00  0.00     0.173 HD
HETATM   12  N   UNL     1     -41.648  60.660 -50.211  1.00  0.00    -0.352 N 
HETATM   13  O   UNL     1     -43.883  60.668 -50.455  1.00  0.00    -0.247 OA
HETATM   14  H   UNL     1     -40.773  60.268 -50.543  1.00  0.00     0.160 HD
HETATM   15  H   UNL     1     -41.671  61.633 -49.937  1.00  0.00     0.160 HD
HETATM   16  O   UNL     1     -40.470  58.453 -51.268  1.00  0.00    -0.271 OA
ENDBRANCH   7   8
BRANCH   7  17
HETATM   17  C   UNL     1     -41.410  55.565 -50.872  1.00  0.00    -0.035 A 
HETATM   18  C   UNL     1     -41.447  55.691 -49.472  1.00  0.00     0.009 A 
HETATM   19  C   UNL     1     -40.920  54.692 -48.647  1.00  0.00     0.001 A 
HETATM   20  C   UNL     1     -40.338  53.557 -49.203  1.00  0.00     0.000 A 
HETATM   21  C   UNL     1     -40.284  53.415 -50.585  1.00  0.00     0.001 A 
HETATM   22  C   UNL     1     -40.817  54.406 -51.412  1.00  0.00     0.009 A 
ENDBRANCH   7  17
ENDBRANCH   6   7
ENDBRANCH   3   6
BRANCH   2  23
HETATM   23  C   UNL     1     -42.098  55.161 -54.912  1.00  0.00     0.043 A 
HETATM   24  C   UNL     1     -42.666  53.900 -54.677  1.00  0.00     0.033 A 
HETATM   25  C   UNL     1     -41.843  52.775 -54.584  1.00  0.00     0.044 A 
HETATM   26  C   UNL     1     -40.468  52.913 -54.728  1.00  0.00     0.116 A 
HETATM   27  F   UNL     1     -39.684  51.833 -54.630  1.00  0.00    -0.206 F 
HETATM   28  C   UNL     1     -39.896  54.155 -54.972  1.00  0.00     0.044 A 
HETATM   29  C   UNL     1     -40.709  55.286 -55.068  1.00  0.00     0.033 A 
ENDBRANCH   2  23
BRANCH   1  30
HETATM   30  C   UNL     1     -42.915  56.693 -57.536  1.00  0.00     0.255 C 
HETATM   31  C   UNL     1     -42.274  57.872 -58.271  1.00  0.00     0.049 C 
BRANCH  30  32
HETATM   32  N   UNL     1     -44.116  56.178 -58.365  1.00  0.00    -0.060 N 
HETATM   33  H   UNL     1     -44.732  55.708 -57.690  1.00  0.00     0.280 HD
HETATM   34  C   UNL     1     -44.916  57.317 -58.964  1.00  0.00     0.236 C 
HETATM   35  C   UNL     1     -46.217  56.775 -59.542  1.00  0.00     0.028 C 
HETATM   36  C   UNL     1     -45.967  55.670 -60.562  1.00  0.00     0.003 C 
HETATM   37  C   UNL     1     -45.080  54.572 -59.985  1.00  0.00     0.028 C 
HETATM   38  C   UNL     1     -43.781  55.143 -59.429  1.00  0.00     0.236 C 
ENDBRANCH  30  32
ENDBRANCH   1  30
TORSDOF 7
ENDMDL
MODEL 2
REMARK VINA RESULT:      -8.9      1.368      1.618
REMARK  7 active torsions:
REMARK  status: ('A' for Active; 'I' for Inactive)
REMARK    1  A    between atoms: C_2  and  N_3 
REMARK    2  A    between atoms: C_2  and  C_10 
REMARK    3  A    between atoms: N_11  and  C_12 
REMARK    4  A    between atoms: C_19  and  S_20 
REMARK    5  A    between atoms: S_20  and  C_21 
REMARK    6  A    between atoms: C_21  and  C_22 
REMARK    7  A    between atoms: C_21  and  C_28 
REMARK       I    between atoms: C_22  and  N_23 
REMARK       I    between atoms: N_23  and  C_24 
REMARK       I    between atoms: C_24  and  N_25 
ROOT
HETATM    1  C   UNL     1     -43.665  57.676 -56.368  1.00  0.00     0.166 A 
HETATM    2  N   UNL     1     -43.567  57.129 -55.089  1.00  0.00    -0.274 N 
HETATM    3  C   UNL     1     -44.491  57.847 -54.351  1.00  0.00     0.197 A 
HETATM    4  N   UNL     1     -45.052  58.768 -55.098  1.00  0.00    -0.122 NA
HETATM    5  N   UNL     1     -44.514  58.685 -56.346  1.00  0.00    -0.131 NA
ENDROOT
BRANCH   3   6
HETATM    6  S   UNL     1     -44.829  57.663 -52.666  1.00  0.00    -0.070 SA
BRANCH   6   7
HETATM    7  C   UNL     1     -43.200  58.012 -51.906  1.00  0.00     0.180 C 
BRANCH   7   8
HETATM    8  C   UNL     1     -43.288  59.244 -50.993  1.00  0.00     0.244 C 
HETATM    9  N   UNL     1     -44.545  59.492 -50.464  1.00  0.00    -0.278 N 
HETATM   10  C   UNL     1     -44.929  60.477 -49.601  1.00  0.00     0.320 C 
HETATM   11  H   UNL     1     -45.319  58.908 -50.747  1.00  0.00     0.173 HD
HETATM   12  N   UNL     1     -43.956  61.259 -49.089  1.00  0.00    -0.352 N 
HETATM   13  O   UNL     1     -46.105  60.626 -49.292  1.00  0.00    -0.247 OA
HETATM   14  H   UNL     1     -43.047  61.282 -49.538  1.00  0.00     0.160 HD
HETATM   15  H   UNL     1     -44.238  62.047 -48.523  1.00  0.00     0.160 HD
HETATM   16  O   UNL     1     -42.299  59.956 -50.801  1.00  0.00    -0.271 OA
ENDBRANCH   7   8
BRANCH   7  17
HETATM   17  C   UNL     1     -42.538  56.830 -51.200  1.00  0.00    -0.035 A 
HETATM   18  C   UNL     1     -41.184  56.789 -50.828  1.00  0.00     0.009 A 
HETATM   19  C   UNL     1     -40.642  55.656 -50.213  1.00  0.00     0.001 A 
HETATM   20  C   UNL     1     -41.438  54.542 -49.967  1.00  0.00     0.000 A 
HETATM   21  C   UNL     1     -42.780  54.558 -50.332  1.00  0.00     0.001 A 
HETATM   22  C   UNL     1     -43.326  55.691 -50.939  1.00  0.00     0.009 A 
ENDBRANCH   7  17
ENDBRANCH   6   7
ENDBRANCH   3   6
BRANCH   2  23
HETATM   23  C   UNL     1     -42.754  56.038 -54.687  1.00  0.00     0.043 A 
HETATM   24  C   UNL     1     -43.339  54.786 -54.443  1.00  0.00     0.033 A 
HETATM   25  C   UNL     1     -42.542  53.719 -54.023  1.00  0.00     0.044 A 
HETATM   26  C   UNL     1     -41.175  53.904 -53.851  1.00  0.00     0.116 A 
HETATM   27  F   UNL     1     -40.419  52.880 -53.440  1.00  0.00    -0.206 F 
HETATM   28  C   UNL     1     -40.584  55.136 -54.100  1.00  0.00     0.044 A 
HETATM   29  C   UNL     1     -41.371  56.210 -54.523  1.00  0.00     0.033 A 
ENDBRANCH   2  23
BRANCH   1  30
HETATM   30  C   UNL     1     -43.065  57.121 -57.625  1.00  0.00     0.255 C 
HETATM   31  C   UNL     1     -42.337  58.206 -58.422  1.00  0.00     0.049 C 
BRANCH  30  32
HETATM   32  N   UNL     1     -44.075  56.408 -58.555  1.00  0.00    -0.060 N 
HETATM   33  H   UNL     1     -44.837  56.094 -57.941  1.00  0.00     0.280 HD
HETATM   34  C   UNL     1     -44.689  57.363 -59.558  1.00  0.00     0.236 C 
HETATM   35  C   UNL     1     -45.852  56.678 -60.265  1.00  0.00     0.028 C 
HETATM   36  C   UNL     1     -45.423  55.373 -60.927  1.00  0.00     0.003 C 
HETATM   37  C   UNL     1     -44.718  54.454 -59.935  1.00  0.00     0.028 C 
HETATM   38  C   UNL     1     -43.552  55.162 -59.255  1.00  0.00     0.236 C 
ENDBRANCH  30  32
ENDBRANCH   1  30
TORSDOF 7
ENDMDL
MODEL 3
REMARK VINA RESULT:      -8.5      3.128      5.490
REMARK  7 active torsions:
REMARK  status: ('A' for Active; 'I' for Inactive)
REMARK    1  A    between atoms: C_2  and  N_3 
REMARK    2  A    between atoms: C_2  and  C_10 
REMARK    3  A    between atoms: N_11  and  C_12 
REMARK    4  A    between atoms: C_19  and  S_20 
REMARK    5  A    between atoms: S_20  and  C_21 
REMARK    6  A    between atoms: C_21  and  C_22 
REMARK    7  A    between atoms: C_21  and  C_28 
REMARK       I    between atoms: C_22  and  N_23 
REMARK       I    between atoms: N_23  and  C_24 
REMARK       I    between atoms: C_24  and  N_25 
ROOT
HETATM    1  C   UNL     1     -44.208  58.719 -54.225  1.00  0.00     0.166 A 
HETATM    2  N   UNL     1     -43.391  57.996 -53.358  1.00  0.00    -0.274 N 
HETATM    3  C   UNL     1     -43.848  56.696 -53.479  1.00  0.00     0.197 A 
HETATM    4  N   UNL     1     -44.872  56.650 -54.298  1.00  0.00    -0.122 NA
HETATM    5  N   UNL     1     -45.118  57.914 -54.738  1.00  0.00    -0.131 NA
ENDROOT
BRANCH   3   6
HETATM    6  S   UNL     1     -43.259  55.312 -52.627  1.00  0.00    -0.070 SA
BRANCH   6   7
HETATM    7  C   UNL     1     -42.611  54.270 -53.987  1.00  0.00     0.180 C 
BRANCH   7   8
HETATM    8  C   UNL     1     -42.221  55.141 -55.190  1.00  0.00     0.244 C 
HETATM    9  N   UNL     1     -43.079  55.055 -56.277  1.00  0.00    -0.278 N 
HETATM   10  C   UNL     1     -43.022  55.726 -57.463  1.00  0.00     0.320 C 
HETATM   11  H   UNL     1     -43.849  54.402 -56.242  1.00  0.00     0.173 HD
HETATM   12  N   UNL     1     -42.085  56.688 -57.582  1.00  0.00    -0.352 N 
HETATM   13  O   UNL     1     -43.805  55.475 -58.372  1.00  0.00    -0.247 OA
HETATM   14  H   UNL     1     -41.306  56.708 -56.932  1.00  0.00     0.160 HD
HETATM   15  H   UNL     1     -41.974  57.126 -58.485  1.00  0.00     0.160 HD
HETATM   16  O   UNL     1     -41.192  55.822 -55.168  1.00  0.00    -0.271 OA
ENDBRANCH   7   8
BRANCH   7  17
HETATM   17  C   UNL     1     -41.491  53.306 -53.599  1.00  0.00    -0.035 A 
HETATM   18  C   UNL     1     -40.990  52.297 -54.440  1.00  0.00     0.009 A 
HETATM   19  C   UNL     1     -39.984  51.431 -54.001  1.00  0.00     0.001 A 
HETATM   20  C   UNL     1     -39.467  51.550 -52.715  1.00  0.00     0.000 A 
HETATM   21  C   UNL     1     -39.952  52.536 -51.864  1.00  0.00     0.001 A 
HETATM   22  C   UNL     1     -40.951  53.409 -52.301  1.00  0.00     0.009 A 
ENDBRANCH   7  17
ENDBRANCH   6   7
ENDBRANCH   3   6
BRANCH   2  23
HETATM   23  C   UNL     1     -42.301  58.493 -52.598  1.00  0.00     0.043 A 
HETATM   24  C   UNL     1     -41.007  58.476 -53.141  1.00  0.00     0.033 A 
HETATM   25  C   UNL     1     -39.930  58.941 -52.383  1.00  0.00     0.044 A 
HETATM   26  C   UNL     1     -40.148  59.420 -51.097  1.00  0.00     0.116 A 
HETATM   27  F   UNL     1     -39.111  59.857 -50.373  1.00  0.00    -0.206 F 
HETATM   28  C   UNL     1     -41.426  59.452 -50.553  1.00  0.00     0.044 A 
HETATM   29  C   UNL     1     -42.510  58.991 -51.303  1.00  0.00     0.033 A 
ENDBRANCH   2  23
BRANCH   1  30
HETATM   30  C   UNL     1     -44.002  60.135 -54.673  1.00  0.00     0.255 C 
HETATM   31  C   UNL     1     -45.260  60.978 -54.450  1.00  0.00     0.049 C 
BRANCH  30  32
HETATM   32  N   UNL     1     -43.555  60.282 -56.147  1.00  0.00    -0.060 N 
HETATM   33  H   UNL     1     -43.813  59.397 -56.600  1.00  0.00     0.280 HD
HETATM   34  C   UNL     1     -44.321  61.377 -56.862  1.00  0.00     0.236 C 
HETATM   35  C   UNL     1     -44.033  61.305 -58.355  1.00  0.00     0.028 C 
HETATM   36  C   UNL     1     -42.540  61.385 -58.650  1.00  0.00     0.003 C 
HETATM   37  C   UNL     1     -41.761  60.343 -57.854  1.00  0.00     0.028 C 
HETATM   38  C   UNL     1     -42.058  60.449 -56.362  1.00  0.00     0.236 C 
ENDBRANCH  30  32
ENDBRANCH   1  30
TORSDOF 7
ENDMDL
MODEL 4
REMARK VINA RESULT:      -8.2      3.686      5.529
REMARK  7 active torsions:
REMARK  status: ('A' for Active; 'I' for Inactive)
REMARK    1  A    between atoms: C_2  and  N_3 
REMARK    2  A    between atoms: C_2  and  C_10 
REMARK    3  A    between atoms: N_11  and  C_12 
REMARK    4  A    between atoms: C_19  and  S_20 
REMARK    5  A    between atoms: S_20  and  C_21 
REMARK    6  A    between atoms: C_21  and  C_22 
REMARK    7  A    between atoms: C_21  and  C_28 
REMARK       I    between atoms: C_22  and  N_23 
REMARK       I    between atoms: N_23  and  C_24 
REMARK       I    between atoms: C_24  and  N_25 
ROOT
HETATM    1  C   UNL     1     -43.215  57.107 -55.648  1.00  0.00     0.166 A 
HETATM    2  N   UNL     1     -42.219  56.746 -54.743  1.00  0.00    -0.274 N 
HETATM    3  C   UNL     1     -41.636  55.632 -55.319  1.00  0.00     0.197 A 
HETATM    4  N   UNL     1     -42.254  55.322 -56.435  1.00  0.00    -0.122 NA
HETATM    5  N   UNL     1     -43.259  56.220 -56.623  1.00  0.00    -0.131 NA
ENDROOT
BRANCH   3   6
HETATM    6  S   UNL     1     -40.344  54.689 -54.664  1.00  0.00    -0.070 SA
BRANCH   6   7
HETATM    7  C   UNL     1     -41.235  53.520 -53.571  1.00  0.00     0.180 C 
BRANCH   7   8
HETATM    8  C   UNL     1     -40.554  52.144 -53.590  1.00  0.00     0.244 C 
HETATM    9  N   UNL     1     -40.197  51.650 -52.345  1.00  0.00    -0.278 N 
HETATM   10  C   UNL     1     -39.617  50.455 -52.036  1.00  0.00     0.320 C 
HETATM   11  H   UNL     1     -40.342  52.229 -51.530  1.00  0.00     0.173 HD
HETATM   12  N   UNL     1     -39.461  49.568 -53.040  1.00  0.00    -0.352 N 
HETATM   13  O   UNL     1     -39.272  50.196 -50.889  1.00  0.00    -0.247 OA
HETATM   14  H   UNL     1     -39.518  49.889 -54.001  1.00  0.00     0.160 HD
HETATM   15  H   UNL     1     -38.950  48.720 -52.841  1.00  0.00     0.160 HD
HETATM   16  O   UNL     1     -40.325  51.570 -54.659  1.00  0.00    -0.271 OA
ENDBRANCH   7   8
BRANCH   7  17
HETATM   17  C   UNL     1     -41.481  54.011 -52.146  1.00  0.00    -0.035 A 
HETATM   18  C   UNL     1     -42.719  53.931 -51.485  1.00  0.00     0.009 A 
HETATM   19  C   UNL     1     -42.874  54.432 -50.188  1.00  0.00     0.001 A 
HETATM   20  C   UNL     1     -41.802  55.029 -49.533  1.00  0.00     0.000 A 
HETATM   21  C   UNL     1     -40.570  55.124 -50.170  1.00  0.00     0.001 A 
HETATM   22  C   UNL     1     -40.409  54.618 -51.462  1.00  0.00     0.009 A 
ENDBRANCH   7  17
ENDBRANCH   6   7
ENDBRANCH   3   6
BRANCH   2  23
HETATM   23  C   UNL     1     -41.859  57.428 -53.553  1.00  0.00     0.043 A 
HETATM   24  C   UNL     1     -42.751  57.460 -52.470  1.00  0.00     0.033 A 
HETATM   25  C   UNL     1     -42.408  58.153 -51.307  1.00  0.00     0.044 A 
HETATM   26  C   UNL     1     -41.183  58.806 -51.230  1.00  0.00     0.116 A 
HETATM   27  F   UNL     1     -40.863  59.475 -50.117  1.00  0.00    -0.206 F 
HETATM   28  C   UNL     1     -40.287  58.772 -52.291  1.00  0.00     0.044 A 
HETATM   29  C   UNL     1     -40.620  58.080 -53.458  1.00  0.00     0.033 A 
ENDBRANCH   2  23
BRANCH   1  30
HETATM   30  C   UNL     1     -44.001  58.383 -55.649  1.00  0.00     0.255 C 
HETATM   31  C   UNL     1     -45.502  58.114 -55.782  1.00  0.00     0.049 C 
BRANCH  30  32
HETATM   32  N   UNL     1     -43.575  59.398 -56.737  1.00  0.00    -0.060 N 
HETATM   33  H   UNL     1     -43.970  60.298 -56.441  1.00  0.00     0.280 HD
HETATM   34  C   UNL     1     -42.071  59.575 -56.783  1.00  0.00     0.236 C 
HETATM   35  C   UNL     1     -41.727  60.760 -57.676  1.00  0.00     0.028 C 
HETATM   36  C   UNL     1     -42.313  60.605 -59.075  1.00  0.00     0.003 C 
HETATM   37  C   UNL     1     -43.812  60.329 -59.020  1.00  0.00     0.028 C 
HETATM   38  C   UNL     1     -44.124  59.130 -58.131  1.00  0.00     0.236 C 
ENDBRANCH  30  32
ENDBRANCH   1  30
TORSDOF 7
ENDMDL
MODEL 5
REMARK VINA RESULT:      -8.2      3.152      6.418
REMARK  7 active torsions:
REMARK  status: ('A' for Active; 'I' for Inactive)
REMARK    1  A    between atoms: C_2  and  N_3 
REMARK    2  A    between atoms: C_2  and  C_10 
REMARK    3  A    between atoms: N_11  and  C_12 
REMARK    4  A    between atoms: C_19  and  S_20 
REMARK    5  A    between atoms: S_20  and  C_21 
REMARK    6  A    between atoms: C_21  and  C_22 
REMARK    7  A    between atoms: C_21  and  C_28 
REMARK       I    between atoms: C_22  and  N_23 
REMARK       I    between atoms: N_23  and  C_24 
REMARK       I    between atoms: C_24  and  N_25 
ROOT
HETATM    1  C   UNL     1     -44.028  58.928 -53.985  1.00  0.00     0.166 A 
HETATM    2  N   UNL     1     -43.237  58.163 -53.130  1.00  0.00    -0.274 N 
HETATM    3  C   UNL     1     -43.718  56.877 -53.296  1.00  0.00     0.197 A 
HETATM    4  N   UNL     1     -44.731  56.876 -54.129  1.00  0.00    -0.122 NA
HETATM    5  N   UNL     1     -44.947  58.158 -54.533  1.00  0.00    -0.131 NA
ENDROOT
BRANCH   3   6
HETATM    6  S   UNL     1     -43.166  55.457 -52.480  1.00  0.00    -0.070 SA
BRANCH   6   7
HETATM    7  C   UNL     1     -42.611  54.404 -53.871  1.00  0.00     0.180 C 
BRANCH   7   8
HETATM    8  C   UNL     1     -42.223  55.271 -55.078  1.00  0.00     0.244 C 
HETATM    9  N   UNL     1     -43.049  55.139 -56.183  1.00  0.00    -0.278 N 
HETATM   10  C   UNL     1     -42.987  55.794 -57.378  1.00  0.00     0.320 C 
HETATM   11  H   UNL     1     -43.796  54.459 -56.157  1.00  0.00     0.173 HD
HETATM   12  N   UNL     1     -42.082  56.788 -57.488  1.00  0.00    -0.352 N 
HETATM   13  O   UNL     1     -43.737  55.502 -58.301  1.00  0.00    -0.247 OA
HETATM   14  H   UNL     1     -41.321  56.845 -56.820  1.00  0.00     0.160 HD
HETATM   15  H   UNL     1     -41.965  57.217 -58.395  1.00  0.00     0.160 HD
HETATM   16  O   UNL     1     -41.220  55.989 -55.040  1.00  0.00    -0.271 OA
ENDBRANCH   7   8
BRANCH   7  17
HETATM   17  C   UNL     1     -41.523  53.387 -53.531  1.00  0.00    -0.035 A 
HETATM   18  C   UNL     1     -41.071  52.388 -54.411  1.00  0.00     0.009 A 
HETATM   19  C   UNL     1     -40.092  51.471 -54.016  1.00  0.00     0.001 A 
HETATM   20  C   UNL     1     -39.554  51.528 -52.734  1.00  0.00     0.000 A 
HETATM   21  C   UNL     1     -39.990  52.503 -51.844  1.00  0.00     0.001 A 
HETATM   22  C   UNL     1     -40.962  53.426 -52.239  1.00  0.00     0.009 A 
ENDBRANCH   7  17
ENDBRANCH   6   7
ENDBRANCH   3   6
BRANCH   2  23
HETATM   23  C   UNL     1     -42.148  58.615 -52.342  1.00  0.00     0.043 A 
HETATM   24  C   UNL     1     -42.386  59.167 -51.073  1.00  0.00     0.033 A 
HETATM   25  C   UNL     1     -41.316  59.636 -50.308  1.00  0.00     0.044 A 
HETATM   26  C   UNL     1     -40.021  59.551 -50.808  1.00  0.00     0.116 A 
HETATM   27  F   UNL     1     -39.001  60.009 -50.073  1.00  0.00    -0.206 F 
HETATM   28  C   UNL     1     -39.772  58.997 -52.057  1.00  0.00     0.044 A 
HETATM   29  C   UNL     1     -40.835  58.523 -52.830  1.00  0.00     0.033 A 
ENDBRANCH   2  23
BRANCH   1  30
HETATM   30  C   UNL     1     -43.790  60.353 -54.387  1.00  0.00     0.255 C 
HETATM   31  C   UNL     1     -42.493  60.498 -55.187  1.00  0.00     0.049 C 
BRANCH  30  32
HETATM   32  N   UNL     1     -43.766  61.355 -53.208  1.00  0.00    -0.060 N 
HETATM   33  H   UNL     1     -43.004  61.038 -52.596  1.00  0.00     0.280 HD
HETATM   34  C   UNL     1     -43.405  62.754 -53.665  1.00  0.00     0.236 C 
HETATM   35  C   UNL     1     -43.142  63.632 -52.449  1.00  0.00     0.028 C 
HETATM   36  C   UNL     1     -44.328  63.647 -51.493  1.00  0.00     0.003 C 
HETATM   37  C   UNL     1     -44.751  62.232 -51.111  1.00  0.00     0.028 C 
HETATM   38  C   UNL     1     -45.021  61.381 -52.347  1.00  0.00     0.236 C 
ENDBRANCH  30  32
ENDBRANCH   1  30
TORSDOF 7
ENDMDL
MODEL 6
REMARK VINA RESULT:      -8.1      1.974      2.633
REMARK  7 active torsions:
REMARK  status: ('A' for Active; 'I' for Inactive)
REMARK    1  A    between atoms: C_2  and  N_3 
REMARK    2  A    between atoms: C_2  and  C_10 
REMARK    3  A    between atoms: N_11  and  C_12 
REMARK    4  A    between atoms: C_19  and  S_20 
REMARK    5  A    between atoms: S_20  and  C_21 
REMARK    6  A    between atoms: C_21  and  C_22 
REMARK    7  A    between atoms: C_21  and  C_28 
REMARK       I    between atoms: C_22  and  N_23 
REMARK       I    between atoms: N_23  and  C_24 
REMARK       I    between atoms: C_24  and  N_25 
ROOT
HETATM    1  C   UNL     1     -42.427  57.603 -56.756  1.00  0.00     0.166 A 
HETATM    2  N   UNL     1     -41.891  57.151 -55.551  1.00  0.00    -0.274 N 
HETATM    3  C   UNL     1     -41.636  58.313 -54.846  1.00  0.00     0.197 A 
HETATM    4  N   UNL     1     -41.941  59.362 -55.573  1.00  0.00    -0.122 NA
HETATM    5  N   UNL     1     -42.402  58.921 -56.776  1.00  0.00    -0.131 NA
ENDROOT
BRANCH   3   6
HETATM    6  S   UNL     1     -40.932  58.430 -53.272  1.00  0.00    -0.070 SA
BRANCH   6   7
HETATM    7  C   UNL     1     -42.370  58.119 -52.182  1.00  0.00     0.180 C 
BRANCH   7   8
HETATM    8  C   UNL     1     -43.665  58.600 -52.853  1.00  0.00     0.244 C 
HETATM    9  N   UNL     1     -43.885  59.968 -52.787  1.00  0.00    -0.278 N 
HETATM   10  C   UNL     1     -44.913  60.693 -53.314  1.00  0.00     0.320 C 
HETATM   11  H   UNL     1     -43.237  60.543 -52.266  1.00  0.00     0.173 HD
HETATM   12  N   UNL     1     -45.787  60.037 -54.104  1.00  0.00    -0.352 N 
HETATM   13  O   UNL     1     -45.021  61.893 -53.092  1.00  0.00    -0.247 OA
HETATM   14  H   UNL     1     -45.824  59.024 -54.072  1.00  0.00     0.160 HD
HETATM   15  H   UNL     1     -46.601  60.542 -54.423  1.00  0.00     0.160 HD
HETATM   16  O   UNL     1     -44.445  57.794 -53.367  1.00  0.00    -0.271 OA
ENDBRANCH   7   8
BRANCH   7  17
HETATM   17  C   UNL     1     -42.501  56.689 -51.659  1.00  0.00    -0.035 A 
HETATM   18  C   UNL     1     -43.707  56.115 -51.221  1.00  0.00     0.009 A 
HETATM   19  C   UNL     1     -43.741  54.808 -50.725  1.00  0.00     0.001 A 
HETATM   20  C   UNL     1     -42.573  54.055 -50.647  1.00  0.00     0.000 A 
HETATM   21  C   UNL     1     -41.368  54.605 -51.069  1.00  0.00     0.001 A 
HETATM   22  C   UNL     1     -41.331  55.907 -51.573  1.00  0.00     0.009 A 
ENDBRANCH   7  17
ENDBRANCH   6   7
ENDBRANCH   3   6
BRANCH   2  23
HETATM   23  C   UNL     1     -41.727  55.803 -55.142  1.00  0.00     0.043 A 
HETATM   24  C   UNL     1     -40.438  55.261 -55.025  1.00  0.00     0.033 A 
HETATM   25  C   UNL     1     -40.278  53.926 -54.647  1.00  0.00     0.044 A 
HETATM   26  C   UNL     1     -41.397  53.144 -54.387  1.00  0.00     0.116 A 
HETATM   27  F   UNL     1     -41.237  51.864 -54.033  1.00  0.00    -0.206 F 
HETATM   28  C   UNL     1     -42.677  53.672 -54.489  1.00  0.00     0.044 A 
HETATM   29  C   UNL     1     -42.849  55.007 -54.865  1.00  0.00     0.033 A 
ENDBRANCH   2  23
BRANCH   1  30
HETATM   30  C   UNL     1     -43.104  56.768 -57.801  1.00  0.00     0.255 C 
HETATM   31  C   UNL     1     -42.459  56.964 -59.175  1.00  0.00     0.049 C 
BRANCH  30  32
HETATM   32  N   UNL     1     -44.628  57.007 -57.924  1.00  0.00    -0.060 N 
HETATM   33  H   UNL     1     -45.068  56.151 -57.567  1.00  0.00     0.280 HD
HETATM   34  C   UNL     1     -45.094  58.141 -57.033  1.00  0.00     0.236 C 
HETATM   35  C   UNL     1     -46.616  58.162 -56.994  1.00  0.00     0.028 C 
HETATM   36  C   UNL     1     -47.218  58.266 -58.390  1.00  0.00     0.003 C 
HETATM   37  C   UNL     1     -46.672  57.180 -59.312  1.00  0.00     0.028 C 
HETATM   38  C   UNL     1     -45.148  57.193 -59.342  1.00  0.00     0.236 C 
ENDBRANCH  30  32
ENDBRANCH   1  30
TORSDOF 7
ENDMDL
MODEL 7
REMARK VINA RESULT:      -8.0      2.996      4.612
REMARK  7 active torsions:
REMARK  status: ('A' for Active; 'I' for Inactive)
REMARK    1  A    between atoms: C_2  and  N_3 
REMARK    2  A    between atoms: C_2  and  C_10 
REMARK    3  A    between atoms: N_11  and  C_12 
REMARK    4  A    between atoms: C_19  and  S_20 
REMARK    5  A    between atoms: S_20  and  C_21 
REMARK    6  A    between atoms: C_21  and  C_22 
REMARK    7  A    between atoms: C_21  and  C_28 
REMARK       I    between atoms: C_22  and  N_23 
REMARK       I    between atoms: N_23  and  C_24 
REMARK       I    between atoms: C_24  and  N_25 
ROOT
HETATM    1  C   UNL     1     -42.432  59.135 -56.645  1.00  0.00     0.166 A 
HETATM    2  N   UNL     1     -42.753  57.802 -56.898  1.00  0.00    -0.274 N 
HETATM    3  C   UNL     1     -42.309  57.135 -55.770  1.00  0.00     0.197 A 
HETATM    4  N   UNL     1     -41.732  57.976 -54.944  1.00  0.00    -0.122 NA
HETATM    5  N   UNL     1     -41.778  59.216 -55.503  1.00  0.00    -0.131 NA
ENDROOT
BRANCH   3   6
HETATM    6  S   UNL     1     -42.391  55.433 -55.482  1.00  0.00    -0.070 SA
BRANCH   6   7
HETATM    7  C   UNL     1     -41.744  55.301 -53.773  1.00  0.00     0.180 C 
BRANCH   7   8
HETATM    8  C   UNL     1     -42.846  55.632 -52.756  1.00  0.00     0.244 C 
HETATM    9  N   UNL     1     -42.892  56.957 -52.353  1.00  0.00    -0.278 N 
HETATM   10  C   UNL     1     -43.769  57.559 -51.498  1.00  0.00     0.320 C 
HETATM   11  H   UNL     1     -42.185  57.596 -52.689  1.00  0.00     0.173 HD
HETATM   12  N   UNL     1     -44.807  56.819 -51.060  1.00  0.00    -0.352 N 
HETATM   13  O   UNL     1     -43.625  58.729 -51.163  1.00  0.00    -0.247 OA
HETATM   14  H   UNL     1     -44.770  55.809 -51.145  1.00  0.00     0.160 HD
HETATM   15  H   UNL     1     -45.409  57.225 -50.357  1.00  0.00     0.160 HD
HETATM   16  O   UNL     1     -43.591  54.746 -52.325  1.00  0.00    -0.271 OA
ENDBRANCH   7   8
BRANCH   7  17
HETATM   17  C   UNL     1     -41.039  53.988 -53.438  1.00  0.00    -0.035 A 
HETATM   18  C   UNL     1     -40.484  53.687 -52.182  1.00  0.00     0.009 A 
HETATM   19  C   UNL     1     -39.825  52.474 -51.960  1.00  0.00     0.001 A 
HETATM   20  C   UNL     1     -39.699  51.545 -52.989  1.00  0.00     0.000 A 
HETATM   21  C   UNL     1     -40.235  51.824 -54.241  1.00  0.00     0.001 A 
HETATM   22  C   UNL     1     -40.901  53.031 -54.464  1.00  0.00     0.009 A 
ENDBRANCH   7  17
ENDBRANCH   6   7
ENDBRANCH   3   6
BRANCH   2  23
HETATM   23  C   UNL     1     -43.443  57.290 -58.026  1.00  0.00     0.043 A 
HETATM   24  C   UNL     1     -42.721  56.734 -59.093  1.00  0.00     0.033 A 
HETATM   25  C   UNL     1     -43.400  56.253 -60.215  1.00  0.00     0.044 A 
HETATM   26  C   UNL     1     -44.787  56.327 -60.266  1.00  0.00     0.116 A 
HETATM   27  F   UNL     1     -45.431  55.872 -61.347  1.00  0.00    -0.206 F 
HETATM   28  C   UNL     1     -45.513  56.865 -59.211  1.00  0.00     0.044 A 
HETATM   29  C   UNL     1     -44.844  57.347 -58.084  1.00  0.00     0.033 A 
ENDBRANCH   2  23
BRANCH   1  30
HETATM   30  C   UNL     1     -42.897  60.329 -57.423  1.00  0.00     0.255 C 
HETATM   31  C   UNL     1     -44.244  60.841 -56.907  1.00  0.00     0.049 C 
BRANCH  30  32
HETATM   32  N   UNL     1     -43.000  60.099 -58.950  1.00  0.00    -0.060 N 
HETATM   33  H   UNL     1     -43.031  59.079 -59.070  1.00  0.00     0.280 HD
HETATM   34  C   UNL     1     -44.295  60.644 -59.516  1.00  0.00     0.236 C 
HETATM   35  C   UNL     1     -44.462  60.166 -60.952  1.00  0.00     0.028 C 
HETATM   36  C   UNL     1     -43.268  60.548 -61.820  1.00  0.00     0.003 C 
HETATM   37  C   UNL     1     -41.957  60.081 -61.196  1.00  0.00     0.028 C 
HETATM   38  C   UNL     1     -41.812  60.587 -59.766  1.00  0.00     0.236 C 
ENDBRANCH  30  32
ENDBRANCH   1  30
TORSDOF 7
ENDMDL
MODEL 8
REMARK VINA RESULT:      -7.9      2.834      7.887
REMARK  7 active torsions:
REMARK  status: ('A' for Active; 'I' for Inactive)
REMARK    1  A    between atoms: C_2  and  N_3 
REMARK    2  A    between atoms: C_2  and  C_10 
REMARK    3  A    between atoms: N_11  and  C_12 
REMARK    4  A    between atoms: C_19  and  S_20 
REMARK    5  A    between atoms: S_20  and  C_21 
REMARK    6  A    between atoms: C_21  and  C_22 
REMARK    7  A    between atoms: C_21  and  C_28 
REMARK       I    between atoms: C_22  and  N_23 
REMARK       I    between atoms: N_23  and  C_24 
REMARK       I    between atoms: C_24  and  N_25 
ROOT
HETATM    1  C   UNL     1     -44.143  57.394 -53.751  1.00  0.00     0.166 A 
HETATM    2  N   UNL     1     -43.506  56.737 -54.803  1.00  0.00    -0.274 N 
HETATM    3  C   UNL     1     -43.978  57.384 -55.931  1.00  0.00     0.197 A 
HETATM    4  N   UNL     1     -44.852  58.303 -55.594  1.00  0.00    -0.122 NA
HETATM    5  N   UNL     1     -44.980  58.288 -54.239  1.00  0.00    -0.131 NA
ENDROOT
BRANCH   3   6
HETATM    6  S   UNL     1     -43.583  57.013 -57.572  1.00  0.00    -0.070 SA
BRANCH   6   7
HETATM    7  C   UNL     1     -44.538  58.275 -58.493  1.00  0.00     0.180 C 
BRANCH   7   8
HETATM    8  C   UNL     1     -43.591  59.282 -59.161  1.00  0.00     0.244 C 
HETATM    9  N   UNL     1     -42.641  59.839 -58.319  1.00  0.00    -0.278 N 
HETATM   10  C   UNL     1     -41.649  60.726 -58.620  1.00  0.00     0.320 C 
HETATM   11  H   UNL     1     -42.663  59.608 -57.335  1.00  0.00     0.173 HD
HETATM   12  N   UNL     1     -41.472  61.033 -59.921  1.00  0.00    -0.352 N 
HETATM   13  O   UNL     1     -40.938  61.203 -57.744  1.00  0.00    -0.247 OA
HETATM   14  H   UNL     1     -42.211  60.829 -60.586  1.00  0.00     0.160 HD
HETATM   15  H   UNL     1     -40.804  61.756 -60.146  1.00  0.00     0.160 HD
HETATM   16  O   UNL     1     -43.723  59.576 -60.352  1.00  0.00    -0.271 OA
ENDBRANCH   7   8
BRANCH   7  17
HETATM   17  C   UNL     1     -45.569  57.728 -59.479  1.00  0.00    -0.035 A 
HETATM   18  C   UNL     1     -46.691  58.445 -59.929  1.00  0.00     0.009 A 
HETATM   19  C   UNL     1     -47.610  57.864 -60.809  1.00  0.00     0.001 A 
HETATM   20  C   UNL     1     -47.431  56.555 -61.246  1.00  0.00     0.000 A 
HETATM   21  C   UNL     1     -46.332  55.824 -60.809  1.00  0.00     0.001 A 
HETATM   22  C   UNL     1     -45.408  56.405 -59.937  1.00  0.00     0.009 A 
ENDBRANCH   7  17
ENDBRANCH   6   7
ENDBRANCH   3   6
BRANCH   2  23
HETATM   23  C   UNL     1     -42.543  55.700 -54.703  1.00  0.00     0.043 A 
HETATM   24  C   UNL     1     -41.176  56.011 -54.753  1.00  0.00     0.033 A 
HETATM   25  C   UNL     1     -40.228  54.987 -54.681  1.00  0.00     0.044 A 
HETATM   26  C   UNL     1     -40.647  53.668 -54.559  1.00  0.00     0.116 A 
HETATM   27  F   UNL     1     -39.735  52.691 -54.499  1.00  0.00    -0.206 F 
HETATM   28  C   UNL     1     -41.997  53.349 -54.499  1.00  0.00     0.044 A 
HETATM   29  C   UNL     1     -42.954  54.365 -54.567  1.00  0.00     0.033 A 
ENDBRANCH   2  23
BRANCH   1  30
HETATM   30  C   UNL     1     -43.821  57.266 -52.292  1.00  0.00     0.255 C 
HETATM   31  C   UNL     1     -45.036  57.596 -51.422  1.00  0.00     0.049 C 
BRANCH  30  32
HETATM   32  N   UNL     1     -42.620  58.122 -51.824  1.00  0.00    -0.060 N 
HETATM   33  H   UNL     1     -42.171  58.456 -52.685  1.00  0.00     0.280 HD
HETATM   34  C   UNL     1     -43.069  59.352 -51.062  1.00  0.00     0.236 C 
HETATM   35  C   UNL     1     -41.881  60.282 -50.855  1.00  0.00     0.028 C 
HETATM   36  C   UNL     1     -40.727  59.580 -50.150  1.00  0.00     0.003 C 
HETATM   37  C   UNL     1     -40.342  58.290 -50.867  1.00  0.00     0.028 C 
HETATM   38  C   UNL     1     -41.547  57.374 -51.046  1.00  0.00     0.236 C 
ENDBRANCH  30  32
ENDBRANCH   1  30
TORSDOF 7
ENDMDL
MODEL 9
REMARK VINA RESULT:      -7.9      3.135      7.506
REMARK  7 active torsions:
REMARK  status: ('A' for Active; 'I' for Inactive)
REMARK    1  A    between atoms: C_2  and  N_3 
REMARK    2  A    between atoms: C_2  and  C_10 
REMARK    3  A    between atoms: N_11  and  C_12 
REMARK    4  A    between atoms: C_19  and  S_20 
REMARK    5  A    between atoms: S_20  and  C_21 
REMARK    6  A    between atoms: C_21  and  C_22 
REMARK    7  A    between atoms: C_21  and  C_28 
REMARK       I    between atoms: C_22  and  N_23 
REMARK       I    between atoms: N_23  and  C_24 
REMARK       I    between atoms: C_24  and  N_25 
ROOT
HETATM    1  C   UNL     1     -44.234  59.885 -52.376  1.00  0.00     0.166 A 
HETATM    2  N   UNL     1     -43.412  58.930 -52.973  1.00  0.00    -0.274 N 
HETATM    3  C   UNL     1     -43.149  59.456 -54.225  1.00  0.00     0.197 A 
HETATM    4  N   UNL     1     -43.791  60.590 -54.385  1.00  0.00    -0.122 NA
HETATM    5  N   UNL     1     -44.493  60.841 -53.246  1.00  0.00    -0.131 NA
ENDROOT
BRANCH   3   6
HETATM    6  S   UNL     1     -42.201  58.725 -55.471  1.00  0.00    -0.070 SA
BRANCH   6   7
HETATM    7  C   UNL     1     -43.100  57.158 -55.771  1.00  0.00     0.180 C 
BRANCH   7   8
HETATM    8  C   UNL     1     -43.568  57.081 -57.232  1.00  0.00     0.244 C 
HETATM    9  N   UNL     1     -42.591  56.707 -58.141  1.00  0.00    -0.278 N 
HETATM   10  C   UNL     1     -42.705  56.516 -59.487  1.00  0.00     0.320 C 
HETATM   11  H   UNL     1     -41.644  56.571 -57.814  1.00  0.00     0.173 HD
HETATM   12  N   UNL     1     -43.944  56.583 -60.015  1.00  0.00    -0.352 N 
HETATM   13  O   UNL     1     -41.723  56.274 -60.179  1.00  0.00    -0.247 OA
HETATM   14  H   UNL     1     -44.689  57.022 -59.484  1.00  0.00     0.160 HD
HETATM   15  H   UNL     1     -44.028  56.536 -61.020  1.00  0.00     0.160 HD
HETATM   16  O   UNL     1     -44.727  57.376 -57.538  1.00  0.00    -0.271 OA
ENDBRANCH   7   8
BRANCH   7  17
HETATM   17  C   UNL     1     -42.368  55.888 -55.343  1.00  0.00    -0.035 A 
HETATM   18  C   UNL     1     -40.990  55.822 -55.075  1.00  0.00     0.009 A 
HETATM   19  C   UNL     1     -40.385  54.612 -54.719  1.00  0.00     0.001 A 
HETATM   20  C   UNL     1     -41.141  53.448 -54.633  1.00  0.00     0.000 A 
HETATM   21  C   UNL     1     -42.505  53.488 -54.900  1.00  0.00     0.001 A 
HETATM   22  C   UNL     1     -43.114  54.696 -55.248  1.00  0.00     0.009 A 
ENDBRANCH   7  17
ENDBRANCH   6   7
ENDBRANCH   3   6
BRANCH   2  23
HETATM   23  C   UNL     1     -42.916  57.740 -52.381  1.00  0.00     0.043 A 
HETATM   24  C   UNL     1     -41.572  57.667 -51.984  1.00  0.00     0.033 A 
HETATM   25  C   UNL     1     -41.076  56.488 -51.424  1.00  0.00     0.044 A 
HETATM   26  C   UNL     1     -41.919  55.394 -51.263  1.00  0.00     0.116 A 
HETATM   27  F   UNL     1     -41.437  54.264 -50.733  1.00  0.00    -0.206 F 
HETATM   28  C   UNL     1     -43.254  55.458 -51.642  1.00  0.00     0.044 A 
HETATM   29  C   UNL     1     -43.760  56.634 -52.201  1.00  0.00     0.033 A 
ENDBRANCH   2  23
BRANCH   1  30
HETATM   30  C   UNL     1     -44.626  59.947 -50.930  1.00  0.00     0.255 C 
HETATM   31  C   UNL     1     -45.983  59.281 -50.691  1.00  0.00     0.049 C 
BRANCH  30  32
HETATM   32  N   UNL     1     -44.657  61.376 -50.336  1.00  0.00    -0.060 N 
HETATM   33  H   UNL     1     -45.156  61.948 -51.028  1.00  0.00     0.280 HD
HETATM   34  C   UNL     1     -45.464  61.436 -49.056  1.00  0.00     0.236 C 
HETATM   35  C   UNL     1     -45.679  62.891 -48.660  1.00  0.00     0.028 C 
HETATM   36  C   UNL     1     -44.360  63.642 -48.524  1.00  0.00     0.003 C 
HETATM   37  C   UNL     1     -43.508  63.498 -49.780  1.00  0.00     0.028 C 
HETATM   38  C   UNL     1     -43.297  62.032 -50.142  1.00  0.00     0.236 C 
ENDBRANCH  30  32
ENDBRANCH   1  30
TORSDOF 7
ENDMDL
MODEL 10
REMARK VINA RESULT:      -7.8      2.956      7.541
REMARK  7 active torsions:
REMARK  status: ('A' for Active; 'I' for Inactive)
REMARK    1  A    between atoms: C_2  and  N_3 
REMARK    2  A    between atoms: C_2  and  C_10 
REMARK    3  A    between atoms: N_11  and  C_12 
REMARK    4  A    between atoms: C_19  and  S_20 
REMARK    5  A    between atoms: S_20  and  C_21 
REMARK    6  A    between atoms: C_21  and  C_22 
REMARK    7  A    between atoms: C_21  and  C_28 
REMARK       I    between atoms: C_22  and  N_23 
REMARK       I    between atoms: N_23  and  C_24 
REMARK       I    between atoms: C_24  and  N_25 
ROOT
HETATM    1  C   UNL     1     -42.460  58.091 -53.747  1.00  0.00     0.166 A 
HETATM    2  N   UNL     1     -42.269  57.176 -54.781  1.00  0.00    -0.274 N 
HETATM    3  C   UNL     1     -42.502  57.917 -55.926  1.00  0.00     0.197 A 
HETATM    4  N   UNL     1     -42.848  59.143 -55.610  1.00  0.00    -0.122 NA
HETATM    5  N   UNL     1     -42.856  59.243 -54.252  1.00  0.00    -0.131 NA
ENDROOT
BRANCH   3   6
HETATM    6  S   UNL     1     -42.451  57.341 -57.554  1.00  0.00    -0.070 SA
BRANCH   6   7
HETATM    7  C   UNL     1     -43.795  58.302 -58.345  1.00  0.00     0.180 C 
BRANCH   7   8
HETATM    8  C   UNL     1     -43.217  59.507 -59.102  1.00  0.00     0.244 C 
HETATM    9  N   UNL     1     -42.132  60.116 -58.492  1.00  0.00    -0.278 N 
HETATM   10  C   UNL     1     -41.388  61.172 -58.930  1.00  0.00     0.320 C 
HETATM   11  H   UNL     1     -41.830  59.785 -57.586  1.00  0.00     0.173 HD
HETATM   12  N   UNL     1     -41.648  61.635 -60.170  1.00  0.00    -0.352 N 
HETATM   13  O   UNL     1     -40.509  61.663 -58.231  1.00  0.00    -0.247 OA
HETATM   14  H   UNL     1     -42.522  61.388 -60.621  1.00  0.00     0.160 HD
HETATM   15  H   UNL     1     -41.168  62.472 -60.468  1.00  0.00     0.160 HD
HETATM   16  O   UNL     1     -43.735  59.897 -60.152  1.00  0.00    -0.271 OA
ENDBRANCH   7   8
BRANCH   7  17
HETATM   17  C   UNL     1     -44.755  57.494 -59.216  1.00  0.00    -0.035 A 
HETATM   18  C   UNL     1     -46.151  57.656 -59.213  1.00  0.00     0.009 A 
HETATM   19  C   UNL     1     -46.969  56.855 -60.017  1.00  0.00     0.001 A 
HETATM   20  C   UNL     1     -46.410  55.873 -60.828  1.00  0.00     0.000 A 
HETATM   21  C   UNL     1     -45.032  55.690 -60.842  1.00  0.00     0.001 A 
HETATM   22  C   UNL     1     -44.211  56.494 -60.047  1.00  0.00     0.009 A 
ENDBRANCH   7  17
ENDBRANCH   6   7
ENDBRANCH   3   6
BRANCH   2  23
HETATM   23  C   UNL     1     -41.858  55.824 -54.660  1.00  0.00     0.043 A 
HETATM   24  C   UNL     1     -42.818  54.815 -54.493  1.00  0.00     0.033 A 
HETATM   25  C   UNL     1     -42.412  53.487 -54.347  1.00  0.00     0.044 A 
HETATM   26  C   UNL     1     -41.058  53.174 -54.371  1.00  0.00     0.116 A 
HETATM   27  F   UNL     1     -40.674  51.901 -54.223  1.00  0.00    -0.206 F 
HETATM   28  C   UNL     1     -40.099  54.163 -54.547  1.00  0.00     0.044 A 
HETATM   29  C   UNL     1     -40.495  55.494 -54.695  1.00  0.00     0.033 A 
ENDBRANCH   2  23
BRANCH   1  30
HETATM   30  C   UNL     1     -42.105  57.894 -52.304  1.00  0.00     0.255 C 
HETATM   31  C   UNL     1     -40.670  58.340 -52.016  1.00  0.00     0.049 C 
BRANCH  30  32
HETATM   32  N   UNL     1     -42.294  56.447 -51.790  1.00  0.00    -0.060 N 
HETATM   33  H   UNL     1     -42.372  55.866 -52.633  1.00  0.00     0.280 HD
HETATM   34  C   UNL     1     -41.077  55.955 -51.032  1.00  0.00     0.236 C 
HETATM   35  C   UNL     1     -41.208  54.459 -50.779  1.00  0.00     0.028 C 
HETATM   36  C   UNL     1     -42.499  54.119 -50.043  1.00  0.00     0.003 C 
HETATM   37  C   UNL     1     -43.715  54.700 -50.758  1.00  0.00     0.028 C 
HETATM   38  C   UNL     1     -43.561  56.200 -50.984  1.00  0.00     0.236 C 
ENDBRANCH  30  32
ENDBRANCH   1  30
TORSDOF 7
ENDMDL
