MODEL 1
REMARK VINA RESULT:      -8.9      0.000      0.000
REMARK  7 active torsions:
REMARK  status: ('A' for Active; 'I' for Inactive)
REMARK    1  A    between atoms: C_6  and  C_7 
REMARK       I    between atoms: C_7  and  N_8 
REMARK    2  A    between atoms: N_8  and  C_9 
REMARK    3  A    between atoms: C_9  and  C_10 
REMARK       I    between atoms: C_10  and  N_11 
REMARK    4  A    between atoms: N_11  and  N_12 
REMARK       I    between atoms: N_12  and  C_13 
REMARK    5  A    between atoms: C_13  and  C_14 
REMARK    6  A    between atoms: C_14  and  N_15 
REMARK    7  A    between atoms: N_15  and  C_16 
ROOT
HETATM    1  C   UNL     1     -43.392  56.694 -54.950  1.00  0.00     0.253 C 
HETATM    2  N   UNL     1     -42.919  56.508 -56.235  1.00  0.00    -0.266 N 
HETATM    3  O   UNL     1     -44.589  56.622 -54.666  1.00  0.00    -0.270 OA
HETATM    4  H   UNL     1     -41.959  56.170 -56.368  1.00  0.00     0.190 HD
ENDROOT
BRANCH   2   5
HETATM    5  N   UNL     1     -43.848  56.137 -57.225  1.00  0.00    -0.266 N 
HETATM    6  C   UNL     1     -43.550  56.443 -58.542  1.00  0.00     0.258 C 
HETATM    7  O   UNL     1     -42.616  57.180 -58.855  1.00  0.00    -0.269 OA
HETATM    8  H   UNL     1     -44.443  55.333 -57.013  1.00  0.00     0.190 HD
BRANCH   6   9
HETATM    9  C   UNL     1     -44.515  55.801 -59.556  1.00  0.00     0.173 C 
HETATM   10  C   UNL     1     -44.392  54.279 -59.539  1.00  0.00     0.042 C 
BRANCH   9  11
HETATM   11  N   UNL     1     -45.896  56.156 -59.237  1.00  0.00    -0.356 N 
HETATM   12  H   UNL     1     -46.220  55.975 -58.293  1.00  0.00     0.162 HD
BRANCH  11  13
HETATM   13  C   UNL     1     -46.653  56.878 -60.085  1.00  0.00     0.168 A 
HETATM   14  S   UNL     1     -46.673  58.592 -59.977  1.00  0.00    -0.050 SA
HETATM   15  C   UNL     1     -47.816  58.668 -61.259  1.00  0.00     0.037 A 
HETATM   16  C   UNL     1     -48.082  57.372 -61.700  1.00  0.00     0.076 A 
HETATM   17  C   UNL     1     -48.437  59.791 -61.832  1.00  0.00     0.021 A 
HETATM   18  N   UNL     1     -47.396  56.368 -61.037  1.00  0.00    -0.223 NA
HETATM   19  C   UNL     1     -49.003  57.189 -62.753  1.00  0.00     0.033 A 
HETATM   20  C   UNL     1     -49.631  58.299 -63.327  1.00  0.00     0.002 A 
HETATM   21  C   UNL     1     -49.350  59.583 -62.871  1.00  0.00     0.002 A 
ENDBRANCH  11  13
ENDBRANCH   9  11
ENDBRANCH   6   9
ENDBRANCH   2   5
BRANCH   1  22
HETATM   22  C   UNL     1     -42.310  56.855 -53.879  1.00  0.00     0.227 C 
BRANCH  22  23
HETATM   23  N   UNL     1     -41.854  55.601 -53.295  1.00  0.00    -0.348 N 
HETATM   24  C   UNL     1     -40.849  54.863 -53.880  1.00  0.00     0.252 C 
HETATM   25  O   UNL     1     -40.247  55.264 -54.870  1.00  0.00    -0.268 OA
HETATM   26  H   UNL     1     -42.145  55.389 -52.351  1.00  0.00     0.163 HD
BRANCH  24  27
HETATM   27  C   UNL     1     -40.465  53.588 -53.212  1.00  0.00     0.032 A 
HETATM   28  C   UNL     1     -40.259  52.455 -54.010  1.00  0.00     0.024 A 
HETATM   29  C   UNL     1     -39.895  51.223 -53.439  1.00  0.00    -0.055 A 
HETATM   30  C   UNL     1     -39.765  51.123 -52.040  1.00  0.00    -0.056 A 
HETATM   31  C   UNL     1     -39.698  50.032 -54.337  1.00  0.00     0.049 C 
HETATM   32  C   UNL     1     -39.378  49.829 -51.377  1.00  0.00     0.049 C 
HETATM   33  C   UNL     1     -39.978  52.261 -51.248  1.00  0.00     0.008 A 
HETATM   34  C   UNL     1     -40.332  53.484 -51.824  1.00  0.00     0.017 A 
ENDBRANCH  24  27
ENDBRANCH  22  23
ENDBRANCH   1  22
TORSDOF 7
ENDMDL
MODEL 2
REMARK VINA RESULT:      -8.7      4.210      5.459
REMARK  7 active torsions:
REMARK  status: ('A' for Active; 'I' for Inactive)
REMARK    1  A    between atoms: C_6  and  C_7 
REMARK       I    between atoms: C_7  and  N_8 
REMARK    2  A    between atoms: N_8  and  C_9 
REMARK    3  A    between atoms: C_9  and  C_10 
REMARK       I    between atoms: C_10  and  N_11 
REMARK    4  A    between atoms: N_11  and  N_12 
REMARK       I    between atoms: N_12  and  C_13 
REMARK    5  A    between atoms: C_13  and  C_14 
REMARK    6  A    between atoms: C_14  and  N_15 
REMARK    7  A    between atoms: N_15  and  C_16 
ROOT
HETATM    1  C   UNL     1     -43.420  57.252 -51.358  1.00  0.00     0.253 C 
HETATM    2  N   UNL     1     -42.656  58.371 -51.628  1.00  0.00    -0.266 N 
HETATM    3  O   UNL     1     -44.540  57.080 -51.841  1.00  0.00    -0.270 OA
HETATM    4  H   UNL     1     -41.633  58.301 -51.569  1.00  0.00     0.190 HD
ENDROOT
BRANCH   2   5
HETATM    5  N   UNL     1     -43.160  59.294 -52.563  1.00  0.00    -0.266 N 
HETATM    6  C   UNL     1     -42.255  59.945 -53.384  1.00  0.00     0.258 C 
HETATM    7  O   UNL     1     -41.039  59.894 -53.202  1.00  0.00    -0.269 OA
HETATM    8  H   UNL     1     -44.117  59.139 -52.888  1.00  0.00     0.190 HD
BRANCH   6   9
HETATM    9  C   UNL     1     -42.920  60.757 -54.511  1.00  0.00     0.173 C 
HETATM   10  C   UNL     1     -43.159  62.201 -54.078  1.00  0.00     0.042 C 
BRANCH   9  11
HETATM   11  N   UNL     1     -42.071  60.766 -55.701  1.00  0.00    -0.356 N 
HETATM   12  H   UNL     1     -41.312  61.439 -55.728  1.00  0.00     0.162 HD
BRANCH  11  13
HETATM   13  C   UNL     1     -42.150  59.797 -56.632  1.00  0.00     0.168 A 
HETATM   14  S   UNL     1     -41.681  60.118 -58.253  1.00  0.00    -0.050 SA
HETATM   15  C   UNL     1     -42.114  58.516 -58.704  1.00  0.00     0.037 A 
HETATM   16  C   UNL     1     -42.563  57.837 -57.571  1.00  0.00     0.076 A 
HETATM   17  C   UNL     1     -42.066  57.904 -59.968  1.00  0.00     0.021 A 
HETATM   18  N   UNL     1     -42.557  58.573 -56.398  1.00  0.00    -0.223 NA
HETATM   19  C   UNL     1     -42.980  56.496 -57.705  1.00  0.00     0.033 A 
HETATM   20  C   UNL     1     -42.941  55.878 -58.960  1.00  0.00     0.002 A 
HETATM   21  C   UNL     1     -42.489  56.575 -60.075  1.00  0.00     0.002 A 
ENDBRANCH  11  13
ENDBRANCH   9  11
ENDBRANCH   6   9
ENDBRANCH   2   5
BRANCH   1  22
HETATM   22  C   UNL     1     -42.717  56.175 -50.527  1.00  0.00     0.227 C 
BRANCH  22  23
HETATM   23  N   UNL     1     -42.248  55.033 -51.300  1.00  0.00    -0.348 N 
HETATM   24  C   UNL     1     -40.985  54.514 -51.117  1.00  0.00     0.252 C 
HETATM   25  O   UNL     1     -40.234  54.942 -50.246  1.00  0.00    -0.268 OA
HETATM   26  H   UNL     1     -42.934  54.506 -51.823  1.00  0.00     0.163 HD
BRANCH  24  27
HETATM   27  C   UNL     1     -40.596  53.355 -51.966  1.00  0.00     0.032 A 
HETATM   28  C   UNL     1     -40.130  52.194 -51.334  1.00  0.00     0.024 A 
HETATM   29  C   UNL     1     -39.747  51.066 -52.081  1.00  0.00    -0.055 A 
HETATM   30  C   UNL     1     -39.805  51.119 -53.488  1.00  0.00    -0.056 A 
HETATM   31  C   UNL     1     -39.242  49.848 -51.357  1.00  0.00     0.049 C 
HETATM   32  C   UNL     1     -39.407  49.941 -54.335  1.00  0.00     0.049 C 
HETATM   33  C   UNL     1     -40.267  52.287 -54.113  1.00  0.00     0.008 A 
HETATM   34  C   UNL     1     -40.654  53.400 -53.362  1.00  0.00     0.017 A 
ENDBRANCH  24  27
ENDBRANCH  22  23
ENDBRANCH   1  22
TORSDOF 7
ENDMDL
MODEL 3
REMARK VINA RESULT:      -8.6      4.906      6.159
REMARK  7 active torsions:
REMARK  status: ('A' for Active; 'I' for Inactive)
REMARK    1  A    between atoms: C_6  and  C_7 
REMARK       I    between atoms: C_7  and  N_8 
REMARK    2  A    between atoms: N_8  and  C_9 
REMARK    3  A    between atoms: C_9  and  C_10 
REMARK       I    between atoms: C_10  and  N_11 
REMARK    4  A    between atoms: N_11  and  N_12 
REMARK       I    between atoms: N_12  and  C_13 
REMARK    5  A    between atoms: C_13  and  C_14 
REMARK    6  A    between atoms: C_14  and  N_15 
REMARK    7  A    between atoms: N_15  and  C_16 
ROOT
HETATM    1  C   UNL     1     -42.711  57.455 -50.928  1.00  0.00     0.253 C 
HETATM    2  N   UNL     1     -42.780  58.821 -51.122  1.00  0.00    -0.266 N 
HETATM    3  O   UNL     1     -43.693  56.718 -51.038  1.00  0.00    -0.270 OA
HETATM    4  H   UNL     1     -41.938  59.323 -51.428  1.00  0.00     0.190 HD
ENDROOT
BRANCH   2   5
HETATM    5  N   UNL     1     -44.009  59.359 -51.546  1.00  0.00    -0.266 N 
HETATM    6  C   UNL     1     -43.997  60.245 -52.609  1.00  0.00     0.258 C 
HETATM    7  O   UNL     1     -42.957  60.719 -53.065  1.00  0.00    -0.269 OA
HETATM    8  H   UNL     1     -44.841  58.791 -51.369  1.00  0.00     0.190 HD
BRANCH   6   9
HETATM    9  C   UNL     1     -45.402  60.596 -53.133  1.00  0.00     0.173 C 
HETATM   10  C   UNL     1     -45.513  62.086 -53.444  1.00  0.00     0.042 C 
BRANCH   9  11
HETATM   11  N   UNL     1     -45.691  59.847 -54.354  1.00  0.00    -0.356 N 
HETATM   12  H   UNL     1     -46.343  60.260 -55.012  1.00  0.00     0.162 HD
BRANCH  11  13
HETATM   13  C   UNL     1     -44.977  58.760 -54.701  1.00  0.00     0.168 A 
HETATM   14  S   UNL     1     -43.964  58.798 -56.087  1.00  0.00    -0.050 SA
HETATM   15  C   UNL     1     -43.532  57.155 -55.828  1.00  0.00     0.037 A 
HETATM   16  C   UNL     1     -44.174  56.698 -54.678  1.00  0.00     0.076 A 
HETATM   17  C   UNL     1     -42.688  56.325 -56.588  1.00  0.00     0.021 A 
HETATM   18  N   UNL     1     -44.975  57.629 -54.037  1.00  0.00    -0.223 NA
HETATM   19  C   UNL     1     -43.969  55.364 -54.270  1.00  0.00     0.033 A 
HETATM   20  C   UNL     1     -43.137  54.528 -55.022  1.00  0.00     0.002 A 
HETATM   21  C   UNL     1     -42.505  55.005 -56.165  1.00  0.00     0.002 A 
ENDBRANCH  11  13
ENDBRANCH   9  11
ENDBRANCH   6   9
ENDBRANCH   2   5
BRANCH   1  22
HETATM   22  C   UNL     1     -41.300  56.903 -50.706  1.00  0.00     0.227 C 
BRANCH  22  23
HETATM   23  N   UNL     1     -40.992  55.713 -51.488  1.00  0.00    -0.348 N 
HETATM   24  C   UNL     1     -40.751  54.500 -50.881  1.00  0.00     0.252 C 
HETATM   25  O   UNL     1     -40.860  54.355 -49.669  1.00  0.00    -0.268 OA
HETATM   26  H   UNL     1     -41.158  55.750 -52.485  1.00  0.00     0.163 HD
BRANCH  24  27
HETATM   27  C   UNL     1     -40.431  53.348 -51.768  1.00  0.00     0.032 A 
HETATM   28  C   UNL     1     -40.049  52.137 -51.174  1.00  0.00     0.024 A 
HETATM   29  C   UNL     1     -39.734  51.013 -51.956  1.00  0.00    -0.055 A 
HETATM   30  C   UNL     1     -39.777  51.117 -53.361  1.00  0.00    -0.056 A 
HETATM   31  C   UNL     1     -39.318  49.740 -51.272  1.00  0.00     0.049 C 
HETATM   32  C   UNL     1     -39.449  49.945 -54.247  1.00  0.00     0.049 C 
HETATM   33  C   UNL     1     -40.155  52.334 -53.948  1.00  0.00     0.008 A 
HETATM   34  C   UNL     1     -40.474  53.444 -53.162  1.00  0.00     0.017 A 
ENDBRANCH  24  27
ENDBRANCH  22  23
ENDBRANCH   1  22
TORSDOF 7
ENDMDL
MODEL 4
REMARK VINA RESULT:      -8.5      2.924      4.367
REMARK  7 active torsions:
REMARK  status: ('A' for Active; 'I' for Inactive)
REMARK    1  A    between atoms: C_6  and  C_7 
REMARK       I    between atoms: C_7  and  N_8 
REMARK    2  A    between atoms: N_8  and  C_9 
REMARK    3  A    between atoms: C_9  and  C_10 
REMARK       I    between atoms: C_10  and  N_11 
REMARK    4  A    between atoms: N_11  and  N_12 
REMARK       I    between atoms: N_12  and  C_13 
REMARK    5  A    between atoms: C_13  and  C_14 
REMARK    6  A    between atoms: C_14  and  N_15 
REMARK    7  A    between atoms: N_15  and  C_16 
ROOT
HETATM    1  C   UNL     1     -43.157  57.617 -51.872  1.00  0.00     0.253 C 
HETATM    2  N   UNL     1     -42.525  58.584 -52.629  1.00  0.00    -0.266 N 
HETATM    3  O   UNL     1     -44.373  57.423 -51.923  1.00  0.00    -0.270 OA
HETATM    4  H   UNL     1     -41.538  58.454 -52.879  1.00  0.00     0.190 HD
ENDROOT
BRANCH   2   5
HETATM    5  N   UNL     1     -43.306  59.305 -53.551  1.00  0.00    -0.266 N 
HETATM    6  C   UNL     1     -42.718  59.679 -54.747  1.00  0.00     0.258 C 
HETATM    7  O   UNL     1     -41.510  59.575 -54.952  1.00  0.00    -0.269 OA
HETATM    8  H   UNL     1     -44.317  59.155 -53.508  1.00  0.00     0.190 HD
BRANCH   6   9
HETATM    9  C   UNL     1     -43.715  60.260 -55.767  1.00  0.00     0.173 C 
HETATM   10  C   UNL     1     -43.844  61.772 -55.606  1.00  0.00     0.042 C 
BRANCH   9  11
HETATM   11  N   UNL     1     -43.269  59.978 -57.131  1.00  0.00    -0.356 N 
HETATM   12  H   UNL     1     -42.539  60.567 -57.515  1.00  0.00     0.162 HD
BRANCH  11  13
HETATM   13  C   UNL     1     -43.653  58.864 -57.783  1.00  0.00     0.168 A 
HETATM   14  S   UNL     1     -42.546  57.571 -58.008  1.00  0.00    -0.050 SA
HETATM   15  C   UNL     1     -43.736  56.693 -58.884  1.00  0.00     0.037 A 
HETATM   16  C   UNL     1     -44.912  57.443 -58.919  1.00  0.00     0.076 A 
HETATM   17  C   UNL     1     -43.639  55.433 -59.500  1.00  0.00     0.021 A 
HETATM   18  N   UNL     1     -44.854  58.665 -58.270  1.00  0.00    -0.223 NA
HETATM   19  C   UNL     1     -46.033  56.917 -59.594  1.00  0.00     0.033 A 
HETATM   20  C   UNL     1     -45.945  55.667 -60.216  1.00  0.00     0.002 A 
HETATM   21  C   UNL     1     -44.763  54.936 -60.168  1.00  0.00     0.002 A 
ENDBRANCH  11  13
ENDBRANCH   9  11
ENDBRANCH   6   9
ENDBRANCH   2   5
BRANCH   1  22
HETATM   22  C   UNL     1     -42.221  56.708 -51.071  1.00  0.00     0.227 C 
BRANCH  22  23
HETATM   23  N   UNL     1     -41.813  55.499 -51.774  1.00  0.00    -0.348 N 
HETATM   24  C   UNL     1     -40.895  54.629 -51.229  1.00  0.00     0.252 C 
HETATM   25  O   UNL     1     -40.441  54.795 -50.102  1.00  0.00    -0.268 OA
HETATM   26  H   UNL     1     -42.365  55.210 -52.570  1.00  0.00     0.163 HD
BRANCH  24  27
HETATM   27  C   UNL     1     -40.534  53.429 -52.034  1.00  0.00     0.032 A 
HETATM   28  C   UNL     1     -40.101  52.280 -51.357  1.00  0.00     0.024 A 
HETATM   29  C   UNL     1     -39.746  51.116 -52.060  1.00  0.00    -0.055 A 
HETATM   30  C   UNL     1     -39.800  51.117 -53.468  1.00  0.00    -0.056 A 
HETATM   31  C   UNL     1     -39.276  49.913 -51.289  1.00  0.00     0.049 C 
HETATM   32  C   UNL     1     -39.431  49.898 -54.270  1.00  0.00     0.049 C 
HETATM   33  C   UNL     1     -40.229  52.273 -54.138  1.00  0.00     0.008 A 
HETATM   34  C   UNL     1     -40.588  53.423 -53.431  1.00  0.00     0.017 A 
ENDBRANCH  24  27
ENDBRANCH  22  23
ENDBRANCH   1  22
TORSDOF 7
ENDMDL
MODEL 5
REMARK VINA RESULT:      -8.5      2.615      4.053
REMARK  7 active torsions:
REMARK  status: ('A' for Active; 'I' for Inactive)
REMARK    1  A    between atoms: C_6  and  C_7 
REMARK       I    between atoms: C_7  and  N_8 
REMARK    2  A    between atoms: N_8  and  C_9 
REMARK    3  A    between atoms: C_9  and  C_10 
REMARK       I    between atoms: C_10  and  N_11 
REMARK    4  A    between atoms: N_11  and  N_12 
REMARK       I    between atoms: N_12  and  C_13 
REMARK    5  A    between atoms: C_13  and  C_14 
REMARK    6  A    between atoms: C_14  and  N_15 
REMARK    7  A    between atoms: N_15  and  C_16 
ROOT
HETATM    1  C   UNL     1     -43.188  57.373 -51.581  1.00  0.00     0.253 C 
HETATM    2  N   UNL     1     -42.875  57.207 -52.916  1.00  0.00    -0.266 N 
HETATM    3  O   UNL     1     -43.777  58.368 -51.155  1.00  0.00    -0.270 OA
HETATM    4  H   UNL     1     -42.780  56.256 -53.291  1.00  0.00     0.190 HD
ENDROOT
BRANCH   2   5
HETATM    5  N   UNL     1     -43.332  58.185 -53.819  1.00  0.00    -0.266 N 
HETATM    6  C   UNL     1     -44.526  57.949 -54.480  1.00  0.00     0.258 C 
HETATM    7  O   UNL     1     -45.093  56.859 -54.454  1.00  0.00    -0.269 OA
HETATM    8  H   UNL     1     -43.032  59.146 -53.642  1.00  0.00     0.190 HD
BRANCH   6   9
HETATM    9  C   UNL     1     -45.043  59.168 -55.267  1.00  0.00     0.173 C 
HETATM   10  C   UNL     1     -44.783  60.464 -54.503  1.00  0.00     0.042 C 
BRANCH   9  11
HETATM   11  N   UNL     1     -44.376  59.256 -56.565  1.00  0.00    -0.356 N 
HETATM   12  H   UNL     1     -43.631  59.937 -56.662  1.00  0.00     0.162 HD
BRANCH  11  13
HETATM   13  C   UNL     1     -44.587  58.342 -57.530  1.00  0.00     0.168 A 
HETATM   14  S   UNL     1     -43.337  57.253 -57.977  1.00  0.00    -0.050 SA
HETATM   15  C   UNL     1     -44.354  56.564 -59.180  1.00  0.00     0.037 A 
HETATM   16  C   UNL     1     -45.594  57.201 -59.136  1.00  0.00     0.076 A 
HETATM   17  C   UNL     1     -44.076  55.538 -60.099  1.00  0.00     0.021 A 
HETATM   18  N   UNL     1     -45.717  58.194 -58.179  1.00  0.00    -0.223 NA
HETATM   19  C   UNL     1     -46.595  56.799 -60.044  1.00  0.00     0.033 A 
HETATM   20  C   UNL     1     -46.328  55.782 -60.968  1.00  0.00     0.002 A 
HETATM   21  C   UNL     1     -45.084  55.161 -60.993  1.00  0.00     0.002 A 
ENDBRANCH  11  13
ENDBRANCH   9  11
ENDBRANCH   6   9
ENDBRANCH   2   5
BRANCH   1  22
HETATM   22  C   UNL     1     -42.879  56.167 -50.689  1.00  0.00     0.227 C 
BRANCH  22  23
HETATM   23  N   UNL     1     -42.358  55.010 -51.405  1.00  0.00    -0.348 N 
HETATM   24  C   UNL     1     -41.067  54.571 -51.213  1.00  0.00     0.252 C 
HETATM   25  O   UNL     1     -40.329  55.086 -50.379  1.00  0.00    -0.268 OA
HETATM   26  H   UNL     1     -43.020  54.419 -51.889  1.00  0.00     0.163 HD
BRANCH  24  27
HETATM   27  C   UNL     1     -40.625  53.389 -52.003  1.00  0.00     0.032 A 
HETATM   28  C   UNL     1     -40.221  52.239 -51.311  1.00  0.00     0.024 A 
HETATM   29  C   UNL     1     -39.793  51.091 -52.000  1.00  0.00    -0.055 A 
HETATM   30  C   UNL     1     -39.744  51.111 -53.408  1.00  0.00    -0.056 A 
HETATM   31  C   UNL     1     -39.357  49.886 -51.212  1.00  0.00     0.049 C 
HETATM   32  C   UNL     1     -39.294  49.910 -54.195  1.00  0.00     0.049 C 
HETATM   33  C   UNL     1     -40.145  52.268 -54.093  1.00  0.00     0.008 A 
HETATM   34  C   UNL     1     -40.576  53.401 -53.400  1.00  0.00     0.017 A 
ENDBRANCH  24  27
ENDBRANCH  22  23
ENDBRANCH   1  22
TORSDOF 7
ENDMDL
MODEL 6
REMARK VINA RESULT:      -8.4      3.318     10.040
REMARK  7 active torsions:
REMARK  status: ('A' for Active; 'I' for Inactive)
REMARK    1  A    between atoms: C_6  and  C_7 
REMARK       I    between atoms: C_7  and  N_8 
REMARK    2  A    between atoms: N_8  and  C_9 
REMARK    3  A    between atoms: C_9  and  C_10 
REMARK       I    between atoms: C_10  and  N_11 
REMARK    4  A    between atoms: N_11  and  N_12 
REMARK       I    between atoms: N_12  and  C_13 
REMARK    5  A    between atoms: C_13  and  C_14 
REMARK    6  A    between atoms: C_14  and  N_15 
REMARK    7  A    between atoms: N_15  and  C_16 
ROOT
HETATM    1  C   UNL     1     -41.620  58.989 -54.162  1.00  0.00     0.253 C 
HETATM    2  N   UNL     1     -42.414  57.941 -53.738  1.00  0.00    -0.266 N 
HETATM    3  O   UNL     1     -40.524  59.238 -53.657  1.00  0.00    -0.270 OA
HETATM    4  H   UNL     1     -43.072  57.515 -54.402  1.00  0.00     0.190 HD
ENDROOT
BRANCH   2   5
HETATM    5  N   UNL     1     -41.893  57.086 -52.749  1.00  0.00    -0.266 N 
HETATM    6  C   UNL     1     -42.718  56.738 -51.693  1.00  0.00     0.258 C 
HETATM    7  O   UNL     1     -43.800  57.287 -51.489  1.00  0.00    -0.269 OA
HETATM    8  H   UNL     1     -41.149  56.449 -53.043  1.00  0.00     0.190 HD
BRANCH   6   9
HETATM    9  C   UNL     1     -42.133  55.632 -50.795  1.00  0.00     0.173 C 
HETATM   10  C   UNL     1     -43.005  54.380 -50.830  1.00  0.00     0.042 C 
BRANCH   9  11
HETATM   11  N   UNL     1     -40.789  55.272 -51.243  1.00  0.00    -0.356 N 
HETATM   12  H   UNL     1     -40.029  55.891 -50.986  1.00  0.00     0.162 HD
BRANCH  11  13
HETATM   13  C   UNL     1     -40.528  54.071 -51.794  1.00  0.00     0.168 A 
HETATM   14  S   UNL     1     -40.712  53.840 -53.486  1.00  0.00    -0.050 SA
HETATM   15  C   UNL     1     -40.267  52.188 -53.317  1.00  0.00     0.037 A 
HETATM   16  C   UNL     1     -39.981  51.935 -51.976  1.00  0.00     0.076 A 
HETATM   17  C   UNL     1     -40.180  51.185 -54.298  1.00  0.00     0.021 A 
HETATM   18  N   UNL     1     -40.113  53.022 -51.127  1.00  0.00    -0.223 NA
HETATM   19  C   UNL     1     -39.594  50.633 -51.598  1.00  0.00     0.033 A 
HETATM   20  C   UNL     1     -39.510  49.625 -52.565  1.00  0.00     0.002 A 
HETATM   21  C   UNL     1     -39.799  49.900 -53.897  1.00  0.00     0.002 A 
ENDBRANCH  11  13
ENDBRANCH   9  11
ENDBRANCH   6   9
ENDBRANCH   2   5
BRANCH   1  22
HETATM   22  C   UNL     1     -42.134  59.730 -55.400  1.00  0.00     0.227 C 
BRANCH  22  23
HETATM   23  N   UNL     1     -42.496  58.862 -56.511  1.00  0.00    -0.348 N 
HETATM   24  C   UNL     1     -43.779  58.384 -56.658  1.00  0.00     0.252 C 
HETATM   25  O   UNL     1     -44.684  58.728 -55.905  1.00  0.00    -0.268 OA
HETATM   26  H   UNL     1     -41.843  58.783 -57.279  1.00  0.00     0.163 HD
BRANCH  24  27
HETATM   27  C   UNL     1     -44.045  57.491 -57.820  1.00  0.00     0.032 A 
HETATM   28  C   UNL     1     -45.283  57.593 -58.467  1.00  0.00     0.024 A 
HETATM   29  C   UNL     1     -45.594  56.778 -59.569  1.00  0.00    -0.055 A 
HETATM   30  C   UNL     1     -44.654  55.825 -60.009  1.00  0.00    -0.056 A 
HETATM   31  C   UNL     1     -46.942  56.917 -60.223  1.00  0.00     0.049 C 
HETATM   32  C   UNL     1     -44.935  54.928 -61.184  1.00  0.00     0.049 C 
HETATM   33  C   UNL     1     -43.418  55.726 -59.352  1.00  0.00     0.008 A 
HETATM   34  C   UNL     1     -43.115  56.546 -58.262  1.00  0.00     0.017 A 
ENDBRANCH  24  27
ENDBRANCH  22  23
ENDBRANCH   1  22
TORSDOF 7
ENDMDL
MODEL 7
REMARK VINA RESULT:      -8.2      5.833      9.361
REMARK  7 active torsions:
REMARK  status: ('A' for Active; 'I' for Inactive)
REMARK    1  A    between atoms: C_6  and  C_7 
REMARK       I    between atoms: C_7  and  N_8 
REMARK    2  A    between atoms: N_8  and  C_9 
REMARK    3  A    between atoms: C_9  and  C_10 
REMARK       I    between atoms: C_10  and  N_11 
REMARK    4  A    between atoms: N_11  and  N_12 
REMARK       I    between atoms: N_12  and  C_13 
REMARK    5  A    between atoms: C_13  and  C_14 
REMARK    6  A    between atoms: C_14  and  N_15 
REMARK    7  A    between atoms: N_15  and  C_16 
ROOT
HETATM    1  C   UNL     1     -43.988  56.807 -54.451  1.00  0.00     0.253 C 
HETATM    2  N   UNL     1     -43.577  57.075 -53.160  1.00  0.00    -0.266 N 
HETATM    3  O   UNL     1     -45.014  57.289 -54.935  1.00  0.00    -0.270 OA
HETATM    4  H   UNL     1     -42.577  57.018 -52.935  1.00  0.00     0.190 HD
ENDROOT
BRANCH   2   5
HETATM    5  N   UNL     1     -44.326  58.006 -52.417  1.00  0.00    -0.266 N 
HETATM    6  C   UNL     1     -43.669  59.120 -51.922  1.00  0.00     0.258 C 
HETATM    7  O   UNL     1     -42.445  59.230 -51.943  1.00  0.00    -0.269 OA
HETATM    8  H   UNL     1     -45.326  58.058 -52.626  1.00  0.00     0.190 HD
BRANCH   6   9
HETATM    9  C   UNL     1     -44.617  60.176 -51.323  1.00  0.00     0.173 C 
HETATM   10  C   UNL     1     -46.005  60.084 -51.949  1.00  0.00     0.042 C 
BRANCH   9  11
HETATM   11  N   UNL     1     -44.748  59.980 -49.880  1.00  0.00    -0.356 N 
HETATM   12  H   UNL     1     -44.634  59.037 -49.524  1.00  0.00     0.162 HD
BRANCH  11  13
HETATM   13  C   UNL     1     -44.811  61.021 -49.029  1.00  0.00     0.168 A 
HETATM   14  S   UNL     1     -44.437  62.606 -49.575  1.00  0.00    -0.050 SA
HETATM   15  C   UNL     1     -44.698  63.222 -47.992  1.00  0.00     0.037 A 
HETATM   16  C   UNL     1     -45.082  62.171 -47.159  1.00  0.00     0.076 A 
HETATM   17  C   UNL     1     -44.570  64.539 -47.517  1.00  0.00     0.021 A 
HETATM   18  N   UNL     1     -45.162  60.930 -47.769  1.00  0.00    -0.223 NA
HETATM   19  C   UNL     1     -45.347  62.444 -45.801  1.00  0.00     0.033 A 
HETATM   20  C   UNL     1     -45.217  63.750 -45.316  1.00  0.00     0.002 A 
HETATM   21  C   UNL     1     -44.834  64.782 -46.165  1.00  0.00     0.002 A 
ENDBRANCH  11  13
ENDBRANCH   9  11
ENDBRANCH   6   9
ENDBRANCH   2   5
BRANCH   1  22
HETATM   22  C   UNL     1     -43.005  55.981 -55.285  1.00  0.00     0.227 C 
BRANCH  22  23
HETATM   23  N   UNL     1     -42.435  54.840 -54.583  1.00  0.00    -0.348 N 
HETATM   24  C   UNL     1     -41.221  54.929 -53.939  1.00  0.00     0.252 C 
HETATM   25  O   UNL     1     -40.608  55.988 -53.864  1.00  0.00    -0.268 OA
HETATM   26  H   UNL     1     -43.037  54.047 -54.407  1.00  0.00     0.163 HD
BRANCH  24  27
HETATM   27  C   UNL     1     -40.718  53.701 -53.262  1.00  0.00     0.032 A 
HETATM   28  C   UNL     1     -40.441  52.574 -54.047  1.00  0.00     0.024 A 
HETATM   29  C   UNL     1     -39.965  51.386 -53.468  1.00  0.00    -0.055 A 
HETATM   30  C   UNL     1     -39.792  51.322 -52.071  1.00  0.00    -0.056 A 
HETATM   31  C   UNL     1     -39.694  50.199 -54.352  1.00  0.00     0.049 C 
HETATM   32  C   UNL     1     -39.285  50.074 -51.398  1.00  0.00     0.049 C 
HETATM   33  C   UNL     1     -40.077  52.453 -51.291  1.00  0.00     0.008 A 
HETATM   34  C   UNL     1     -40.542  53.632 -51.877  1.00  0.00     0.017 A 
ENDBRANCH  24  27
ENDBRANCH  22  23
ENDBRANCH   1  22
TORSDOF 7
ENDMDL
MODEL 8
REMARK VINA RESULT:      -8.2      2.721      4.265
REMARK  7 active torsions:
REMARK  status: ('A' for Active; 'I' for Inactive)
REMARK    1  A    between atoms: C_6  and  C_7 
REMARK       I    between atoms: C_7  and  N_8 
REMARK    2  A    between atoms: N_8  and  C_9 
REMARK    3  A    between atoms: C_9  and  C_10 
REMARK       I    between atoms: C_10  and  N_11 
REMARK    4  A    between atoms: N_11  and  N_12 
REMARK       I    between atoms: N_12  and  C_13 
REMARK    5  A    between atoms: C_13  and  C_14 
REMARK    6  A    between atoms: C_14  and  N_15 
REMARK    7  A    between atoms: N_15  and  C_16 
ROOT
HETATM    1  C   UNL     1     -44.485  58.223 -55.121  1.00  0.00     0.253 C 
HETATM    2  N   UNL     1     -43.960  59.495 -55.002  1.00  0.00    -0.266 N 
HETATM    3  O   UNL     1     -44.828  57.743 -56.203  1.00  0.00    -0.270 OA
HETATM    4  H   UNL     1     -43.328  59.702 -54.220  1.00  0.00     0.190 HD
ENDROOT
BRANCH   2   5
HETATM    5  N   UNL     1     -43.736  60.221 -56.187  1.00  0.00    -0.266 N 
HETATM    6  C   UNL     1     -42.431  60.349 -56.632  1.00  0.00     0.258 C 
HETATM    7  O   UNL     1     -41.463  60.026 -55.946  1.00  0.00    -0.269 OA
HETATM    8  H   UNL     1     -44.506  60.245 -56.860  1.00  0.00     0.190 HD
BRANCH   6   9
HETATM    9  C   UNL     1     -42.320  60.962 -58.040  1.00  0.00     0.173 C 
HETATM   10  C   UNL     1     -41.281  62.081 -58.070  1.00  0.00     0.042 C 
BRANCH   9  11
HETATM   11  N   UNL     1     -41.925  59.941 -59.009  1.00  0.00    -0.356 N 
HETATM   12  H   UNL     1     -40.962  59.947 -59.328  1.00  0.00     0.162 HD
BRANCH  11  13
HETATM   13  C   UNL     1     -42.733  58.909 -59.315  1.00  0.00     0.168 A 
HETATM   14  S   UNL     1     -44.347  59.198 -59.827  1.00  0.00    -0.050 SA
HETATM   15  C   UNL     1     -44.625  57.506 -59.937  1.00  0.00     0.037 A 
HETATM   16  C   UNL     1     -43.450  56.835 -59.599  1.00  0.00     0.076 A 
HETATM   17  C   UNL     1     -45.798  56.818 -60.291  1.00  0.00     0.021 A 
HETATM   18  N   UNL     1     -42.378  57.648 -59.269  1.00  0.00    -0.223 NA
HETATM   19  C   UNL     1     -43.445  55.425 -59.615  1.00  0.00     0.033 A 
HETATM   20  C   UNL     1     -44.608  54.730 -59.961  1.00  0.00     0.002 A 
HETATM   21  C   UNL     1     -45.769  55.419 -60.296  1.00  0.00     0.002 A 
ENDBRANCH  11  13
ENDBRANCH   9  11
ENDBRANCH   6   9
ENDBRANCH   2   5
BRANCH   1  22
HETATM   22  C   UNL     1     -44.478  57.398 -53.830  1.00  0.00     0.227 C 
BRANCH  22  23
HETATM   23  N   UNL     1     -43.654  56.198 -53.890  1.00  0.00    -0.348 N 
HETATM   24  C   UNL     1     -42.410  56.154 -53.302  1.00  0.00     0.252 C 
HETATM   25  O   UNL     1     -41.977  57.092 -52.641  1.00  0.00    -0.268 OA
HETATM   26  H   UNL     1     -44.095  55.340 -54.194  1.00  0.00     0.163 HD
BRANCH  24  27
HETATM   27  C   UNL     1     -41.640  54.885 -53.431  1.00  0.00     0.032 A 
HETATM   28  C   UNL     1     -41.257  54.218 -52.261  1.00  0.00     0.024 A 
HETATM   29  C   UNL     1     -40.528  53.017 -52.317  1.00  0.00    -0.055 A 
HETATM   30  C   UNL     1     -40.156  52.495 -53.572  1.00  0.00    -0.056 A 
HETATM   31  C   UNL     1     -40.129  52.344 -51.032  1.00  0.00     0.049 C 
HETATM   32  C   UNL     1     -39.376  51.213 -53.689  1.00  0.00     0.049 C 
HETATM   33  C   UNL     1     -40.539  53.173 -54.739  1.00  0.00     0.008 A 
HETATM   34  C   UNL     1     -41.269  54.362 -54.673  1.00  0.00     0.017 A 
ENDBRANCH  24  27
ENDBRANCH  22  23
ENDBRANCH   1  22
TORSDOF 7
ENDMDL
MODEL 9
REMARK VINA RESULT:      -8.0      4.179     10.523
REMARK  7 active torsions:
REMARK  status: ('A' for Active; 'I' for Inactive)
REMARK    1  A    between atoms: C_6  and  C_7 
REMARK       I    between atoms: C_7  and  N_8 
REMARK    2  A    between atoms: N_8  and  C_9 
REMARK    3  A    between atoms: C_9  and  C_10 
REMARK       I    between atoms: C_10  and  N_11 
REMARK    4  A    between atoms: N_11  and  N_12 
REMARK       I    between atoms: N_12  and  C_13 
REMARK    5  A    between atoms: C_13  and  C_14 
REMARK    6  A    between atoms: C_14  and  N_15 
REMARK    7  A    between atoms: N_15  and  C_16 
ROOT
HETATM    1  C   UNL     1     -42.820  55.704 -56.861  1.00  0.00     0.253 C 
HETATM    2  N   UNL     1     -41.936  56.610 -56.308  1.00  0.00    -0.266 N 
HETATM    3  O   UNL     1     -43.080  54.622 -56.332  1.00  0.00    -0.270 OA
HETATM    4  H   UNL     1     -42.050  57.609 -56.519  1.00  0.00     0.190 HD
ENDROOT
BRANCH   2   5
HETATM    5  N   UNL     1     -41.390  56.303 -55.048  1.00  0.00    -0.266 N 
HETATM    6  C   UNL     1     -41.593  57.203 -54.016  1.00  0.00     0.258 C 
HETATM    7  O   UNL     1     -42.057  58.327 -54.200  1.00  0.00    -0.269 OA
HETATM    8  H   UNL     1     -41.260  55.310 -54.837  1.00  0.00     0.190 HD
BRANCH   6   9
HETATM    9  C   UNL     1     -41.153  56.669 -52.640  1.00  0.00     0.173 C 
HETATM   10  C   UNL     1     -41.393  57.709 -51.548  1.00  0.00     0.042 C 
BRANCH   9  11
HETATM   11  N   UNL     1     -41.902  55.461 -52.300  1.00  0.00    -0.356 N 
HETATM   12  H   UNL     1     -42.893  55.565 -52.106  1.00  0.00     0.162 HD
BRANCH  11  13
HETATM   13  C   UNL     1     -41.364  54.235 -52.436  1.00  0.00     0.168 A 
HETATM   14  S   UNL     1     -40.655  53.449 -51.083  1.00  0.00    -0.050 SA
HETATM   15  C   UNL     1     -40.225  52.112 -52.074  1.00  0.00     0.037 A 
HETATM   16  C   UNL     1     -40.680  52.350 -53.371  1.00  0.00     0.076 A 
HETATM   17  C   UNL     1     -39.531  50.938 -51.733  1.00  0.00     0.021 A 
HETATM   18  N   UNL     1     -41.344  53.552 -53.554  1.00  0.00    -0.223 NA
HETATM   19  C   UNL     1     -40.433  51.381 -54.365  1.00  0.00     0.033 A 
HETATM   20  C   UNL     1     -39.739  50.211 -54.038  1.00  0.00     0.002 A 
HETATM   21  C   UNL     1     -39.295  49.995 -52.738  1.00  0.00     0.002 A 
ENDBRANCH  11  13
ENDBRANCH   9  11
ENDBRANCH   6   9
ENDBRANCH   2   5
BRANCH   1  22
HETATM   22  C   UNL     1     -43.562  56.201 -58.106  1.00  0.00     0.227 C 
BRANCH  22  23
HETATM   23  N   UNL     1     -43.173  57.535 -58.542  1.00  0.00    -0.348 N 
HETATM   24  C   UNL     1     -42.441  57.727 -59.694  1.00  0.00     0.252 C 
HETATM   25  O   UNL     1     -42.154  56.794 -60.436  1.00  0.00    -0.268 OA
HETATM   26  H   UNL     1     -43.620  58.325 -58.097  1.00  0.00     0.163 HD
BRANCH  24  27
HETATM   27  C   UNL     1     -42.082  59.128 -60.046  1.00  0.00     0.032 A 
HETATM   28  C   UNL     1     -41.800  60.024 -59.006  1.00  0.00     0.024 A 
HETATM   29  C   UNL     1     -41.455  61.361 -59.274  1.00  0.00    -0.055 A 
HETATM   30  C   UNL     1     -41.422  61.809 -60.609  1.00  0.00    -0.056 A 
HETATM   31  C   UNL     1     -41.173  62.287 -58.123  1.00  0.00     0.049 C 
HETATM   32  C   UNL     1     -41.059  63.229 -60.952  1.00  0.00     0.049 C 
HETATM   33  C   UNL     1     -41.711  60.907 -61.644  1.00  0.00     0.008 A 
HETATM   34  C   UNL     1     -42.045  59.579 -61.369  1.00  0.00     0.017 A 
ENDBRANCH  24  27
ENDBRANCH  22  23
ENDBRANCH   1  22
TORSDOF 7
ENDMDL
MODEL 10
REMARK VINA RESULT:      -7.9     16.424     19.781
REMARK  7 active torsions:
REMARK  status: ('A' for Active; 'I' for Inactive)
REMARK    1  A    between atoms: C_6  and  C_7 
REMARK       I    between atoms: C_7  and  N_8 
REMARK    2  A    between atoms: N_8  and  C_9 
REMARK    3  A    between atoms: C_9  and  C_10 
REMARK       I    between atoms: C_10  and  N_11 
REMARK    4  A    between atoms: N_11  and  N_12 
REMARK       I    between atoms: N_12  and  C_13 
REMARK    5  A    between atoms: C_13  and  C_14 
REMARK    6  A    between atoms: C_14  and  N_15 
REMARK    7  A    between atoms: N_15  and  C_16 
ROOT
HETATM    1  C   UNL     1     -36.225  41.770 -52.262  1.00  0.00     0.253 C 
HETATM    2  N   UNL     1     -35.826  40.984 -51.199  1.00  0.00    -0.266 N 
HETATM    3  O   UNL     1     -35.488  42.610 -52.781  1.00  0.00    -0.270 OA
HETATM    4  H   UNL     1     -36.262  40.064 -51.068  1.00  0.00     0.190 HD
ENDROOT
BRANCH   2   5
HETATM    5  N   UNL     1     -34.493  41.103 -50.764  1.00  0.00    -0.266 N 
HETATM    6  C   UNL     1     -33.880  39.980 -50.234  1.00  0.00     0.258 C 
HETATM    7  O   UNL     1     -34.502  38.956 -49.956  1.00  0.00    -0.269 OA
HETATM    8  H   UNL     1     -33.926  41.821 -51.222  1.00  0.00     0.190 HD
BRANCH   6   9
HETATM    9  C   UNL     1     -32.368  40.157 -50.000  1.00  0.00     0.173 C 
HETATM   10  C   UNL     1     -31.946  39.547 -48.667  1.00  0.00     0.042 C 
BRANCH   9  11
HETATM   11  N   UNL     1     -31.610  39.505 -51.067  1.00  0.00    -0.356 N 
HETATM   12  H   UNL     1     -30.772  38.999 -50.802  1.00  0.00     0.162 HD
BRANCH  11  13
HETATM   13  C   UNL     1     -32.099  39.398 -52.317  1.00  0.00     0.168 A 
HETATM   14  S   UNL     1     -32.309  37.850 -53.031  1.00  0.00    -0.050 SA
HETATM   15  C   UNL     1     -32.864  38.586 -54.482  1.00  0.00     0.037 A 
HETATM   16  C   UNL     1     -32.875  39.970 -54.308  1.00  0.00     0.076 A 
HETATM   17  C   UNL     1     -33.257  37.985 -55.691  1.00  0.00     0.021 A 
HETATM   18  N   UNL     1     -32.458  40.413 -53.064  1.00  0.00    -0.223 NA
HETATM   19  C   UNL     1     -33.294  40.785 -55.380  1.00  0.00     0.033 A 
HETATM   20  C   UNL     1     -33.682  40.199 -56.589  1.00  0.00     0.002 A 
HETATM   21  C   UNL     1     -33.663  38.816 -56.740  1.00  0.00     0.002 A 
ENDBRANCH  11  13
ENDBRANCH   9  11
ENDBRANCH   6   9
ENDBRANCH   2   5
BRANCH   1  22
HETATM   22  C   UNL     1     -37.600  41.424 -52.842  1.00  0.00     0.227 C 
BRANCH  22  23
HETATM   23  N   UNL     1     -37.671  41.486 -54.295  1.00  0.00    -0.348 N 
HETATM   24  C   UNL     1     -37.187  40.463 -55.080  1.00  0.00     0.252 C 
HETATM   25  O   UNL     1     -36.747  39.428 -54.590  1.00  0.00    -0.268 OA
HETATM   26  H   UNL     1     -38.261  42.196 -54.707  1.00  0.00     0.163 HD
BRANCH  24  27
HETATM   27  C   UNL     1     -37.294  40.629 -56.556  1.00  0.00     0.032 A 
HETATM   28  C   UNL     1     -37.745  39.543 -57.317  1.00  0.00     0.024 A 
HETATM   29  C   UNL     1     -37.867  39.636 -58.714  1.00  0.00    -0.055 A 
HETATM   30  C   UNL     1     -37.500  40.834 -59.359  1.00  0.00    -0.056 A 
HETATM   31  C   UNL     1     -38.345  38.438 -59.488  1.00  0.00     0.049 C 
HETATM   32  C   UNL     1     -37.610  40.989 -60.852  1.00  0.00     0.049 C 
HETATM   33  C   UNL     1     -37.043  41.916 -58.590  1.00  0.00     0.008 A 
HETATM   34  C   UNL     1     -36.933  41.816 -57.201  1.00  0.00     0.017 A 
ENDBRANCH  24  27
ENDBRANCH  22  23
ENDBRANCH   1  22
TORSDOF 7
ENDMDL
