MODEL 1
REMARK VINA RESULT:      -7.4      0.000      0.000
REMARK  6 active torsions:
REMARK  status: ('A' for Active; 'I' for Inactive)
REMARK    1  A    between atoms: C_2  and  C_3 
REMARK    2  A    between atoms: C_13  and  C_14 
REMARK       I    between atoms: C_14  and  N_15 
REMARK    3  A    between atoms: N_15  and  C_16 
REMARK    4  A    between atoms: C_16  and  C_17 
REMARK    5  A    between atoms: C_17  and  C_18 
REMARK    6  A    between atoms: C_18  and  C_19 
ROOT
HETATM    1  C   UNL     1     -43.371  55.838 -54.979  1.00  0.00     0.251 C 
HETATM    2  N   UNL     1     -43.074  56.589 -56.097  1.00  0.00    -0.357 N 
HETATM    3  O   UNL     1     -44.418  55.950 -54.352  1.00  0.00    -0.268 OA
HETATM    4  H   UNL     1     -42.140  56.581 -56.479  1.00  0.00     0.162 HD
ENDROOT
BRANCH   1   5
HETATM    5  C   UNL     1     -42.329  54.879 -54.509  1.00  0.00     0.032 A 
HETATM    6  C   UNL     1     -42.411  54.196 -53.292  1.00  0.00     0.017 A 
HETATM    7  C   UNL     1     -41.411  53.285 -52.914  1.00  0.00     0.008 A 
HETATM    8  C   UNL     1     -40.297  53.055 -53.732  1.00  0.00    -0.052 A 
HETATM    9  C   UNL     1     -40.219  53.760 -54.947  1.00  0.00     0.008 A 
HETATM   10  C   UNL     1     -41.219  54.660 -55.328  1.00  0.00     0.017 A 
BRANCH   8  11
HETATM   11  C   UNL     1     -39.177  52.078 -53.394  1.00  0.00     0.044 C 
HETATM   12  C   UNL     1     -39.068  51.740 -51.897  1.00  0.00     0.241 C 
HETATM   13  N   UNL     1     -39.969  50.613 -51.500  1.00  0.00    -0.074 N 
HETATM   14  H   UNL     1     -40.947  50.927 -51.517  1.00  0.00     0.277 HD
HETATM   15  H   UNL     1     -39.784  50.382 -50.514  1.00  0.00     0.277 HD
HETATM   16  C   UNL     1     -39.807  49.376 -52.317  1.00  0.00     0.232 C 
HETATM   17  C   UNL     1     -40.069  49.693 -53.779  1.00  0.00     0.028 C 
HETATM   18  C   UNL     1     -39.177  50.824 -54.286  1.00  0.00     0.013 C 
ENDBRANCH   8  11
ENDBRANCH   1   5
BRANCH   2  19
HETATM   19  C   UNL     1     -43.964  57.638 -56.563  1.00  0.00     0.123 C 
BRANCH  19  20
HETATM   20  C   UNL     1     -43.401  58.391 -57.769  1.00  0.00     0.026 C 
BRANCH  20  21
HETATM   21  C   UNL     1     -42.686  57.455 -58.746  1.00  0.00     0.061 C 
BRANCH  21  22
HETATM   22  C   UNL     1     -43.607  56.502 -59.435  1.00  0.00     0.044 A 
HETATM   23  N   UNL     1     -43.766  55.237 -58.893  1.00  0.00    -0.229 NA
HETATM   24  C   UNL     1     -44.570  54.519 -59.636  1.00  0.00     0.164 A 
HETATM   25  N   UNL     1     -44.900  53.251 -59.347  1.00  0.00    -0.378 N 
HETATM   26  S   UNL     1     -45.201  55.316 -61.019  1.00  0.00    -0.062 SA
HETATM   27  H   UNL     1     -44.722  52.960 -58.392  1.00  0.00     0.158 HD
HETATM   28  H   UNL     1     -45.759  52.885 -59.739  1.00  0.00     0.158 HD
HETATM   29  C   UNL     1     -44.312  56.720 -60.603  1.00  0.00     0.080 A 
ENDBRANCH  21  22
ENDBRANCH  20  21
ENDBRANCH  19  20
ENDBRANCH   2  19
TORSDOF 6
ENDMDL
MODEL 2
REMARK VINA RESULT:      -7.3      2.742      8.046
REMARK  6 active torsions:
REMARK  status: ('A' for Active; 'I' for Inactive)
REMARK    1  A    between atoms: C_2  and  C_3 
REMARK    2  A    between atoms: C_13  and  C_14 
REMARK       I    between atoms: C_14  and  N_15 
REMARK    3  A    between atoms: N_15  and  C_16 
REMARK    4  A    between atoms: C_16  and  C_17 
REMARK    5  A    between atoms: C_17  and  C_18 
REMARK    6  A    between atoms: C_18  and  C_19 
ROOT
HETATM    1  C   UNL     1     -42.400  56.407 -53.686  1.00  0.00     0.251 C 
HETATM    2  N   UNL     1     -42.797  55.320 -52.937  1.00  0.00    -0.357 N 
HETATM    3  O   UNL     1     -41.906  57.416 -53.197  1.00  0.00    -0.268 OA
HETATM    4  H   UNL     1     -43.346  54.587 -53.359  1.00  0.00     0.162 HD
ENDROOT
BRANCH   1   5
HETATM    5  C   UNL     1     -42.635  56.339 -55.158  1.00  0.00     0.032 A 
HETATM    6  C   UNL     1     -42.585  57.459 -55.994  1.00  0.00     0.017 A 
HETATM    7  C   UNL     1     -42.790  57.329 -57.377  1.00  0.00     0.008 A 
HETATM    8  C   UNL     1     -43.071  56.083 -57.952  1.00  0.00    -0.052 A 
HETATM    9  C   UNL     1     -43.133  54.966 -57.098  1.00  0.00     0.008 A 
HETATM   10  C   UNL     1     -42.920  55.093 -55.722  1.00  0.00     0.017 A 
BRANCH   8  11
HETATM   11  C   UNL     1     -43.296  55.862 -59.443  1.00  0.00     0.044 C 
HETATM   12  C   UNL     1     -44.222  54.678 -59.770  1.00  0.00     0.241 C 
HETATM   13  N   UNL     1     -45.668  55.065 -59.760  1.00  0.00    -0.074 N 
HETATM   14  H   UNL     1     -45.975  55.239 -58.796  1.00  0.00     0.277 HD
HETATM   15  H   UNL     1     -46.222  54.254 -60.070  1.00  0.00     0.277 HD
HETATM   16  C   UNL     1     -46.001  56.230 -60.629  1.00  0.00     0.232 C 
HETATM   17  C   UNL     1     -45.190  57.437 -60.194  1.00  0.00     0.028 C 
HETATM   18  C   UNL     1     -43.691  57.147 -60.192  1.00  0.00     0.013 C 
ENDBRANCH   8  11
ENDBRANCH   1   5
BRANCH   2  19
HETATM   19  C   UNL     1     -42.730  55.334 -51.486  1.00  0.00     0.123 C 
BRANCH  19  20
HETATM   20  C   UNL     1     -41.975  54.130 -50.922  1.00  0.00     0.026 C 
BRANCH  20  21
HETATM   21  C   UNL     1     -40.552  54.036 -51.477  1.00  0.00     0.061 C 
BRANCH  21  22
HETATM   22  C   UNL     1     -40.211  52.683 -52.008  1.00  0.00     0.044 A 
HETATM   23  N   UNL     1     -39.891  51.686 -51.101  1.00  0.00    -0.229 NA
HETATM   24  C   UNL     1     -39.580  50.579 -51.729  1.00  0.00     0.164 A 
HETATM   25  N   UNL     1     -39.227  49.450 -51.096  1.00  0.00    -0.378 N 
HETATM   26  S   UNL     1     -39.670  50.656 -53.441  1.00  0.00    -0.062 SA
HETATM   27  H   UNL     1     -39.472  49.406 -50.113  1.00  0.00     0.158 HD
HETATM   28  H   UNL     1     -39.341  48.575 -51.592  1.00  0.00     0.158 HD
HETATM   29  C   UNL     1     -40.137  52.300 -53.334  1.00  0.00     0.080 A 
ENDBRANCH  21  22
ENDBRANCH  20  21
ENDBRANCH  19  20
ENDBRANCH   2  19
TORSDOF 6
ENDMDL
MODEL 3
REMARK VINA RESULT:      -7.3      1.769      2.197
REMARK  6 active torsions:
REMARK  status: ('A' for Active; 'I' for Inactive)
REMARK    1  A    between atoms: C_2  and  C_3 
REMARK    2  A    between atoms: C_13  and  C_14 
REMARK       I    between atoms: C_14  and  N_15 
REMARK    3  A    between atoms: N_15  and  C_16 
REMARK    4  A    between atoms: C_16  and  C_17 
REMARK    5  A    between atoms: C_17  and  C_18 
REMARK    6  A    between atoms: C_18  and  C_19 
ROOT
HETATM    1  C   UNL     1     -43.717  56.000 -53.364  1.00  0.00     0.251 C 
HETATM    2  N   UNL     1     -44.425  56.222 -54.526  1.00  0.00    -0.357 N 
HETATM    3  O   UNL     1     -43.918  56.620 -52.326  1.00  0.00    -0.268 OA
HETATM    4  H   UNL     1     -44.117  55.810 -55.393  1.00  0.00     0.162 HD
ENDROOT
BRANCH   1   5
HETATM    5  C   UNL     1     -42.631  54.978 -53.415  1.00  0.00     0.032 A 
HETATM    6  C   UNL     1     -42.453  54.105 -54.493  1.00  0.00     0.017 A 
HETATM    7  C   UNL     1     -41.397  53.180 -54.496  1.00  0.00     0.008 A 
HETATM    8  C   UNL     1     -40.511  53.090 -53.414  1.00  0.00    -0.052 A 
HETATM    9  C   UNL     1     -40.711  53.964 -52.330  1.00  0.00     0.008 A 
HETATM   10  C   UNL     1     -41.756  54.893 -52.330  1.00  0.00     0.017 A 
BRANCH   8  11
HETATM   11  C   UNL     1     -39.339  52.119 -53.349  1.00  0.00     0.044 C 
HETATM   12  C   UNL     1     -38.965  51.678 -51.923  1.00  0.00     0.241 C 
HETATM   13  N   UNL     1     -39.770  50.505 -51.459  1.00  0.00    -0.074 N 
HETATM   14  H   UNL     1     -40.739  50.797 -51.282  1.00  0.00     0.277 HD
HETATM   15  H   UNL     1     -39.413  50.211 -50.540  1.00  0.00     0.277 HD
HETATM   16  C   UNL     1     -39.741  49.333 -52.380  1.00  0.00     0.232 C 
HETATM   17  C   UNL     1     -40.260  49.747 -53.746  1.00  0.00     0.028 C 
HETATM   18  C   UNL     1     -39.482  50.931 -54.317  1.00  0.00     0.013 C 
ENDBRANCH   8  11
ENDBRANCH   1   5
BRANCH   2  19
HETATM   19  C   UNL     1     -45.416  57.280 -54.620  1.00  0.00     0.123 C 
BRANCH  19  20
HETATM   20  C   UNL     1     -45.258  58.120 -55.888  1.00  0.00     0.026 C 
BRANCH  20  21
HETATM   21  C   UNL     1     -43.807  58.159 -56.372  1.00  0.00     0.061 C 
BRANCH  21  22
HETATM   22  C   UNL     1     -43.636  57.675 -57.774  1.00  0.00     0.044 A 
HETATM   23  N   UNL     1     -42.351  57.595 -58.287  1.00  0.00    -0.229 NA
HETATM   24  C   UNL     1     -42.380  57.193 -59.533  1.00  0.00     0.164 A 
HETATM   25  N   UNL     1     -41.276  57.030 -60.278  1.00  0.00    -0.378 N 
HETATM   26  S   UNL     1     -43.943  56.867 -60.164  1.00  0.00    -0.062 SA
HETATM   27  H   UNL     1     -40.406  56.966 -59.760  1.00  0.00     0.158 HD
HETATM   28  H   UNL     1     -41.332  56.408 -61.074  1.00  0.00     0.158 HD
HETATM   29  C   UNL     1     -44.633  57.320 -58.663  1.00  0.00     0.080 A 
ENDBRANCH  21  22
ENDBRANCH  20  21
ENDBRANCH  19  20
ENDBRANCH   2  19
TORSDOF 6
ENDMDL
MODEL 4
REMARK VINA RESULT:      -7.3     14.592     16.813
REMARK  6 active torsions:
REMARK  status: ('A' for Active; 'I' for Inactive)
REMARK    1  A    between atoms: C_2  and  C_3 
REMARK    2  A    between atoms: C_13  and  C_14 
REMARK       I    between atoms: C_14  and  N_15 
REMARK    3  A    between atoms: N_15  and  C_16 
REMARK    4  A    between atoms: C_16  and  C_17 
REMARK    5  A    between atoms: C_17  and  C_18 
REMARK    6  A    between atoms: C_18  and  C_19 
ROOT
HETATM    1  C   UNL     1     -32.832  40.573 -55.019  1.00  0.00     0.251 C 
HETATM    2  N   UNL     1     -33.113  40.559 -53.669  1.00  0.00    -0.357 N 
HETATM    3  O   UNL     1     -31.693  40.524 -55.470  1.00  0.00    -0.268 OA
HETATM    4  H   UNL     1     -34.044  40.767 -53.343  1.00  0.00     0.162 HD
ENDROOT
BRANCH   1   5
HETATM    5  C   UNL     1     -33.990  40.695 -55.952  1.00  0.00     0.032 A 
HETATM    6  C   UNL     1     -34.311  39.723 -56.904  1.00  0.00     0.017 A 
HETATM    7  C   UNL     1     -35.429  39.882 -57.738  1.00  0.00     0.008 A 
HETATM    8  C   UNL     1     -36.237  41.024 -57.655  1.00  0.00    -0.052 A 
HETATM    9  C   UNL     1     -35.894  42.001 -56.703  1.00  0.00     0.008 A 
HETATM   10  C   UNL     1     -34.786  41.840 -55.865  1.00  0.00     0.017 A 
BRANCH   8  11
HETATM   11  C   UNL     1     -37.469  41.262 -58.520  1.00  0.00     0.044 C 
HETATM   12  C   UNL     1     -37.157  41.495 -60.008  1.00  0.00     0.241 C 
HETATM   13  N   UNL     1     -37.051  40.215 -60.776  1.00  0.00    -0.074 N 
HETATM   14  H   UNL     1     -36.189  39.722 -60.513  1.00  0.00     0.277 HD
HETATM   15  H   UNL     1     -36.929  40.444 -61.772  1.00  0.00     0.277 HD
HETATM   16  C   UNL     1     -38.228  39.310 -60.635  1.00  0.00     0.232 C 
HETATM   17  C   UNL     1     -38.431  38.964 -59.171  1.00  0.00     0.028 C 
HETATM   18  C   UNL     1     -38.574  40.212 -58.303  1.00  0.00     0.013 C 
ENDBRANCH   8  11
ENDBRANCH   1   5
BRANCH   2  19
HETATM   19  C   UNL     1     -32.054  40.570 -52.675  1.00  0.00     0.123 C 
BRANCH  19  20
HETATM   20  C   UNL     1     -32.569  40.270 -51.267  1.00  0.00     0.026 C 
BRANCH  20  21
HETATM   21  C   UNL     1     -33.619  41.285 -50.813  1.00  0.00     0.061 C 
BRANCH  21  22
HETATM   22  C   UNL     1     -35.004  40.943 -51.252  1.00  0.00     0.044 A 
HETATM   23  N   UNL     1     -35.572  41.692 -52.271  1.00  0.00    -0.229 NA
HETATM   24  C   UNL     1     -36.796  41.290 -52.507  1.00  0.00     0.164 A 
HETATM   25  N   UNL     1     -37.582  41.842 -53.444  1.00  0.00    -0.378 N 
HETATM   26  S   UNL     1     -37.339  39.980 -51.540  1.00  0.00    -0.062 SA
HETATM   27  H   UNL     1     -37.103  42.397 -54.144  1.00  0.00     0.158 HD
HETATM   28  H   UNL     1     -38.346  41.286 -53.806  1.00  0.00     0.158 HD
HETATM   29  C   UNL     1     -35.830  39.966 -50.729  1.00  0.00     0.080 A 
ENDBRANCH  21  22
ENDBRANCH  20  21
ENDBRANCH  19  20
ENDBRANCH   2  19
TORSDOF 6
ENDMDL
MODEL 5
REMARK VINA RESULT:      -7.2      3.607      7.793
REMARK  6 active torsions:
REMARK  status: ('A' for Active; 'I' for Inactive)
REMARK    1  A    between atoms: C_2  and  C_3 
REMARK    2  A    between atoms: C_13  and  C_14 
REMARK       I    between atoms: C_14  and  N_15 
REMARK    3  A    between atoms: N_15  and  C_16 
REMARK    4  A    between atoms: C_16  and  C_17 
REMARK    5  A    between atoms: C_17  and  C_18 
REMARK    6  A    between atoms: C_18  and  C_19 
ROOT
HETATM    1  C   UNL     1     -40.742  53.531 -53.262  1.00  0.00     0.251 C 
HETATM    2  N   UNL     1     -40.888  53.882 -51.936  1.00  0.00    -0.357 N 
HETATM    3  O   UNL     1     -40.078  52.570 -53.634  1.00  0.00    -0.268 OA
HETATM    4  H   UNL     1     -41.302  54.768 -51.690  1.00  0.00     0.162 HD
ENDROOT
BRANCH   1   5
HETATM    5  C   UNL     1     -41.402  54.408 -54.273  1.00  0.00     0.032 A 
HETATM    6  C   UNL     1     -41.106  55.767 -54.416  1.00  0.00     0.017 A 
HETATM    7  C   UNL     1     -41.743  56.536 -55.403  1.00  0.00     0.008 A 
HETATM    8  C   UNL     1     -42.703  55.972 -56.252  1.00  0.00    -0.052 A 
HETATM    9  C   UNL     1     -43.002  54.607 -56.087  1.00  0.00     0.008 A 
HETATM   10  C   UNL     1     -42.362  53.837 -55.111  1.00  0.00     0.017 A 
BRANCH   8  11
HETATM   11  C   UNL     1     -43.429  56.740 -57.350  1.00  0.00     0.044 C 
HETATM   12  C   UNL     1     -42.786  58.091 -57.703  1.00  0.00     0.241 C 
HETATM   13  N   UNL     1     -41.698  57.957 -58.723  1.00  0.00    -0.074 N 
HETATM   14  H   UNL     1     -40.880  57.502 -58.300  1.00  0.00     0.277 HD
HETATM   15  H   UNL     1     -41.373  58.900 -58.975  1.00  0.00     0.277 HD
HETATM   16  C   UNL     1     -42.104  57.244 -59.968  1.00  0.00     0.232 C 
HETATM   17  C   UNL     1     -42.595  55.850 -59.618  1.00  0.00     0.028 C 
HETATM   18  C   UNL     1     -43.727  55.883 -58.594  1.00  0.00     0.013 C 
ENDBRANCH   8  11
ENDBRANCH   1   5
BRANCH   2  19
HETATM   19  C   UNL     1     -40.185  53.172 -50.882  1.00  0.00     0.123 C 
BRANCH  19  20
HETATM   20  C   UNL     1     -39.794  54.085 -49.720  1.00  0.00     0.026 C 
BRANCH  20  21
HETATM   21  C   UNL     1     -41.013  54.760 -49.088  1.00  0.00     0.061 C 
BRANCH  21  22
HETATM   22  C   UNL     1     -41.607  55.832 -49.942  1.00  0.00     0.044 A 
HETATM   23  N   UNL     1     -42.869  55.620 -50.475  1.00  0.00    -0.229 NA
HETATM   24  C   UNL     1     -43.223  56.632 -51.226  1.00  0.00     0.164 A 
HETATM   25  N   UNL     1     -44.399  56.692 -51.870  1.00  0.00    -0.378 N 
HETATM   26  S   UNL     1     -42.081  57.909 -51.328  1.00  0.00    -0.062 SA
HETATM   27  H   UNL     1     -45.112  56.053 -51.537  1.00  0.00     0.158 HD
HETATM   28  H   UNL     1     -44.749  57.606 -52.130  1.00  0.00     0.158 HD
HETATM   29  C   UNL     1     -41.022  57.029 -50.308  1.00  0.00     0.080 A 
ENDBRANCH  21  22
ENDBRANCH  20  21
ENDBRANCH  19  20
ENDBRANCH   2  19
TORSDOF 6
ENDMDL
MODEL 6
REMARK VINA RESULT:      -7.1     14.306     15.421
REMARK  6 active torsions:
REMARK  status: ('A' for Active; 'I' for Inactive)
REMARK    1  A    between atoms: C_2  and  C_3 
REMARK    2  A    between atoms: C_13  and  C_14 
REMARK       I    between atoms: C_14  and  N_15 
REMARK    3  A    between atoms: N_15  and  C_16 
REMARK    4  A    between atoms: C_16  and  C_17 
REMARK    5  A    between atoms: C_17  and  C_18 
REMARK    6  A    between atoms: C_18  and  C_19 
ROOT
HETATM    1  C   UNL     1     -37.177  41.512 -58.902  1.00  0.00     0.251 C 
HETATM    2  N   UNL     1     -37.324  40.244 -59.425  1.00  0.00    -0.357 N 
HETATM    3  O   UNL     1     -37.163  42.526 -59.590  1.00  0.00    -0.268 OA
HETATM    4  H   UNL     1     -37.165  39.435 -58.845  1.00  0.00     0.162 HD
ENDROOT
BRANCH   1   5
HETATM    5  C   UNL     1     -36.985  41.618 -57.426  1.00  0.00     0.032 A 
HETATM    6  C   UNL     1     -35.839  42.167 -56.841  1.00  0.00     0.017 A 
HETATM    7  C   UNL     1     -35.727  42.264 -55.445  1.00  0.00     0.008 A 
HETATM    8  C   UNL     1     -36.744  41.795 -54.603  1.00  0.00    -0.052 A 
HETATM    9  C   UNL     1     -37.884  41.232 -55.204  1.00  0.00     0.008 A 
HETATM   10  C   UNL     1     -38.002  41.143 -56.595  1.00  0.00     0.017 A 
BRANCH   8  11
HETATM   11  C   UNL     1     -36.696  41.873 -53.082  1.00  0.00     0.044 C 
HETATM   12  C   UNL     1     -37.640  40.887 -52.372  1.00  0.00     0.241 C 
HETATM   13  N   UNL     1     -37.016  39.541 -52.173  1.00  0.00    -0.074 N 
HETATM   14  H   UNL     1     -36.939  39.058 -53.076  1.00  0.00     0.277 HD
HETATM   15  H   UNL     1     -37.664  38.963 -51.621  1.00  0.00     0.277 HD
HETATM   16  C   UNL     1     -35.694  39.569 -51.484  1.00  0.00     0.232 C 
HETATM   17  C   UNL     1     -34.724  40.424 -52.280  1.00  0.00     0.028 C 
HETATM   18  C   UNL     1     -35.265  41.832 -52.517  1.00  0.00     0.013 C 
ENDBRANCH   8  11
ENDBRANCH   1   5
BRANCH   2  19
HETATM   19  C   UNL     1     -37.391  40.019 -60.858  1.00  0.00     0.123 C 
BRANCH  19  20
HETATM   20  C   UNL     1     -37.697  38.563 -61.210  1.00  0.00     0.026 C 
BRANCH  20  21
HETATM   21  C   UNL     1     -39.004  38.084 -60.573  1.00  0.00     0.061 C 
BRANCH  21  22
HETATM   22  C   UNL     1     -40.129  37.963 -61.547  1.00  0.00     0.044 A 
HETATM   23  N   UNL     1     -41.425  38.062 -61.066  1.00  0.00    -0.229 NA
HETATM   24  C   UNL     1     -42.287  37.896 -62.037  1.00  0.00     0.164 A 
HETATM   25  N   UNL     1     -43.616  37.939 -61.854  1.00  0.00    -0.378 N 
HETATM   26  S   UNL     1     -41.605  37.630 -63.589  1.00  0.00    -0.062 SA
HETATM   27  H   UNL     1     -43.924  38.374 -60.992  1.00  0.00     0.158 HD
HETATM   28  H   UNL     1     -44.196  38.151 -62.656  1.00  0.00     0.158 HD
HETATM   29  C   UNL     1     -40.037  37.721 -62.905  1.00  0.00     0.080 A 
ENDBRANCH  21  22
ENDBRANCH  20  21
ENDBRANCH  19  20
ENDBRANCH   2  19
TORSDOF 6
ENDMDL
MODEL 7
REMARK VINA RESULT:      -6.9      3.258      4.986
REMARK  6 active torsions:
REMARK  status: ('A' for Active; 'I' for Inactive)
REMARK    1  A    between atoms: C_2  and  C_3 
REMARK    2  A    between atoms: C_13  and  C_14 
REMARK       I    between atoms: C_14  and  N_15 
REMARK    3  A    between atoms: N_15  and  C_16 
REMARK    4  A    between atoms: C_16  and  C_17 
REMARK    5  A    between atoms: C_17  and  C_18 
REMARK    6  A    between atoms: C_18  and  C_19 
ROOT
HETATM    1  C   UNL     1     -42.638  55.683 -56.698  1.00  0.00     0.251 C 
HETATM    2  N   UNL     1     -42.166  56.964 -56.898  1.00  0.00    -0.357 N 
HETATM    3  O   UNL     1     -43.261  55.056 -57.547  1.00  0.00    -0.268 OA
HETATM    4  H   UNL     1     -41.807  57.498 -56.121  1.00  0.00     0.162 HD
ENDROOT
BRANCH   1   5
HETATM    5  C   UNL     1     -42.400  55.073 -55.357  1.00  0.00     0.032 A 
HETATM    6  C   UNL     1     -41.258  54.327 -55.049  1.00  0.00     0.017 A 
HETATM    7  C   UNL     1     -41.076  53.798 -53.761  1.00  0.00     0.008 A 
HETATM    8  C   UNL     1     -42.040  53.983 -52.761  1.00  0.00    -0.052 A 
HETATM    9  C   UNL     1     -43.191  54.723 -53.090  1.00  0.00     0.008 A 
HETATM   10  C   UNL     1     -43.369  55.258 -54.369  1.00  0.00     0.017 A 
BRANCH   8  11
HETATM   11  C   UNL     1     -41.910  53.447 -51.341  1.00  0.00     0.044 C 
HETATM   12  C   UNL     1     -40.590  52.707 -51.067  1.00  0.00     0.241 C 
HETATM   13  N   UNL     1     -39.489  53.635 -50.658  1.00  0.00    -0.074 N 
HETATM   14  H   UNL     1     -39.188  54.194 -51.465  1.00  0.00     0.277 HD
HETATM   15  H   UNL     1     -38.666  53.071 -50.407  1.00  0.00     0.277 HD
HETATM   16  C   UNL     1     -39.826  54.523 -49.508  1.00  0.00     0.232 C 
HETATM   17  C   UNL     1     -41.043  55.362 -49.853  1.00  0.00     0.028 C 
HETATM   18  C   UNL     1     -42.234  54.499 -50.264  1.00  0.00     0.013 C 
ENDBRANCH   8  11
ENDBRANCH   1   5
BRANCH   2  19
HETATM   19  C   UNL     1     -42.453  57.695 -58.119  1.00  0.00     0.123 C 
BRANCH  19  20
HETATM   20  C   UNL     1     -43.033  59.084 -57.848  1.00  0.00     0.026 C 
BRANCH  20  21
HETATM   21  C   UNL     1     -41.992  60.033 -57.251  1.00  0.00     0.061 C 
BRANCH  21  22
HETATM   22  C   UNL     1     -42.212  60.320 -55.802  1.00  0.00     0.044 A 
HETATM   23  N   UNL     1     -41.484  59.593 -54.873  1.00  0.00    -0.229 NA
HETATM   24  C   UNL     1     -41.823  59.938 -53.656  1.00  0.00     0.164 A 
HETATM   25  N   UNL     1     -41.277  59.392 -52.559  1.00  0.00    -0.378 N 
HETATM   26  S   UNL     1     -43.019  61.165 -53.546  1.00  0.00    -0.062 SA
HETATM   27  H   UNL     1     -40.402  58.900 -52.706  1.00  0.00     0.158 HD
HETATM   28  H   UNL     1     -41.316  59.922 -51.698  1.00  0.00     0.158 HD
HETATM   29  C   UNL     1     -43.105  61.221 -55.255  1.00  0.00     0.080 A 
ENDBRANCH  21  22
ENDBRANCH  20  21
ENDBRANCH  19  20
ENDBRANCH   2  19
TORSDOF 6
ENDMDL
MODEL 8
REMARK VINA RESULT:      -6.9      2.409      3.539
REMARK  6 active torsions:
REMARK  status: ('A' for Active; 'I' for Inactive)
REMARK    1  A    between atoms: C_2  and  C_3 
REMARK    2  A    between atoms: C_13  and  C_14 
REMARK       I    between atoms: C_14  and  N_15 
REMARK    3  A    between atoms: N_15  and  C_16 
REMARK    4  A    between atoms: C_16  and  C_17 
REMARK    5  A    between atoms: C_17  and  C_18 
REMARK    6  A    between atoms: C_18  and  C_19 
ROOT
HETATM    1  C   UNL     1     -43.181  56.268 -56.268  1.00  0.00     0.251 C 
HETATM    2  N   UNL     1     -42.473  55.916 -57.398  1.00  0.00    -0.357 N 
HETATM    3  O   UNL     1     -44.013  57.167 -56.249  1.00  0.00    -0.268 OA
HETATM    4  H   UNL     1     -41.688  55.287 -57.328  1.00  0.00     0.162 HD
ENDROOT
BRANCH   1   5
HETATM    5  C   UNL     1     -42.868  55.526 -55.012  1.00  0.00     0.032 A 
HETATM    6  C   UNL     1     -42.040  54.399 -54.976  1.00  0.00     0.017 A 
HETATM    7  C   UNL     1     -41.761  53.756 -53.759  1.00  0.00     0.008 A 
HETATM    8  C   UNL     1     -42.320  54.210 -52.557  1.00  0.00    -0.052 A 
HETATM    9  C   UNL     1     -43.163  55.335 -52.610  1.00  0.00     0.008 A 
HETATM   10  C   UNL     1     -43.434  55.981 -53.820  1.00  0.00     0.017 A 
BRANCH   8  11
HETATM   11  C   UNL     1     -42.057  53.570 -51.199  1.00  0.00     0.044 C 
HETATM   12  C   UNL     1     -40.765  52.738 -51.135  1.00  0.00     0.241 C 
HETATM   13  N   UNL     1     -39.566  53.571 -50.807  1.00  0.00    -0.074 N 
HETATM   14  H   UNL     1     -39.327  54.167 -51.609  1.00  0.00     0.277 HD
HETATM   15  H   UNL     1     -38.757  52.945 -50.695  1.00  0.00     0.277 HD
HETATM   16  C   UNL     1     -39.705  54.395 -49.572  1.00  0.00     0.232 C 
HETATM   17  C   UNL     1     -40.898  55.325 -49.713  1.00  0.00     0.028 C 
HETATM   18  C   UNL     1     -42.182  54.561 -50.028  1.00  0.00     0.013 C 
ENDBRANCH   8  11
ENDBRANCH   1   5
BRANCH   2  19
HETATM   19  C   UNL     1     -42.610  56.657 -58.639  1.00  0.00     0.123 C 
BRANCH  19  20
HETATM   20  C   UNL     1     -42.967  55.758 -59.823  1.00  0.00     0.026 C 
BRANCH  20  21
HETATM   21  C   UNL     1     -44.349  55.121 -59.661  1.00  0.00     0.061 C 
BRANCH  21  22
HETATM   22  C   UNL     1     -45.472  56.048 -59.989  1.00  0.00     0.044 A 
HETATM   23  N   UNL     1     -46.337  55.692 -61.012  1.00  0.00    -0.229 NA
HETATM   24  C   UNL     1     -47.236  56.627 -61.197  1.00  0.00     0.164 A 
HETATM   25  N   UNL     1     -48.199  56.545 -62.127  1.00  0.00    -0.378 N 
HETATM   26  S   UNL     1     -47.116  57.980 -60.148  1.00  0.00    -0.062 SA
HETATM   27  H   UNL     1     -48.371  55.617 -62.497  1.00  0.00     0.158 HD
HETATM   28  H   UNL     1     -49.035  57.100 -61.991  1.00  0.00     0.158 HD
HETATM   29  C   UNL     1     -45.744  57.271 -59.406  1.00  0.00     0.080 A 
ENDBRANCH  21  22
ENDBRANCH  20  21
ENDBRANCH  19  20
ENDBRANCH   2  19
TORSDOF 6
ENDMDL
MODEL 9
REMARK VINA RESULT:      -6.8      6.937      8.933
REMARK  6 active torsions:
REMARK  status: ('A' for Active; 'I' for Inactive)
REMARK    1  A    between atoms: C_2  and  C_3 
REMARK    2  A    between atoms: C_13  and  C_14 
REMARK       I    between atoms: C_14  and  N_15 
REMARK    3  A    between atoms: N_15  and  C_16 
REMARK    4  A    between atoms: C_16  and  C_17 
REMARK    5  A    between atoms: C_17  and  C_18 
REMARK    6  A    between atoms: C_18  and  C_19 
ROOT
HETATM    1  C   UNL     1     -45.216  58.956 -51.303  1.00  0.00     0.251 C 
HETATM    2  N   UNL     1     -44.608  60.175 -51.519  1.00  0.00    -0.357 N 
HETATM    3  O   UNL     1     -46.192  58.810 -50.576  1.00  0.00    -0.268 OA
HETATM    4  H   UNL     1     -43.716  60.220 -51.988  1.00  0.00     0.162 HD
ENDROOT
BRANCH   1   5
HETATM    5  C   UNL     1     -44.608  57.767 -51.969  1.00  0.00     0.032 A 
HETATM    6  C   UNL     1     -43.970  56.739 -51.266  1.00  0.00     0.017 A 
HETATM    7  C   UNL     1     -43.438  55.632 -51.946  1.00  0.00     0.008 A 
HETATM    8  C   UNL     1     -43.511  55.538 -53.342  1.00  0.00    -0.052 A 
HETATM    9  C   UNL     1     -44.141  56.586 -54.037  1.00  0.00     0.008 A 
HETATM   10  C   UNL     1     -44.679  57.685 -53.361  1.00  0.00     0.017 A 
BRANCH   8  11
HETATM   11  C   UNL     1     -42.964  54.365 -54.148  1.00  0.00     0.044 C 
HETATM   12  C   UNL     1     -42.539  54.731 -55.580  1.00  0.00     0.241 C 
HETATM   13  N   UNL     1     -41.133  55.238 -55.646  1.00  0.00    -0.074 N 
HETATM   14  H   UNL     1     -41.081  56.174 -55.227  1.00  0.00     0.277 HD
HETATM   15  H   UNL     1     -40.886  55.380 -56.636  1.00  0.00     0.277 HD
HETATM   16  C   UNL     1     -40.120  54.335 -55.027  1.00  0.00     0.232 C 
HETATM   17  C   UNL     1     -40.468  54.107 -53.567  1.00  0.00     0.028 C 
HETATM   18  C   UNL     1     -41.886  53.564 -53.396  1.00  0.00     0.013 C 
ENDBRANCH   8  11
ENDBRANCH   1   5
BRANCH   2  19
HETATM   19  C   UNL     1     -45.042  61.372 -50.821  1.00  0.00     0.123 C 
BRANCH  19  20
HETATM   20  C   UNL     1     -44.479  61.460 -49.402  1.00  0.00     0.026 C 
BRANCH  20  21
HETATM   21  C   UNL     1     -45.526  61.947 -48.399  1.00  0.00     0.061 C 
BRANCH  21  22
HETATM   22  C   UNL     1     -45.603  61.107 -47.167  1.00  0.00     0.044 A 
HETATM   23  N   UNL     1     -46.436  59.999 -47.180  1.00  0.00    -0.229 NA
HETATM   24  C   UNL     1     -46.417  59.399 -46.016  1.00  0.00     0.164 A 
HETATM   25  N   UNL     1     -47.134  58.298 -45.747  1.00  0.00    -0.378 N 
HETATM   26  S   UNL     1     -45.391  60.110 -44.839  1.00  0.00    -0.062 SA
HETATM   27  H   UNL     1     -47.478  57.792 -46.556  1.00  0.00     0.158 HD
HETATM   28  H   UNL     1     -46.822  57.704 -44.989  1.00  0.00     0.158 HD
HETATM   29  C   UNL     1     -44.956  61.325 -45.965  1.00  0.00     0.080 A 
ENDBRANCH  21  22
ENDBRANCH  20  21
ENDBRANCH  19  20
ENDBRANCH   2  19
TORSDOF 6
ENDMDL
MODEL 10
REMARK VINA RESULT:      -6.8     15.162     18.772
REMARK  6 active torsions:
REMARK  status: ('A' for Active; 'I' for Inactive)
REMARK    1  A    between atoms: C_2  and  C_3 
REMARK    2  A    between atoms: C_13  and  C_14 
REMARK       I    between atoms: C_14  and  N_15 
REMARK    3  A    between atoms: N_15  and  C_16 
REMARK    4  A    between atoms: C_16  and  C_17 
REMARK    5  A    between atoms: C_17  and  C_18 
REMARK    6  A    between atoms: C_18  and  C_19 
ROOT
HETATM    1  C   UNL     1     -32.752  40.408 -53.753  1.00  0.00     0.251 C 
HETATM    2  N   UNL     1     -33.097  40.289 -52.423  1.00  0.00    -0.357 N 
HETATM    3  O   UNL     1     -31.610  40.254 -54.168  1.00  0.00    -0.268 OA
HETATM    4  H   UNL     1     -34.008  40.584 -52.107  1.00  0.00     0.162 HD
ENDROOT
BRANCH   1   5
HETATM    5  C   UNL     1     -33.839  40.782 -54.704  1.00  0.00     0.032 A 
HETATM    6  C   UNL     1     -33.601  41.138 -56.036  1.00  0.00     0.017 A 
HETATM    7  C   UNL     1     -34.668  41.457 -56.891  1.00  0.00     0.008 A 
HETATM    8  C   UNL     1     -35.991  41.450 -56.431  1.00  0.00    -0.052 A 
HETATM    9  C   UNL     1     -36.215  41.106 -55.085  1.00  0.00     0.008 A 
HETATM   10  C   UNL     1     -35.154  40.779 -54.234  1.00  0.00     0.017 A 
BRANCH   8  11
HETATM   11  C   UNL     1     -37.199  41.777 -57.300  1.00  0.00     0.044 C 
HETATM   12  C   UNL     1     -36.859  42.033 -58.778  1.00  0.00     0.241 C 
HETATM   13  N   UNL     1     -36.812  40.770 -59.580  1.00  0.00    -0.074 N 
HETATM   14  H   UNL     1     -35.980  40.226 -59.322  1.00  0.00     0.277 HD
HETATM   15  H   UNL     1     -36.667  41.019 -60.568  1.00  0.00     0.277 HD
HETATM   16  C   UNL     1     -38.037  39.926 -59.476  1.00  0.00     0.232 C 
HETATM   17  C   UNL     1     -38.274  39.552 -58.024  1.00  0.00     0.028 C 
HETATM   18  C   UNL     1     -38.360  40.782 -57.124  1.00  0.00     0.013 C 
ENDBRANCH   8  11
ENDBRANCH   1   5
BRANCH   2  19
HETATM   19  C   UNL     1     -32.094  40.052 -51.399  1.00  0.00     0.123 C 
BRANCH  19  20
HETATM   20  C   UNL     1     -32.681  40.074 -49.987  1.00  0.00     0.026 C 
BRANCH  20  21
HETATM   21  C   UNL     1     -32.360  38.793 -49.214  1.00  0.00     0.061 C 
BRANCH  21  22
HETATM   22  C   UNL     1     -31.641  39.040 -47.929  1.00  0.00     0.044 A 
HETATM   23  N   UNL     1     -30.576  39.927 -47.934  1.00  0.00    -0.229 NA
HETATM   24  C   UNL     1     -30.035  39.999 -46.744  1.00  0.00     0.164 A 
HETATM   25  N   UNL     1     -28.983  40.783 -46.462  1.00  0.00    -0.378 N 
HETATM   26  S   UNL     1     -30.776  39.026 -45.540  1.00  0.00    -0.062 SA
HETATM   27  H   UNL     1     -28.794  41.519 -47.134  1.00  0.00     0.158 HD
HETATM   28  H   UNL     1     -28.842  41.055 -45.498  1.00  0.00     0.158 HD
HETATM   29  C   UNL     1     -31.890  38.448 -46.705  1.00  0.00     0.080 A 
ENDBRANCH  21  22
ENDBRANCH  20  21
ENDBRANCH  19  20
ENDBRANCH   2  19
TORSDOF 6
ENDMDL
