MODEL 1
REMARK VINA RESULT:      -7.9      0.000      0.000
REMARK  5 active torsions:
REMARK  status: ('A' for Active; 'I' for Inactive)
REMARK    1  A    between atoms: C_2  and  N_3 
REMARK    2  A    between atoms: C_2  and  C_21 
REMARK       I    between atoms: N_3  and  C_5 
REMARK       I    between atoms: C_5  and  N_6 
REMARK    3  A    between atoms: N_6  and  C_7 
REMARK    4  A    between atoms: C_7  and  C_8 
REMARK    5  A    between atoms: C_10  and  C_11 
ROOT
HETATM    1  N   UNL     1     -42.874  58.038 -52.920  1.00  0.00    -0.218 N 
HETATM    2  H   UNL     1     -43.762  58.466 -53.137  1.00  0.00     0.178 HD
HETATM    3  C   UNL     1     -42.709  57.649 -51.634  1.00  0.00     0.670 C 
HETATM    4  N   UNL     1     -41.494  57.253 -51.184  1.00  0.00    -0.221 N 
HETATM    5  N   UNL     1     -43.775  57.662 -50.802  1.00  0.00    -0.231 N 
HETATM    6  C   UNL     1     -45.165  57.887 -51.182  1.00  0.00     0.165 C 
HETATM    7  H   UNL     1     -40.695  57.507 -51.747  1.00  0.00     0.178 HD
HETATM    8  H   UNL     1     -43.541  57.694 -49.809  1.00  0.00     0.177 HD
ENDROOT
BRANCH   4   9
HETATM    9  C   UNL     1     -41.239  56.537 -49.924  1.00  0.00     0.199 C 
BRANCH   9  10
HETATM   10  C   UNL     1     -40.702  55.181 -50.186  1.00  0.00     0.077 A 
HETATM   11  N   UNL     1     -40.784  54.613 -51.445  1.00  0.00    -0.225 NA
HETATM   12  C   UNL     1     -40.236  53.417 -51.294  1.00  0.00     0.179 A 
HETATM   13  O   UNL     1     -39.744  53.190 -50.036  1.00  0.00    -0.301 OA
HETATM   14  C   UNL     1     -40.049  54.319 -49.339  1.00  0.00     0.173 A 
BRANCH  12  15
HETATM   15  C   UNL     1     -40.124  52.327 -52.255  1.00  0.00     0.017 A 
HETATM   16  C   UNL     1     -39.640  51.078 -51.835  1.00  0.00     0.016 A 
HETATM   17  C   UNL     1     -39.507  50.022 -52.738  1.00  0.00     0.001 A 
HETATM   18  C   UNL     1     -39.866  50.199 -54.072  1.00  0.00     0.000 A 
HETATM   19  C   UNL     1     -40.355  51.431 -54.505  1.00  0.00     0.001 A 
HETATM   20  C   UNL     1     -40.479  52.490 -53.602  1.00  0.00     0.016 A 
ENDBRANCH  12  15
ENDBRANCH   9  10
ENDBRANCH   4   9
BRANCH   1  21
HETATM   21  C   UNL     1     -41.931  57.942 -54.053  1.00  0.00     0.135 C 
HETATM   22  C   UNL     1     -41.750  59.266 -54.792  1.00  0.00     0.038 C 
BRANCH  21  23
HETATM   23  C   UNL     1     -42.271  56.797 -54.976  1.00  0.00     0.005 A 
HETATM   24  S   UNL     1     -42.606  57.012 -56.649  1.00  0.00    -0.104 SA
HETATM   25  C   UNL     1     -42.896  55.349 -56.889  1.00  0.00     0.050 A 
HETATM   26  C   UNL     1     -42.755  54.630 -55.726  1.00  0.00     0.008 A 
HETATM   27  C   UNL     1     -42.402  55.463 -54.625  1.00  0.00     0.017 A 
ENDBRANCH  21  23
ENDBRANCH   1  21
TORSDOF 5
ENDMDL
MODEL 2
REMARK VINA RESULT:      -7.3      2.900      4.331
REMARK  5 active torsions:
REMARK  status: ('A' for Active; 'I' for Inactive)
REMARK    1  A    between atoms: C_2  and  N_3 
REMARK    2  A    between atoms: C_2  and  C_21 
REMARK       I    between atoms: N_3  and  C_5 
REMARK       I    between atoms: C_5  and  N_6 
REMARK    3  A    between atoms: N_6  and  C_7 
REMARK    4  A    between atoms: C_7  and  C_8 
REMARK    5  A    between atoms: C_10  and  C_11 
ROOT
HETATM    1  N   UNL     1     -42.863  57.534 -57.872  1.00  0.00    -0.218 N 
HETATM    2  H   UNL     1     -42.567  58.364 -58.365  1.00  0.00     0.178 HD
HETATM    3  C   UNL     1     -42.769  57.588 -56.523  1.00  0.00     0.670 C 
HETATM    4  N   UNL     1     -42.943  56.473 -55.773  1.00  0.00    -0.221 N 
HETATM    5  N   UNL     1     -42.497  58.774 -55.932  1.00  0.00    -0.231 N 
HETATM    6  C   UNL     1     -42.465  60.078 -56.584  1.00  0.00     0.165 C 
HETATM    7  H   UNL     1     -42.878  55.588 -56.254  1.00  0.00     0.178 HD
HETATM    8  H   UNL     1     -42.111  58.702 -54.989  1.00  0.00     0.177 HD
ENDROOT
BRANCH   4   9
HETATM    9  C   UNL     1     -43.160  56.445 -54.318  1.00  0.00     0.199 C 
BRANCH   9  10
HETATM   10  C   UNL     1     -42.186  55.543 -53.657  1.00  0.00     0.077 A 
HETATM   11  N   UNL     1     -41.968  54.262 -54.129  1.00  0.00    -0.225 NA
HETATM   12  C   UNL     1     -41.072  53.760 -53.292  1.00  0.00     0.179 A 
HETATM   13  O   UNL     1     -40.643  54.650 -52.344  1.00  0.00    -0.301 OA
HETATM   14  C   UNL     1     -41.362  55.781 -52.584  1.00  0.00     0.173 A 
BRANCH  12  15
HETATM   15  C   UNL     1     -40.525  52.410 -53.228  1.00  0.00     0.017 A 
HETATM   16  C   UNL     1     -40.611  51.572 -54.351  1.00  0.00     0.016 A 
HETATM   17  C   UNL     1     -40.109  50.270 -54.311  1.00  0.00     0.001 A 
HETATM   18  C   UNL     1     -39.505  49.793 -53.150  1.00  0.00     0.000 A 
HETATM   19  C   UNL     1     -39.406  50.614 -52.028  1.00  0.00     0.001 A 
HETATM   20  C   UNL     1     -39.916  51.915 -52.065  1.00  0.00     0.016 A 
ENDBRANCH  12  15
ENDBRANCH   9  10
ENDBRANCH   4   9
BRANCH   1  21
HETATM   21  C   UNL     1     -43.322  56.423 -58.731  1.00  0.00     0.135 C 
HETATM   22  C   UNL     1     -42.374  56.138 -59.894  1.00  0.00     0.038 C 
BRANCH  21  23
HETATM   23  C   UNL     1     -44.754  56.606 -59.174  1.00  0.00     0.005 A 
HETATM   24  S   UNL     1     -45.507  55.598 -60.345  1.00  0.00    -0.104 SA
HETATM   25  C   UNL     1     -46.975  56.463 -60.266  1.00  0.00     0.050 A 
HETATM   26  C   UNL     1     -46.907  57.510 -59.377  1.00  0.00     0.008 A 
HETATM   27  C   UNL     1     -45.629  57.596 -58.753  1.00  0.00     0.017 A 
ENDBRANCH  21  23
ENDBRANCH   1  21
TORSDOF 5
ENDMDL
MODEL 3
REMARK VINA RESULT:      -7.0      3.027      4.163
REMARK  5 active torsions:
REMARK  status: ('A' for Active; 'I' for Inactive)
REMARK    1  A    between atoms: C_2  and  N_3 
REMARK    2  A    between atoms: C_2  and  C_21 
REMARK       I    between atoms: N_3  and  C_5 
REMARK       I    between atoms: C_5  and  N_6 
REMARK    3  A    between atoms: N_6  and  C_7 
REMARK    4  A    between atoms: C_7  and  C_8 
REMARK    5  A    between atoms: C_10  and  C_11 
ROOT
HETATM    1  N   UNL     1     -44.046  58.334 -57.538  1.00  0.00    -0.218 N 
HETATM    2  H   UNL     1     -44.323  59.167 -58.037  1.00  0.00     0.178 HD
HETATM    3  C   UNL     1     -44.362  58.305 -56.222  1.00  0.00     0.670 C 
HETATM    4  N   UNL     1     -43.867  57.338 -55.414  1.00  0.00    -0.221 N 
HETATM    5  N   UNL     1     -45.182  59.259 -55.724  1.00  0.00    -0.231 N 
HETATM    6  C   UNL     1     -45.930  60.245 -56.495  1.00  0.00     0.165 C 
HETATM    7  H   UNL     1     -43.070  56.822 -55.759  1.00  0.00     0.178 HD
HETATM    8  H   UNL     1     -45.115  59.393 -54.714  1.00  0.00     0.177 HD
ENDROOT
BRANCH   4   9
HETATM    9  C   UNL     1     -44.353  57.018 -54.063  1.00  0.00     0.199 C 
BRANCH   9  10
HETATM   10  C   UNL     1     -43.369  56.185 -53.331  1.00  0.00     0.077 A 
HETATM   11  N   UNL     1     -42.752  55.110 -53.943  1.00  0.00    -0.225 NA
HETATM   12  C   UNL     1     -41.977  54.604 -52.996  1.00  0.00     0.179 A 
HETATM   13  O   UNL     1     -41.998  55.315 -51.826  1.00  0.00    -0.301 OA
HETATM   14  C   UNL     1     -42.891  56.318 -52.050  1.00  0.00     0.173 A 
BRANCH  12  15
HETATM   15  C   UNL     1     -41.153  53.400 -53.023  1.00  0.00     0.017 A 
HETATM   16  C   UNL     1     -40.505  52.976 -51.852  1.00  0.00     0.016 A 
HETATM   17  C   UNL     1     -39.698  51.836 -51.856  1.00  0.00     0.001 A 
HETATM   18  C   UNL     1     -39.537  51.102 -53.028  1.00  0.00     0.000 A 
HETATM   19  C   UNL     1     -40.179  51.506 -54.197  1.00  0.00     0.001 A 
HETATM   20  C   UNL     1     -40.980  52.651 -54.196  1.00  0.00     0.016 A 
ENDBRANCH  12  15
ENDBRANCH   9  10
ENDBRANCH   4   9
BRANCH   1  21
HETATM   21  C   UNL     1     -43.335  57.324 -58.349  1.00  0.00     0.135 C 
HETATM   22  C   UNL     1     -42.080  57.876 -59.022  1.00  0.00     0.038 C 
BRANCH  21  23
HETATM   23  C   UNL     1     -44.259  56.623 -59.315  1.00  0.00     0.005 A 
HETATM   24  S   UNL     1     -45.924  57.022 -59.474  1.00  0.00    -0.104 SA
HETATM   25  C   UNL     1     -46.183  55.820 -60.656  1.00  0.00     0.050 A 
HETATM   26  C   UNL     1     -45.037  55.113 -60.930  1.00  0.00     0.008 A 
HETATM   27  C   UNL     1     -43.932  55.570 -60.155  1.00  0.00     0.017 A 
ENDBRANCH  21  23
ENDBRANCH   1  21
TORSDOF 5
ENDMDL
MODEL 4
REMARK VINA RESULT:      -6.9      2.855      6.228
REMARK  5 active torsions:
REMARK  status: ('A' for Active; 'I' for Inactive)
REMARK    1  A    between atoms: C_2  and  N_3 
REMARK    2  A    between atoms: C_2  and  C_21 
REMARK       I    between atoms: N_3  and  C_5 
REMARK       I    between atoms: C_5  and  N_6 
REMARK    3  A    between atoms: N_6  and  C_7 
REMARK    4  A    between atoms: C_7  and  C_8 
REMARK    5  A    between atoms: C_10  and  C_11 
ROOT
HETATM    1  N   UNL     1     -41.282  56.282 -50.399  1.00  0.00    -0.218 N 
HETATM    2  H   UNL     1     -40.464  56.748 -50.036  1.00  0.00     0.178 HD
HETATM    3  C   UNL     1     -42.077  57.031 -51.199  1.00  0.00     0.670 C 
HETATM    4  N   UNL     1     -43.298  56.580 -51.576  1.00  0.00    -0.221 N 
HETATM    5  N   UNL     1     -41.635  58.240 -51.616  1.00  0.00    -0.231 N 
HETATM    6  C   UNL     1     -40.290  58.774 -51.444  1.00  0.00     0.165 C 
HETATM    7  H   UNL     1     -43.686  55.818 -51.040  1.00  0.00     0.178 HD
HETATM    8  H   UNL     1     -42.371  58.883 -51.913  1.00  0.00     0.177 HD
ENDROOT
BRANCH   4   9
HETATM    9  C   UNL     1     -44.122  57.143 -52.657  1.00  0.00     0.199 C 
BRANCH   9  10
HETATM   10  C   UNL     1     -43.767  56.535 -53.962  1.00  0.00     0.077 A 
HETATM   11  N   UNL     1     -43.398  57.321 -55.038  1.00  0.00    -0.225 NA
HETATM   12  C   UNL     1     -43.183  56.451 -56.012  1.00  0.00     0.179 A 
HETATM   13  O   UNL     1     -43.325  55.144 -55.628  1.00  0.00    -0.301 OA
HETATM   14  C   UNL     1     -43.700  55.210 -54.321  1.00  0.00     0.173 A 
BRANCH  12  15
HETATM   15  C   UNL     1     -42.859  56.697 -57.413  1.00  0.00     0.017 A 
HETATM   16  C   UNL     1     -42.255  57.909 -57.783  1.00  0.00     0.016 A 
HETATM   17  C   UNL     1     -41.949  58.175 -59.119  1.00  0.00     0.001 A 
HETATM   18  C   UNL     1     -42.235  57.229 -60.100  1.00  0.00     0.000 A 
HETATM   19  C   UNL     1     -42.829  56.018 -59.748  1.00  0.00     0.001 A 
HETATM   20  C   UNL     1     -43.143  55.755 -58.413  1.00  0.00     0.016 A 
ENDBRANCH  12  15
ENDBRANCH   9  10
ENDBRANCH   4   9
BRANCH   1  21
HETATM   21  C   UNL     1     -41.450  54.880 -49.966  1.00  0.00     0.135 C 
HETATM   22  C   UNL     1     -40.918  54.623 -48.558  1.00  0.00     0.038 C 
BRANCH  21  23
HETATM   23  C   UNL     1     -40.909  53.905 -50.984  1.00  0.00     0.005 A 
HETATM   24  S   UNL     1     -40.213  52.393 -50.553  1.00  0.00    -0.104 SA
HETATM   25  C   UNL     1     -39.870  51.996 -52.176  1.00  0.00     0.050 A 
HETATM   26  C   UNL     1     -40.264  52.988 -53.042  1.00  0.00     0.008 A 
HETATM   27  C   UNL     1     -40.855  54.089 -52.356  1.00  0.00     0.017 A 
ENDBRANCH  21  23
ENDBRANCH   1  21
TORSDOF 5
ENDMDL
MODEL 5
REMARK VINA RESULT:      -6.9      2.557      4.327
REMARK  5 active torsions:
REMARK  status: ('A' for Active; 'I' for Inactive)
REMARK    1  A    between atoms: C_2  and  N_3 
REMARK    2  A    between atoms: C_2  and  C_21 
REMARK       I    between atoms: N_3  and  C_5 
REMARK       I    between atoms: C_5  and  N_6 
REMARK    3  A    between atoms: N_6  and  C_7 
REMARK    4  A    between atoms: C_7  and  C_8 
REMARK    5  A    between atoms: C_10  and  C_11 
ROOT
HETATM    1  N   UNL     1     -44.614  58.829 -53.195  1.00  0.00    -0.218 N 
HETATM    2  H   UNL     1     -45.004  59.746 -53.360  1.00  0.00     0.178 HD
HETATM    3  C   UNL     1     -44.339  58.101 -54.303  1.00  0.00     0.670 C 
HETATM    4  N   UNL     1     -44.007  56.791 -54.203  1.00  0.00    -0.221 N 
HETATM    5  N   UNL     1     -44.400  58.701 -55.513  1.00  0.00    -0.231 N 
HETATM    6  C   UNL     1     -44.564  60.128 -55.764  1.00  0.00     0.165 C 
HETATM    7  H   UNL     1     -44.229  56.332 -53.331  1.00  0.00     0.178 HD
HETATM    8  H   UNL     1     -44.520  58.061 -56.300  1.00  0.00     0.177 HD
ENDROOT
BRANCH   4   9
HETATM    9  C   UNL     1     -43.406  55.977 -55.270  1.00  0.00     0.199 C 
BRANCH   9  10
HETATM   10  C   UNL     1     -42.216  55.248 -54.770  1.00  0.00     0.077 A 
HETATM   11  N   UNL     1     -42.250  53.880 -54.570  1.00  0.00    -0.225 NA
HETATM   12  C   UNL     1     -41.043  53.593 -54.107  1.00  0.00     0.179 A 
HETATM   13  O   UNL     1     -40.201  54.672 -54.053  1.00  0.00    -0.301 OA
HETATM   14  C   UNL     1     -40.960  55.720 -54.475  1.00  0.00     0.173 A 
BRANCH  12  15
HETATM   15  C   UNL     1     -40.518  52.319 -53.628  1.00  0.00     0.017 A 
HETATM   16  C   UNL     1     -40.031  52.220 -52.315  1.00  0.00     0.016 A 
HETATM   17  C   UNL     1     -39.508  51.017 -51.836  1.00  0.00     0.001 A 
HETATM   18  C   UNL     1     -39.476  49.896 -52.662  1.00  0.00     0.000 A 
HETATM   19  C   UNL     1     -39.962  49.976 -53.965  1.00  0.00     0.001 A 
HETATM   20  C   UNL     1     -40.477  51.182 -54.447  1.00  0.00     0.016 A 
ENDBRANCH  12  15
ENDBRANCH   9  10
ENDBRANCH   4   9
BRANCH   1  21
HETATM   21  C   UNL     1     -44.442  58.467 -51.773  1.00  0.00     0.135 C 
HETATM   22  C   UNL     1     -45.525  59.056 -50.872  1.00  0.00     0.038 C 
BRANCH  21  23
HETATM   23  C   UNL     1     -43.046  58.760 -51.280  1.00  0.00     0.005 A 
HETATM   24  S   UNL     1     -42.547  60.320 -50.757  1.00  0.00    -0.104 SA
HETATM   25  C   UNL     1     -40.957  59.794 -50.435  1.00  0.00     0.050 A 
HETATM   26  C   UNL     1     -40.789  58.461 -50.725  1.00  0.00     0.008 A 
HETATM   27  C   UNL     1     -41.988  57.868 -51.216  1.00  0.00     0.017 A 
ENDBRANCH  21  23
ENDBRANCH   1  21
TORSDOF 5
ENDMDL
MODEL 6
REMARK VINA RESULT:      -6.8      2.616      3.315
REMARK  5 active torsions:
REMARK  status: ('A' for Active; 'I' for Inactive)
REMARK    1  A    between atoms: C_2  and  N_3 
REMARK    2  A    between atoms: C_2  and  C_21 
REMARK       I    between atoms: N_3  and  C_5 
REMARK       I    between atoms: C_5  and  N_6 
REMARK    3  A    between atoms: N_6  and  C_7 
REMARK    4  A    between atoms: C_7  and  C_8 
REMARK    5  A    between atoms: C_10  and  C_11 
ROOT
HETATM    1  N   UNL     1     -43.838  58.815 -55.353  1.00  0.00    -0.218 N 
HETATM    2  H   UNL     1     -44.527  59.543 -55.236  1.00  0.00     0.178 HD
HETATM    3  C   UNL     1     -43.254  58.371 -54.214  1.00  0.00     0.670 C 
HETATM    4  N   UNL     1     -42.179  57.548 -54.265  1.00  0.00    -0.221 N 
HETATM    5  N   UNL     1     -43.760  58.763 -53.023  1.00  0.00    -0.231 N 
HETATM    6  C   UNL     1     -45.005  59.490 -52.809  1.00  0.00     0.165 C 
HETATM    7  H   UNL     1     -41.686  57.500 -55.145  1.00  0.00     0.178 HD
HETATM    8  H   UNL     1     -43.109  58.690 -52.239  1.00  0.00     0.177 HD
ENDROOT
BRANCH   4   9
HETATM    9  C   UNL     1     -41.643  56.769 -53.139  1.00  0.00     0.199 C 
BRANCH   9  10
HETATM   10  C   UNL     1     -41.036  55.503 -53.614  1.00  0.00     0.077 A 
HETATM   11  N   UNL     1     -41.122  54.346 -52.862  1.00  0.00    -0.225 NA
HETATM   12  C   UNL     1     -40.459  53.449 -53.576  1.00  0.00     0.179 A 
HETATM   13  O   UNL     1     -40.002  53.927 -54.775  1.00  0.00    -0.301 OA
HETATM   14  C   UNL     1     -40.372  55.237 -54.787  1.00  0.00     0.173 A 
BRANCH  12  15
HETATM   15  C   UNL     1     -40.132  52.067 -53.247  1.00  0.00     0.017 A 
HETATM   16  C   UNL     1     -39.787  51.731 -51.928  1.00  0.00     0.016 A 
HETATM   17  C   UNL     1     -39.453  50.418 -51.589  1.00  0.00     0.001 A 
HETATM   18  C   UNL     1     -39.470  49.423 -52.563  1.00  0.00     0.000 A 
HETATM   19  C   UNL     1     -39.817  49.738 -53.876  1.00  0.00     0.001 A 
HETATM   20  C   UNL     1     -40.142  51.054 -54.217  1.00  0.00     0.016 A 
ENDBRANCH  12  15
ENDBRANCH   9  10
ENDBRANCH   4   9
BRANCH   1  21
HETATM   21  C   UNL     1     -43.598  58.396 -56.749  1.00  0.00     0.135 C 
HETATM   22  C   UNL     1     -42.706  59.369 -57.518  1.00  0.00     0.038 C 
BRANCH  21  23
HETATM   23  C   UNL     1     -44.884  58.082 -57.474  1.00  0.00     0.005 A 
HETATM   24  S   UNL     1     -44.928  57.328 -59.018  1.00  0.00    -0.104 SA
HETATM   25  C   UNL     1     -46.631  57.383 -59.088  1.00  0.00     0.050 A 
HETATM   26  C   UNL     1     -47.173  57.970 -57.969  1.00  0.00     0.008 A 
HETATM   27  C   UNL     1     -46.168  58.377 -57.044  1.00  0.00     0.017 A 
ENDBRANCH  21  23
ENDBRANCH   1  21
TORSDOF 5
ENDMDL
MODEL 7
REMARK VINA RESULT:      -6.7      3.416      4.614
REMARK  5 active torsions:
REMARK  status: ('A' for Active; 'I' for Inactive)
REMARK    1  A    between atoms: C_2  and  N_3 
REMARK    2  A    between atoms: C_2  and  C_21 
REMARK       I    between atoms: N_3  and  C_5 
REMARK       I    between atoms: C_5  and  N_6 
REMARK    3  A    between atoms: N_6  and  C_7 
REMARK    4  A    between atoms: C_7  and  C_8 
REMARK    5  A    between atoms: C_10  and  C_11 
ROOT
HETATM    1  N   UNL     1     -44.741  59.359 -57.151  1.00  0.00    -0.218 N 
HETATM    2  H   UNL     1     -45.476  59.737 -57.730  1.00  0.00     0.178 HD
HETATM    3  C   UNL     1     -45.118  58.398 -56.276  1.00  0.00     0.670 C 
HETATM    4  N   UNL     1     -44.265  57.966 -55.315  1.00  0.00    -0.221 N 
HETATM    5  N   UNL     1     -46.361  57.874 -56.373  1.00  0.00    -0.231 N 
HETATM    6  C   UNL     1     -47.314  58.104 -57.452  1.00  0.00     0.165 C 
HETATM    7  H   UNL     1     -43.470  58.555 -55.116  1.00  0.00     0.178 HD
HETATM    8  H   UNL     1     -46.703  57.427 -55.520  1.00  0.00     0.177 HD
ENDROOT
BRANCH   4   9
HETATM    9  C   UNL     1     -44.432  56.747 -54.508  1.00  0.00     0.199 C 
BRANCH   9  10
HETATM   10  C   UNL     1     -43.263  55.848 -54.663  1.00  0.00     0.077 A 
HETATM   11  N   UNL     1     -42.981  54.878 -53.719  1.00  0.00    -0.225 NA
HETATM   12  C   UNL     1     -41.878  54.301 -54.172  1.00  0.00     0.179 A 
HETATM   13  O   UNL     1     -41.458  54.786 -55.381  1.00  0.00    -0.301 OA
HETATM   14  C   UNL     1     -42.345  55.773 -55.683  1.00  0.00     0.173 A 
BRANCH  12  15
HETATM   15  C   UNL     1     -41.055  53.269 -53.551  1.00  0.00     0.017 A 
HETATM   16  C   UNL     1     -40.653  53.414 -52.213  1.00  0.00     0.016 A 
HETATM   17  C   UNL     1     -39.852  52.449 -51.600  1.00  0.00     0.001 A 
HETATM   18  C   UNL     1     -39.452  51.322 -52.314  1.00  0.00     0.000 A 
HETATM   19  C   UNL     1     -39.848  51.160 -53.640  1.00  0.00     0.001 A 
HETATM   20  C   UNL     1     -40.642  52.130 -54.256  1.00  0.00     0.016 A 
ENDBRANCH  12  15
ENDBRANCH   9  10
ENDBRANCH   4   9
BRANCH   1  21
HETATM   21  C   UNL     1     -43.404  59.950 -57.370  1.00  0.00     0.135 C 
HETATM   22  C   UNL     1     -43.396  61.471 -57.233  1.00  0.00     0.038 C 
BRANCH  21  23
HETATM   23  C   UNL     1     -42.780  59.474 -58.659  1.00  0.00     0.005 A 
HETATM   24  S   UNL     1     -42.440  60.523 -59.977  1.00  0.00    -0.104 SA
HETATM   25  C   UNL     1     -41.832  59.253 -60.939  1.00  0.00     0.050 A 
HETATM   26  C   UNL     1     -41.888  58.043 -60.287  1.00  0.00     0.008 A 
HETATM   27  C   UNL     1     -42.439  58.169 -58.979  1.00  0.00     0.017 A 
ENDBRANCH  21  23
ENDBRANCH   1  21
TORSDOF 5
ENDMDL
MODEL 8
REMARK VINA RESULT:      -6.6      2.550      3.455
REMARK  5 active torsions:
REMARK  status: ('A' for Active; 'I' for Inactive)
REMARK    1  A    between atoms: C_2  and  N_3 
REMARK    2  A    between atoms: C_2  and  C_21 
REMARK       I    between atoms: N_3  and  C_5 
REMARK       I    between atoms: C_5  and  N_6 
REMARK    3  A    between atoms: N_6  and  C_7 
REMARK    4  A    between atoms: C_7  and  C_8 
REMARK    5  A    between atoms: C_10  and  C_11 
ROOT
HETATM    1  N   UNL     1     -44.175  56.778 -55.583  1.00  0.00    -0.218 N 
HETATM    2  H   UNL     1     -45.029  56.241 -55.554  1.00  0.00     0.178 HD
HETATM    3  C   UNL     1     -43.245  56.452 -54.655  1.00  0.00     0.670 C 
HETATM    4  N   UNL     1     -42.154  57.233 -54.468  1.00  0.00    -0.221 N 
HETATM    5  N   UNL     1     -43.422  55.334 -53.914  1.00  0.00    -0.231 N 
HETATM    6  C   UNL     1     -44.439  54.311 -54.122  1.00  0.00     0.165 C 
HETATM    7  H   UNL     1     -42.197  58.170 -54.841  1.00  0.00     0.178 HD
HETATM    8  H   UNL     1     -42.902  55.319 -53.035  1.00  0.00     0.177 HD
ENDROOT
BRANCH   4   9
HETATM    9  C   UNL     1     -40.945  56.849 -53.723  1.00  0.00     0.199 C 
BRANCH   9  10
HETATM   10  C   UNL     1     -40.585  55.436 -53.991  1.00  0.00     0.077 A 
HETATM   11  N   UNL     1     -40.644  54.484 -52.991  1.00  0.00    -0.225 NA
HETATM   12  C   UNL     1     -40.238  53.371 -53.583  1.00  0.00     0.179 A 
HETATM   13  O   UNL     1     -39.980  53.519 -54.919  1.00  0.00    -0.301 OA
HETATM   14  C   UNL     1     -40.201  54.839 -55.168  1.00  0.00     0.173 A 
BRANCH  12  15
HETATM   15  C   UNL     1     -40.002  52.053 -53.006  1.00  0.00     0.017 A 
HETATM   16  C   UNL     1     -39.908  50.933 -53.848  1.00  0.00     0.016 A 
HETATM   17  C   UNL     1     -39.698  49.658 -53.320  1.00  0.00     0.001 A 
HETATM   18  C   UNL     1     -39.571  49.487 -51.943  1.00  0.00     0.000 A 
HETATM   19  C   UNL     1     -39.656  50.589 -51.094  1.00  0.00     0.001 A 
HETATM   20  C   UNL     1     -39.874  51.864 -51.622  1.00  0.00     0.016 A 
ENDBRANCH  12  15
ENDBRANCH   9  10
ENDBRANCH   4   9
BRANCH   1  21
HETATM   21  C   UNL     1     -44.127  57.823 -56.626  1.00  0.00     0.135 C 
HETATM   22  C   UNL     1     -45.493  58.439 -56.916  1.00  0.00     0.038 C 
BRANCH  21  23
HETATM   23  C   UNL     1     -43.422  57.345 -57.873  1.00  0.00     0.005 A 
HETATM   24  S   UNL     1     -42.374  58.346 -58.797  1.00  0.00    -0.104 SA
HETATM   25  C   UNL     1     -42.075  57.117 -59.941  1.00  0.00     0.050 A 
HETATM   26  C   UNL     1     -42.760  55.962 -59.646  1.00  0.00     0.008 A 
HETATM   27  C   UNL     1     -43.539  56.095 -58.460  1.00  0.00     0.017 A 
ENDBRANCH  21  23
ENDBRANCH   1  21
TORSDOF 5
ENDMDL
MODEL 9
REMARK VINA RESULT:      -6.6      2.666      5.962
REMARK  5 active torsions:
REMARK  status: ('A' for Active; 'I' for Inactive)
REMARK    1  A    between atoms: C_2  and  N_3 
REMARK    2  A    between atoms: C_2  and  C_21 
REMARK       I    between atoms: N_3  and  C_5 
REMARK       I    between atoms: C_5  and  N_6 
REMARK    3  A    between atoms: N_6  and  C_7 
REMARK    4  A    between atoms: C_7  and  C_8 
REMARK    5  A    between atoms: C_10  and  C_11 
ROOT
HETATM    1  N   UNL     1     -41.246  55.969 -50.858  1.00  0.00    -0.218 N 
HETATM    2  H   UNL     1     -40.307  56.248 -50.614  1.00  0.00     0.178 HD
HETATM    3  C   UNL     1     -42.181  56.946 -50.802  1.00  0.00     0.670 C 
HETATM    4  N   UNL     1     -43.498  56.648 -50.910  1.00  0.00    -0.221 N 
HETATM    5  N   UNL     1     -41.781  58.228 -50.636  1.00  0.00    -0.231 N 
HETATM    6  C   UNL     1     -40.409  58.719 -50.686  1.00  0.00     0.165 C 
HETATM    7  H   UNL     1     -43.758  55.682 -50.766  1.00  0.00     0.178 HD
HETATM    8  H   UNL     1     -42.500  58.853 -50.269  1.00  0.00     0.177 HD
ENDROOT
BRANCH   4   9
HETATM    9  C   UNL     1     -44.577  57.615 -51.160  1.00  0.00     0.199 C 
BRANCH   9  10
HETATM   10  C   UNL     1     -44.637  57.978 -52.596  1.00  0.00     0.077 A 
HETATM   11  N   UNL     1     -44.305  57.062 -53.577  1.00  0.00    -0.225 NA
HETATM   12  C   UNL     1     -44.451  57.736 -54.708  1.00  0.00     0.179 A 
HETATM   13  O   UNL     1     -44.918  59.011 -54.535  1.00  0.00    -0.301 OA
HETATM   14  C   UNL     1     -45.030  59.155 -53.186  1.00  0.00     0.173 A 
BRANCH  12  15
HETATM   15  C   UNL     1     -44.153  57.320 -56.074  1.00  0.00     0.017 A 
HETATM   16  C   UNL     1     -44.776  57.973 -57.149  1.00  0.00     0.016 A 
HETATM   17  C   UNL     1     -44.520  57.584 -58.466  1.00  0.00     0.001 A 
HETATM   18  C   UNL     1     -43.631  56.543 -58.723  1.00  0.00     0.000 A 
HETATM   19  C   UNL     1     -42.999  55.889 -57.667  1.00  0.00     0.001 A 
HETATM   20  C   UNL     1     -43.261  56.273 -56.349  1.00  0.00     0.016 A 
ENDBRANCH  12  15
ENDBRANCH   9  10
ENDBRANCH   4   9
BRANCH   1  21
HETATM   21  C   UNL     1     -41.405  54.543 -51.210  1.00  0.00     0.135 C 
HETATM   22  C   UNL     1     -40.793  53.601 -50.176  1.00  0.00     0.038 C 
BRANCH  21  23
HETATM   23  C   UNL     1     -40.939  54.252 -52.616  1.00  0.00     0.005 A 
HETATM   24  S   UNL     1     -40.795  55.468 -53.824  1.00  0.00    -0.104 SA
HETATM   25  C   UNL     1     -40.283  54.349 -55.005  1.00  0.00     0.050 A 
HETATM   26  C   UNL     1     -40.226  53.068 -54.509  1.00  0.00     0.008 A 
HETATM   27  C   UNL     1     -40.609  53.012 -53.138  1.00  0.00     0.017 A 
ENDBRANCH  21  23
ENDBRANCH   1  21
TORSDOF 5
ENDMDL
MODEL 10
REMARK VINA RESULT:      -6.5     15.008     16.866
REMARK  5 active torsions:
REMARK  status: ('A' for Active; 'I' for Inactive)
REMARK    1  A    between atoms: C_2  and  N_3 
REMARK    2  A    between atoms: C_2  and  C_21 
REMARK       I    between atoms: N_3  and  C_5 
REMARK       I    between atoms: C_5  and  N_6 
REMARK    3  A    between atoms: N_6  and  C_7 
REMARK    4  A    between atoms: C_7  and  C_8 
REMARK    5  A    between atoms: C_10  and  C_11 
ROOT
HETATM    1  N   UNL     1     -37.168  40.338 -60.797  1.00  0.00    -0.218 N 
HETATM    2  H   UNL     1     -36.997  40.841 -61.655  1.00  0.00     0.178 HD
HETATM    3  C   UNL     1     -37.274  41.098 -59.682  1.00  0.00     0.670 C 
HETATM    4  N   UNL     1     -37.301  40.523 -58.455  1.00  0.00    -0.221 N 
HETATM    5  N   UNL     1     -37.352  42.442 -59.810  1.00  0.00    -0.231 N 
HETATM    6  C   UNL     1     -37.517  43.184 -61.054  1.00  0.00     0.165 C 
HETATM    7  H   UNL     1     -36.978  39.568 -58.394  1.00  0.00     0.178 HD
HETATM    8  H   UNL     1     -37.092  42.965 -58.972  1.00  0.00     0.177 HD
ENDROOT
BRANCH   4   9
HETATM    9  C   UNL     1     -37.703  41.188 -57.207  1.00  0.00     0.199 C 
BRANCH   9  10
HETATM   10  C   UNL     1     -36.527  41.445 -56.342  1.00  0.00     0.077 A 
HETATM   11  N   UNL     1     -36.415  40.855 -55.097  1.00  0.00    -0.225 NA
HETATM   12  C   UNL     1     -35.274  41.326 -54.619  1.00  0.00     0.179 A 
HETATM   13  O   UNL     1     -34.600  42.134 -55.496  1.00  0.00    -0.301 OA
HETATM   14  C   UNL     1     -35.409  42.205 -56.588  1.00  0.00     0.173 A 
BRANCH  12  15
HETATM   15  C   UNL     1     -34.673  41.131 -53.305  1.00  0.00     0.017 A 
HETATM   16  C   UNL     1     -35.237  41.762 -52.184  1.00  0.00     0.016 A 
HETATM   17  C   UNL     1     -34.672  41.604 -50.917  1.00  0.00     0.001 A 
HETATM   18  C   UNL     1     -33.543  40.806 -50.753  1.00  0.00     0.000 A 
HETATM   19  C   UNL     1     -32.975  40.168 -51.854  1.00  0.00     0.001 A 
HETATM   20  C   UNL     1     -33.535  40.332 -53.124  1.00  0.00     0.016 A 
ENDBRANCH  12  15
ENDBRANCH   9  10
ENDBRANCH   4   9
BRANCH   1  21
HETATM   21  C   UNL     1     -37.251  38.869 -60.938  1.00  0.00     0.135 C 
HETATM   22  C   UNL     1     -36.276  38.314 -61.973  1.00  0.00     0.038 C 
BRANCH  21  23
HETATM   23  C   UNL     1     -38.669  38.402 -61.158  1.00  0.00     0.005 A 
HETATM   24  S   UNL     1     -39.272  37.938 -62.700  1.00  0.00    -0.104 SA
HETATM   25  C   UNL     1     -40.830  37.615 -62.085  1.00  0.00     0.050 A 
HETATM   26  C   UNL     1     -40.910  37.860 -60.734  1.00  0.00     0.008 A 
HETATM   27  C   UNL     1     -39.669  38.318 -60.203  1.00  0.00     0.017 A 
ENDBRANCH  21  23
ENDBRANCH   1  21
TORSDOF 5
ENDMDL
