MODEL 1
REMARK VINA RESULT:      -8.5      0.000      0.000
REMARK  5 active torsions:
REMARK  status: ('A' for Active; 'I' for Inactive)
REMARK    1  A    between atoms: C_4  and  C_5 
REMARK    2  A    between atoms: C_5  and  C_6 
REMARK    3  A    between atoms: C_12  and  S_13 
REMARK    4  A    between atoms: S_13  and  C_14 
REMARK    5  A    between atoms: C_14  and  C_15 
ROOT
HETATM    1  C   UNL     1     -41.881  53.698 -54.382  1.00  0.00     0.283 C 
HETATM    2  O   UNL     1     -42.468  53.646 -53.093  1.00  0.00    -0.303 OA
HETATM    3  C   UNL     1     -41.597  54.131 -52.154  1.00  0.00     0.201 A 
HETATM    4  C   UNL     1     -40.532  53.358 -51.726  1.00  0.00     0.144 A 
HETATM    5  N   UNL     1     -39.755  53.841 -50.738  1.00  0.00    -0.142 NA
HETATM    6  N   UNL     1     -40.044  55.070 -50.211  1.00  0.00    -0.122 NA
HETATM    7  C   UNL     1     -41.099  55.776 -50.681  1.00  0.00     0.212 A 
HETATM    8  N   UNL     1     -41.918  55.337 -51.649  1.00  0.00    -0.195 NA
HETATM    9  C   UNL     1     -40.215  52.049 -52.293  1.00  0.00     0.020 A 
HETATM   10  C   UNL     1     -40.413  51.774 -53.665  1.00  0.00     0.023 A 
HETATM   11  N   UNL     1     -40.785  52.730 -54.619  1.00  0.00    -0.259 NA
HETATM   12  C   UNL     1     -39.697  51.031 -51.465  1.00  0.00     0.016 A 
HETATM   13  C   UNL     1     -39.362  49.777 -51.975  1.00  0.00     0.001 A 
HETATM   14  C   UNL     1     -39.518  49.524 -53.331  1.00  0.00     0.002 A 
HETATM   15  C   UNL     1     -40.020  50.521 -54.166  1.00  0.00     0.024 A 
HETATM   16  H   UNL     1     -39.952  53.253 -54.913  1.00  0.00     0.130 HD
ENDROOT
BRANCH   7  17
HETATM   17  S   UNL     1     -41.459  57.364 -49.984  1.00  0.00    -0.084 SA
BRANCH  17  18
HETATM   18  C   UNL     1     -40.340  58.389 -50.987  1.00  0.00     0.121 C 
BRANCH  18  19
HETATM   19  C   UNL     1     -41.091  59.116 -52.076  1.00  0.00    -0.048 A 
HETATM   20  C   UNL     1     -42.089  60.048 -51.751  1.00  0.00     0.009 A 
HETATM   21  C   UNL     1     -42.792  60.714 -52.759  1.00  0.00     0.024 A 
HETATM   22  C   UNL     1     -42.506  60.446 -54.096  1.00  0.00     0.034 A 
HETATM   23 CL   UNL     1     -43.374  61.265 -55.335  1.00  0.00    -0.084 Cl
HETATM   24  C   UNL     1     -41.525  59.518 -54.435  1.00  0.00     0.024 A 
HETATM   25  C   UNL     1     -40.821  58.853 -53.428  1.00  0.00     0.009 A 
ENDBRANCH  18  19
ENDBRANCH  17  18
ENDBRANCH   7  17
BRANCH   1  26
HETATM   26  C   UNL     1     -41.446  55.107 -54.873  1.00  0.00     0.203 C 
HETATM   27  O   UNL     1     -40.257  55.441 -54.873  1.00  0.00    -0.288 OA
BRANCH  26  28
HETATM   28  C   UNL     1     -42.483  56.055 -55.388  1.00  0.00     0.014 A 
HETATM   29  C   UNL     1     -42.458  56.576 -56.688  1.00  0.00     0.015 A 
HETATM   30  C   UNL     1     -43.441  57.477 -57.104  1.00  0.00     0.001 A 
HETATM   31  C   UNL     1     -44.454  57.865 -56.230  1.00  0.00     0.000 A 
HETATM   32  C   UNL     1     -44.491  57.349 -54.937  1.00  0.00     0.001 A 
HETATM   33  C   UNL     1     -43.510  56.448 -54.517  1.00  0.00     0.015 A 
ENDBRANCH  26  28
ENDBRANCH   1  26
TORSDOF 5
ENDMDL
MODEL 2
REMARK VINA RESULT:      -8.5      3.126      6.715
REMARK  5 active torsions:
REMARK  status: ('A' for Active; 'I' for Inactive)
REMARK    1  A    between atoms: C_4  and  C_5 
REMARK    2  A    between atoms: C_5  and  C_6 
REMARK    3  A    between atoms: C_12  and  S_13 
REMARK    4  A    between atoms: S_13  and  C_14 
REMARK    5  A    between atoms: C_14  and  C_15 
ROOT
HETATM    1  C   UNL     1     -42.237  55.278 -56.283  1.00  0.00     0.283 C 
HETATM    2  O   UNL     1     -41.950  56.641 -56.024  1.00  0.00    -0.303 OA
HETATM    3  C   UNL     1     -43.059  57.274 -55.530  1.00  0.00     0.201 A 
HETATM    4  C   UNL     1     -44.094  57.629 -56.377  1.00  0.00     0.144 A 
HETATM    5  N   UNL     1     -45.123  58.328 -55.862  1.00  0.00    -0.142 NA
HETATM    6  N   UNL     1     -45.105  58.648 -54.532  1.00  0.00    -0.122 NA
HETATM    7  C   UNL     1     -44.063  58.265 -53.759  1.00  0.00     0.212 A 
HETATM    8  N   UNL     1     -43.002  57.584 -54.221  1.00  0.00    -0.195 NA
HETATM    9  C   UNL     1     -44.121  57.281 -57.797  1.00  0.00     0.020 A 
HETATM   10  C   UNL     1     -43.592  56.058 -58.265  1.00  0.00     0.023 A 
HETATM   11  N   UNL     1     -43.131  55.026 -57.437  1.00  0.00    -0.259 NA
HETATM   12  C   UNL     1     -44.688  58.176 -58.728  1.00  0.00     0.016 A 
HETATM   13  C   UNL     1     -44.752  57.869 -60.088  1.00  0.00     0.001 A 
HETATM   14  C   UNL     1     -44.268  56.649 -60.538  1.00  0.00     0.002 A 
HETATM   15  C   UNL     1     -43.713  55.748 -59.630  1.00  0.00     0.024 A 
HETATM   16  H   UNL     1     -43.933  54.475 -57.109  1.00  0.00     0.130 HD
ENDROOT
BRANCH   7  17
HETATM   17  S   UNL     1     -44.056  58.690 -52.039  1.00  0.00    -0.084 SA
BRANCH  17  18
HETATM   18  C   UNL     1     -44.483  57.070 -51.331  1.00  0.00     0.121 C 
BRANCH  18  19
HETATM   19  C   UNL     1     -43.260  56.367 -50.792  1.00  0.00    -0.048 A 
HETATM   20  C   UNL     1     -43.352  55.056 -50.302  1.00  0.00     0.009 A 
HETATM   21  C   UNL     1     -42.222  54.409 -49.793  1.00  0.00     0.024 A 
HETATM   22  C   UNL     1     -40.998  55.072 -49.766  1.00  0.00     0.034 A 
HETATM   23 CL   UNL     1     -39.608  54.274 -49.137  1.00  0.00    -0.084 Cl
HETATM   24  C   UNL     1     -40.891  56.377 -50.242  1.00  0.00     0.024 A 
HETATM   25  C   UNL     1     -42.020  57.024 -50.751  1.00  0.00     0.009 A 
ENDBRANCH  18  19
ENDBRANCH  17  18
ENDBRANCH   7  17
BRANCH   1  26
HETATM   26  C   UNL     1     -42.713  54.441 -55.063  1.00  0.00     0.203 C 
HETATM   27  O   UNL     1     -43.901  54.435 -54.721  1.00  0.00    -0.288 OA
BRANCH  26  28
HETATM   28  C   UNL     1     -41.723  53.603 -54.317  1.00  0.00     0.014 A 
HETATM   29  C   UNL     1     -41.021  54.071 -53.198  1.00  0.00     0.015 A 
HETATM   30  C   UNL     1     -40.090  53.250 -52.558  1.00  0.00     0.001 A 
HETATM   31  C   UNL     1     -39.851  51.959 -53.027  1.00  0.00     0.000 A 
HETATM   32  C   UNL     1     -40.547  51.483 -54.135  1.00  0.00     0.001 A 
HETATM   33  C   UNL     1     -41.480  52.301 -54.778  1.00  0.00     0.015 A 
ENDBRANCH  26  28
ENDBRANCH   1  26
TORSDOF 5
ENDMDL
MODEL 3
REMARK VINA RESULT:      -8.2      3.023      5.703
REMARK  5 active torsions:
REMARK  status: ('A' for Active; 'I' for Inactive)
REMARK    1  A    between atoms: C_4  and  C_5 
REMARK    2  A    between atoms: C_5  and  C_6 
REMARK    3  A    between atoms: C_12  and  S_13 
REMARK    4  A    between atoms: S_13  and  C_14 
REMARK    5  A    between atoms: C_14  and  C_15 
ROOT
HETATM    1  C   UNL     1     -41.058  55.603 -51.699  1.00  0.00     0.283 C 
HETATM    2  O   UNL     1     -40.592  55.881 -53.008  1.00  0.00    -0.303 OA
HETATM    3  C   UNL     1     -41.509  55.467 -53.937  1.00  0.00     0.201 A 
HETATM    4  C   UNL     1     -41.635  54.123 -54.241  1.00  0.00     0.144 A 
HETATM    5  N   UNL     1     -42.486  53.773 -55.224  1.00  0.00    -0.142 NA
HETATM    6  N   UNL     1     -43.192  54.752 -55.868  1.00  0.00    -0.122 NA
HETATM    7  C   UNL     1     -43.024  56.048 -55.515  1.00  0.00     0.212 A 
HETATM    8  N   UNL     1     -42.177  56.458 -54.558  1.00  0.00    -0.195 NA
HETATM    9  C   UNL     1     -40.889  53.073 -53.550  1.00  0.00     0.020 A 
HETATM   10  C   UNL     1     -40.590  53.168 -52.173  1.00  0.00     0.023 A 
HETATM   11  N   UNL     1     -41.078  54.170 -51.324  1.00  0.00    -0.259 NA
HETATM   12  C   UNL     1     -40.456  51.934 -54.261  1.00  0.00     0.016 A 
HETATM   13  C   UNL     1     -39.762  50.901 -53.631  1.00  0.00     0.001 A 
HETATM   14  C   UNL     1     -39.506  50.979 -52.269  1.00  0.00     0.002 A 
HETATM   15  C   UNL     1     -39.935  52.093 -51.548  1.00  0.00     0.024 A 
HETATM   16  H   UNL     1     -42.032  53.927 -51.031  1.00  0.00     0.130 HD
ENDROOT
BRANCH   7  17
HETATM   17  S   UNL     1     -43.945  57.303 -56.361  1.00  0.00    -0.084 SA
BRANCH  17  18
HETATM   18  C   UNL     1     -43.412  56.963 -58.067  1.00  0.00     0.121 C 
BRANCH  18  19
HETATM   19  C   UNL     1     -44.595  56.845 -58.998  1.00  0.00    -0.048 A 
HETATM   20  C   UNL     1     -45.675  57.735 -58.891  1.00  0.00     0.009 A 
HETATM   21  C   UNL     1     -46.775  57.619 -59.745  1.00  0.00     0.024 A 
HETATM   22  C   UNL     1     -46.803  56.611 -60.706  1.00  0.00     0.034 A 
HETATM   23 CL   UNL     1     -48.159  56.469 -61.756  1.00  0.00    -0.084 Cl
HETATM   24  C   UNL     1     -45.743  55.715 -60.820  1.00  0.00     0.024 A 
HETATM   25  C   UNL     1     -44.643  55.831 -59.967  1.00  0.00     0.009 A 
ENDBRANCH  18  19
ENDBRANCH  17  18
ENDBRANCH   7  17
BRANCH   1  26
HETATM   26  C   UNL     1     -42.410  56.262 -51.306  1.00  0.00     0.203 C 
HETATM   27  O   UNL     1     -43.421  55.577 -51.120  1.00  0.00    -0.288 OA
BRANCH  26  28
HETATM   28  C   UNL     1     -42.473  57.745 -51.114  1.00  0.00     0.014 A 
HETATM   29  C   UNL     1     -43.612  58.502 -51.415  1.00  0.00     0.015 A 
HETATM   30  C   UNL     1     -43.602  59.889 -51.237  1.00  0.00     0.001 A 
HETATM   31  C   UNL     1     -42.460  60.528 -50.759  1.00  0.00     0.000 A 
HETATM   32  C   UNL     1     -41.325  59.783 -50.452  1.00  0.00     0.001 A 
HETATM   33  C   UNL     1     -41.330  58.397 -50.628  1.00  0.00     0.015 A 
ENDBRANCH  26  28
ENDBRANCH   1  26
TORSDOF 5
ENDMDL
MODEL 4
REMARK VINA RESULT:      -8.1      2.035      2.774
REMARK  5 active torsions:
REMARK  status: ('A' for Active; 'I' for Inactive)
REMARK    1  A    between atoms: C_4  and  C_5 
REMARK    2  A    between atoms: C_5  and  C_6 
REMARK    3  A    between atoms: C_12  and  S_13 
REMARK    4  A    between atoms: S_13  and  C_14 
REMARK    5  A    between atoms: C_14  and  C_15 
ROOT
HETATM    1  C   UNL     1     -42.364  54.455 -55.231  1.00  0.00     0.283 C 
HETATM    2  O   UNL     1     -43.300  54.257 -54.185  1.00  0.00    -0.303 OA
HETATM    3  C   UNL     1     -42.968  55.023 -53.099  1.00  0.00     0.201 A 
HETATM    4  C   UNL     1     -41.928  54.642 -52.271  1.00  0.00     0.144 A 
HETATM    5  N   UNL     1     -41.696  55.377 -51.166  1.00  0.00    -0.142 NA
HETATM    6  N   UNL     1     -42.487  56.465 -50.918  1.00  0.00    -0.122 NA
HETATM    7  C   UNL     1     -43.485  56.784 -51.774  1.00  0.00     0.212 A 
HETATM    8  N   UNL     1     -43.775  56.078 -52.879  1.00  0.00    -0.195 NA
HETATM    9  C   UNL     1     -41.075  53.485 -52.537  1.00  0.00     0.020 A 
HETATM   10  C   UNL     1     -40.720  53.121 -53.855  1.00  0.00     0.023 A 
HETATM   11  N   UNL     1     -41.020  53.879 -54.994  1.00  0.00    -0.259 NA
HETATM   12  C   UNL     1     -40.585  52.711 -51.464  1.00  0.00     0.016 A 
HETATM   13  C   UNL     1     -39.751  51.614 -51.678  1.00  0.00     0.001 A 
HETATM   14  C   UNL     1     -39.371  51.283 -52.972  1.00  0.00     0.002 A 
HETATM   15  C   UNL     1     -39.838  52.043 -54.044  1.00  0.00     0.024 A 
HETATM   16  H   UNL     1     -40.326  54.631 -55.089  1.00  0.00     0.130 HD
ENDROOT
BRANCH   7  17
HETATM   17  S   UNL     1     -44.500  58.195 -51.435  1.00  0.00    -0.084 SA
BRANCH  17  18
HETATM   18  C   UNL     1     -43.521  59.475 -52.277  1.00  0.00     0.121 C 
BRANCH  18  19
HETATM   19  C   UNL     1     -42.078  59.443 -51.832  1.00  0.00    -0.048 A 
HETATM   20  C   UNL     1     -41.068  59.047 -52.723  1.00  0.00     0.009 A 
HETATM   21  C   UNL     1     -39.734  59.006 -52.309  1.00  0.00     0.024 A 
HETATM   22  C   UNL     1     -39.404  59.355 -51.002  1.00  0.00     0.034 A 
HETATM   23 CL   UNL     1     -37.761  59.302 -50.493  1.00  0.00    -0.084 Cl
HETATM   24  C   UNL     1     -40.395  59.743 -50.103  1.00  0.00     0.024 A 
HETATM   25  C   UNL     1     -41.728  59.785 -50.517  1.00  0.00     0.009 A 
ENDBRANCH  18  19
ENDBRANCH  17  18
ENDBRANCH   7  17
BRANCH   1  26
HETATM   26  C   UNL     1     -42.222  55.914 -55.748  1.00  0.00     0.203 C 
HETATM   27  O   UNL     1     -41.360  56.670 -55.289  1.00  0.00    -0.288 OA
BRANCH  26  28
HETATM   28  C   UNL     1     -43.120  56.392 -56.845  1.00  0.00     0.014 A 
HETATM   29  C   UNL     1     -43.157  55.795 -58.112  1.00  0.00     0.015 A 
HETATM   30  C   UNL     1     -44.000  56.302 -59.104  1.00  0.00     0.001 A 
HETATM   31  C   UNL     1     -44.810  57.405 -58.842  1.00  0.00     0.000 A 
HETATM   32  C   UNL     1     -44.785  58.002 -57.585  1.00  0.00     0.001 A 
HETATM   33  C   UNL     1     -43.944  57.498 -56.589  1.00  0.00     0.015 A 
ENDBRANCH  26  28
ENDBRANCH   1  26
TORSDOF 5
ENDMDL
MODEL 5
REMARK VINA RESULT:      -8.1      2.296      4.362
REMARK  5 active torsions:
REMARK  status: ('A' for Active; 'I' for Inactive)
REMARK    1  A    between atoms: C_4  and  C_5 
REMARK    2  A    between atoms: C_5  and  C_6 
REMARK    3  A    between atoms: C_12  and  S_13 
REMARK    4  A    between atoms: S_13  and  C_14 
REMARK    5  A    between atoms: C_14  and  C_15 
ROOT
HETATM    1  C   UNL     1     -41.307  55.919 -51.774  1.00  0.00     0.283 C 
HETATM    2  O   UNL     1     -40.766  56.250 -53.041  1.00  0.00    -0.303 OA
HETATM    3  C   UNL     1     -41.594  55.812 -54.041  1.00  0.00     0.201 A 
HETATM    4  C   UNL     1     -41.629  54.472 -54.380  1.00  0.00     0.144 A 
HETATM    5  N   UNL     1     -42.390  54.102 -55.427  1.00  0.00    -0.142 NA
HETATM    6  N   UNL     1     -43.100  55.060 -56.099  1.00  0.00    -0.122 NA
HETATM    7  C   UNL     1     -43.024  56.354 -55.710  1.00  0.00     0.212 A 
HETATM    8  N   UNL     1     -42.268  56.783 -54.687  1.00  0.00    -0.195 NA
HETATM    9  C   UNL     1     -40.879  53.445 -53.659  1.00  0.00     0.020 A 
HETATM   10  C   UNL     1     -40.682  53.522 -52.262  1.00  0.00     0.023 A 
HETATM   11  N   UNL     1     -41.278  54.478 -51.430  1.00  0.00    -0.259 NA
HETATM   12  C   UNL     1     -40.340  52.346 -54.360  1.00  0.00     0.016 A 
HETATM   13  C   UNL     1     -39.638  51.335 -53.703  1.00  0.00     0.001 A 
HETATM   14  C   UNL     1     -39.482  51.393 -52.325  1.00  0.00     0.002 A 
HETATM   15  C   UNL     1     -40.016  52.467 -51.615  1.00  0.00     0.024 A 
HETATM   16  H   UNL     1     -42.236  54.180 -51.210  1.00  0.00     0.130 HD
ENDROOT
BRANCH   7  17
HETATM   17  S   UNL     1     -43.948  57.580 -56.594  1.00  0.00    -0.084 SA
BRANCH  17  18
HETATM   18  C   UNL     1     -44.970  58.220 -55.232  1.00  0.00     0.121 C 
BRANCH  18  19
HETATM   19  C   UNL     1     -44.534  59.608 -54.824  1.00  0.00    -0.048 A 
HETATM   20  C   UNL     1     -43.171  59.941 -54.785  1.00  0.00     0.009 A 
HETATM   21  C   UNL     1     -42.767  61.221 -54.397  1.00  0.00     0.024 A 
HETATM   22  C   UNL     1     -43.721  62.171 -54.041  1.00  0.00     0.034 A 
HETATM   23 CL   UNL     1     -43.221  63.747 -53.563  1.00  0.00    -0.084 Cl
HETATM   24  C   UNL     1     -45.077  61.854 -54.068  1.00  0.00     0.024 A 
HETATM   25  C   UNL     1     -45.482  60.574 -54.456  1.00  0.00     0.009 A 
ENDBRANCH  18  19
ENDBRANCH  17  18
ENDBRANCH   7  17
BRANCH   1  26
HETATM   26  C   UNL     1     -42.715  56.500 -51.464  1.00  0.00     0.203 C 
HETATM   27  O   UNL     1     -43.701  55.761 -51.369  1.00  0.00    -0.288 OA
BRANCH  26  28
HETATM   28  C   UNL     1     -42.867  57.971 -51.241  1.00  0.00     0.014 A 
HETATM   29  C   UNL     1     -41.776  58.823 -51.024  1.00  0.00     0.015 A 
HETATM   30  C   UNL     1     -41.983  60.187 -50.797  1.00  0.00     0.001 A 
HETATM   31  C   UNL     1     -43.274  60.710 -50.785  1.00  0.00     0.000 A 
HETATM   32  C   UNL     1     -44.364  59.872 -51.005  1.00  0.00     0.001 A 
HETATM   33  C   UNL     1     -44.163  58.509 -51.233  1.00  0.00     0.015 A 
ENDBRANCH  26  28
ENDBRANCH   1  26
TORSDOF 5
ENDMDL
MODEL 6
REMARK VINA RESULT:      -8.1      5.102      8.518
REMARK  5 active torsions:
REMARK  status: ('A' for Active; 'I' for Inactive)
REMARK    1  A    between atoms: C_4  and  C_5 
REMARK    2  A    between atoms: C_5  and  C_6 
REMARK    3  A    between atoms: C_12  and  S_13 
REMARK    4  A    between atoms: S_13  and  C_14 
REMARK    5  A    between atoms: C_14  and  C_15 
ROOT
HETATM    1  C   UNL     1     -42.641  58.941 -60.270  1.00  0.00     0.283 C 
HETATM    2  O   UNL     1     -41.616  58.519 -59.387  1.00  0.00    -0.303 OA
HETATM    3  C   UNL     1     -41.813  59.053 -58.141  1.00  0.00     0.201 A 
HETATM    4  C   UNL     1     -41.511  60.380 -57.896  1.00  0.00     0.144 A 
HETATM    5  N   UNL     1     -41.636  60.837 -56.635  1.00  0.00    -0.142 NA
HETATM    6  N   UNL     1     -42.063  59.977 -55.660  1.00  0.00    -0.122 NA
HETATM    7  C   UNL     1     -42.347  58.691 -55.971  1.00  0.00     0.212 A 
HETATM    8  N   UNL     1     -42.222  58.176 -57.205  1.00  0.00    -0.195 NA
HETATM    9  C   UNL     1     -41.062  61.304 -58.936  1.00  0.00     0.020 A 
HETATM   10  C   UNL     1     -41.557  61.220 -60.257  1.00  0.00     0.023 A 
HETATM   11  N   UNL     1     -42.592  60.368 -60.663  1.00  0.00    -0.259 NA
HETATM   12  C   UNL     1     -40.120  62.307 -58.627  1.00  0.00     0.016 A 
HETATM   13  C   UNL     1     -39.686  63.221 -59.588  1.00  0.00     0.001 A 
HETATM   14  C   UNL     1     -40.204  63.161 -60.874  1.00  0.00     0.002 A 
HETATM   15  C   UNL     1     -41.144  62.182 -61.195  1.00  0.00     0.024 A 
HETATM   16  H   UNL     1     -43.493  60.799 -60.425  1.00  0.00     0.130 HD
ENDROOT
BRANCH   7  17
HETATM   17  S   UNL     1     -42.897  57.592 -54.695  1.00  0.00    -0.084 SA
BRANCH  17  18
HETATM   18  C   UNL     1     -41.301  57.246 -53.894  1.00  0.00     0.121 C 
BRANCH  18  19
HETATM   19  C   UNL     1     -40.995  55.767 -53.896  1.00  0.00    -0.048 A 
HETATM   20  C   UNL     1     -41.181  55.001 -52.734  1.00  0.00     0.009 A 
HETATM   21  C   UNL     1     -40.888  53.635 -52.733  1.00  0.00     0.024 A 
HETATM   22  C   UNL     1     -40.403  53.029 -53.889  1.00  0.00     0.034 A 
HETATM   23 CL   UNL     1     -40.041  51.346 -53.884  1.00  0.00    -0.084 Cl
HETATM   24  C   UNL     1     -40.205  53.776 -55.047  1.00  0.00     0.024 A 
HETATM   25  C   UNL     1     -40.499  55.142 -55.050  1.00  0.00     0.009 A 
ENDBRANCH  18  19
ENDBRANCH  17  18
ENDBRANCH   7  17
BRANCH   1  26
HETATM   26  C   UNL     1     -44.091  58.565 -59.855  1.00  0.00     0.203 C 
HETATM   27  O   UNL     1     -44.883  59.427 -59.460  1.00  0.00    -0.288 OA
BRANCH  26  28
HETATM   28  C   UNL     1     -44.541  57.143 -59.974  1.00  0.00     0.014 A 
HETATM   29  C   UNL     1     -43.689  56.055 -59.744  1.00  0.00     0.015 A 
HETATM   30  C   UNL     1     -44.161  54.748 -59.895  1.00  0.00     0.001 A 
HETATM   31  C   UNL     1     -45.482  54.517 -60.274  1.00  0.00     0.000 A 
HETATM   32  C   UNL     1     -46.338  55.592 -60.498  1.00  0.00     0.001 A 
HETATM   33  C   UNL     1     -45.871  56.899 -60.348  1.00  0.00     0.015 A 
ENDBRANCH  26  28
ENDBRANCH   1  26
TORSDOF 5
ENDMDL
MODEL 7
REMARK VINA RESULT:      -8.0      2.962      6.329
REMARK  5 active torsions:
REMARK  status: ('A' for Active; 'I' for Inactive)
REMARK    1  A    between atoms: C_4  and  C_5 
REMARK    2  A    between atoms: C_5  and  C_6 
REMARK    3  A    between atoms: C_12  and  S_13 
REMARK    4  A    between atoms: S_13  and  C_14 
REMARK    5  A    between atoms: C_14  and  C_15 
ROOT
HETATM    1  C   UNL     1     -42.403  55.444 -56.021  1.00  0.00     0.283 C 
HETATM    2  O   UNL     1     -42.191  56.835 -55.854  1.00  0.00    -0.303 OA
HETATM    3  C   UNL     1     -43.374  57.466 -55.577  1.00  0.00     0.201 A 
HETATM    4  C   UNL     1     -44.290  57.703 -56.586  1.00  0.00     0.144 A 
HETATM    5  N   UNL     1     -45.399  58.405 -56.283  1.00  0.00    -0.142 NA
HETATM    6  N   UNL     1     -45.575  58.842 -54.999  1.00  0.00    -0.122 NA
HETATM    7  C   UNL     1     -44.640  58.570 -54.059  1.00  0.00     0.212 A 
HETATM    8  N   UNL     1     -43.508  57.892 -54.306  1.00  0.00    -0.195 NA
HETATM    9  C   UNL     1     -44.110  57.230 -57.957  1.00  0.00     0.020 A 
HETATM   10  C   UNL     1     -43.490  55.991 -58.233  1.00  0.00     0.023 A 
HETATM   11  N   UNL     1     -43.121  55.056 -57.257  1.00  0.00    -0.259 NA
HETATM   12  C   UNL     1     -44.566  58.016 -59.037  1.00  0.00     0.016 A 
HETATM   13  C   UNL     1     -44.432  57.587 -60.358  1.00  0.00     0.001 A 
HETATM   14  C   UNL     1     -43.858  56.351 -60.622  1.00  0.00     0.002 A 
HETATM   15  C   UNL     1     -43.411  55.557 -59.567  1.00  0.00     0.024 A 
HETATM   16  H   UNL     1     -43.947  54.506 -56.991  1.00  0.00     0.130 HD
ENDROOT
BRANCH   7  17
HETATM   17  S   UNL     1     -44.884  59.146 -52.402  1.00  0.00    -0.084 SA
BRANCH  17  18
HETATM   18  C   UNL     1     -43.916  57.893 -51.506  1.00  0.00     0.121 C 
BRANCH  18  19
HETATM   19  C   UNL     1     -42.550  58.418 -51.133  1.00  0.00    -0.048 A 
HETATM   20  C   UNL     1     -42.381  59.764 -50.773  1.00  0.00     0.009 A 
HETATM   21  C   UNL     1     -41.116  60.253 -50.438  1.00  0.00     0.024 A 
HETATM   22  C   UNL     1     -40.014  59.402 -50.467  1.00  0.00     0.034 A 
HETATM   23 CL   UNL     1     -38.456  60.006 -50.055  1.00  0.00    -0.084 Cl
HETATM   24  C   UNL     1     -40.164  58.065 -50.829  1.00  0.00     0.024 A 
HETATM   25  C   UNL     1     -41.429  57.575 -51.163  1.00  0.00     0.009 A 
ENDBRANCH  18  19
ENDBRANCH  17  18
ENDBRANCH   7  17
BRANCH   1  26
HETATM   26  C   UNL     1     -43.023  54.701 -54.804  1.00  0.00     0.203 C 
HETATM   27  O   UNL     1     -44.248  54.618 -54.667  1.00  0.00    -0.288 OA
BRANCH  26  28
HETATM   28  C   UNL     1     -42.118  54.046 -53.808  1.00  0.00     0.014 A 
HETATM   29  C   UNL     1     -42.252  54.229 -52.425  1.00  0.00     0.015 A 
HETATM   30  C   UNL     1     -41.360  53.609 -51.545  1.00  0.00     0.001 A 
HETATM   31  C   UNL     1     -40.333  52.805 -52.035  1.00  0.00     0.000 A 
HETATM   32  C   UNL     1     -40.196  52.613 -53.407  1.00  0.00     0.001 A 
HETATM   33  C   UNL     1     -41.085  53.230 -54.291  1.00  0.00     0.015 A 
ENDBRANCH  26  28
ENDBRANCH   1  26
TORSDOF 5
ENDMDL
MODEL 8
REMARK VINA RESULT:      -7.9      3.267      7.372
REMARK  5 active torsions:
REMARK  status: ('A' for Active; 'I' for Inactive)
REMARK    1  A    between atoms: C_4  and  C_5 
REMARK    2  A    between atoms: C_5  and  C_6 
REMARK    3  A    between atoms: C_12  and  S_13 
REMARK    4  A    between atoms: S_13  and  C_14 
REMARK    5  A    between atoms: C_14  and  C_15 
ROOT
HETATM    1  C   UNL     1     -41.775  59.870 -52.638  1.00  0.00     0.283 C 
HETATM    2  O   UNL     1     -41.891  59.435 -51.295  1.00  0.00    -0.303 OA
HETATM    3  C   UNL     1     -42.822  58.435 -51.198  1.00  0.00     0.201 A 
HETATM    4  C   UNL     1     -44.171  58.733 -51.243  1.00  0.00     0.144 A 
HETATM    5  N   UNL     1     -45.049  57.729 -51.054  1.00  0.00    -0.142 NA
HETATM    6  N   UNL     1     -44.571  56.465 -50.838  1.00  0.00    -0.122 NA
HETATM    7  C   UNL     1     -43.237  56.243 -50.812  1.00  0.00     0.212 A 
HETATM    8  N   UNL     1     -42.316  57.207 -50.974  1.00  0.00    -0.195 NA
HETATM    9  C   UNL     1     -44.686  60.080 -51.482  1.00  0.00     0.020 A 
HETATM   10  C   UNL     1     -44.027  60.975 -52.354  1.00  0.00     0.023 A 
HETATM   11  N   UNL     1     -42.932  60.634 -53.159  1.00  0.00    -0.259 NA
HETATM   12  C   UNL     1     -45.867  60.506 -50.839  1.00  0.00     0.016 A 
HETATM   13  C   UNL     1     -46.400  61.776 -51.060  1.00  0.00     0.001 A 
HETATM   14  C   UNL     1     -45.772  62.638 -51.949  1.00  0.00     0.002 A 
HETATM   15  C   UNL     1     -44.609  62.230 -52.602  1.00  0.00     0.024 A 
HETATM   16  H   UNL     1     -43.272  60.165 -54.007  1.00  0.00     0.130 HD
ENDROOT
BRANCH   7  17
HETATM   17  S   UNL     1     -42.637  54.601 -50.528  1.00  0.00    -0.084 SA
BRANCH  17  18
HETATM   18  C   UNL     1     -40.962  54.773 -51.217  1.00  0.00     0.121 C 
BRANCH  18  19
HETATM   19  C   UNL     1     -40.587  53.573 -52.053  1.00  0.00    -0.048 A 
HETATM   20  C   UNL     1     -40.980  53.494 -53.399  1.00  0.00     0.009 A 
HETATM   21  C   UNL     1     -40.642  52.380 -54.170  1.00  0.00     0.024 A 
HETATM   22  C   UNL     1     -39.918  51.336 -53.601  1.00  0.00     0.034 A 
HETATM   23 CL   UNL     1     -39.504  49.963 -54.552  1.00  0.00    -0.084 Cl
HETATM   24  C   UNL     1     -39.527  51.395 -52.265  1.00  0.00     0.024 A 
HETATM   25  C   UNL     1     -39.863  52.510 -51.493  1.00  0.00     0.009 A 
ENDBRANCH  18  19
ENDBRANCH  17  18
ENDBRANCH   7  17
BRANCH   1  26
HETATM   26  C   UNL     1     -41.361  58.783 -53.670  1.00  0.00     0.203 C 
HETATM   27  O   UNL     1     -40.325  58.127 -53.521  1.00  0.00    -0.288 OA
BRANCH  26  28
HETATM   28  C   UNL     1     -42.254  58.506 -54.839  1.00  0.00     0.014 A 
HETATM   29  C   UNL     1     -42.156  59.202 -56.051  1.00  0.00     0.015 A 
HETATM   30  C   UNL     1     -43.035  58.915 -57.099  1.00  0.00     0.001 A 
HETATM   31  C   UNL     1     -44.014  57.935 -56.947  1.00  0.00     0.000 A 
HETATM   32  C   UNL     1     -44.115  57.235 -55.748  1.00  0.00     0.001 A 
HETATM   33  C   UNL     1     -43.239  57.518 -54.698  1.00  0.00     0.015 A 
ENDBRANCH  26  28
ENDBRANCH   1  26
TORSDOF 5
ENDMDL
MODEL 9
REMARK VINA RESULT:      -7.8      3.655      8.009
REMARK  5 active torsions:
REMARK  status: ('A' for Active; 'I' for Inactive)
REMARK    1  A    between atoms: C_4  and  C_5 
REMARK    2  A    between atoms: C_5  and  C_6 
REMARK    3  A    between atoms: C_12  and  S_13 
REMARK    4  A    between atoms: S_13  and  C_14 
REMARK    5  A    between atoms: C_14  and  C_15 
ROOT
HETATM    1  C   UNL     1     -43.007  58.747 -50.993  1.00  0.00     0.283 C 
HETATM    2  O   UNL     1     -43.956  58.837 -52.041  1.00  0.00    -0.303 OA
HETATM    3  C   UNL     1     -43.361  59.313 -53.180  1.00  0.00     0.201 A 
HETATM    4  C   UNL     1     -43.065  60.659 -53.301  1.00  0.00     0.144 A 
HETATM    5  N   UNL     1     -42.563  61.095 -54.473  1.00  0.00    -0.142 NA
HETATM    6  N   UNL     1     -42.361  60.193 -55.481  1.00  0.00    -0.122 NA
HETATM    7  C   UNL     1     -42.669  58.889 -55.293  1.00  0.00     0.212 A 
HETATM    8  N   UNL     1     -43.188  58.401 -54.155  1.00  0.00    -0.195 NA
HETATM    9  C   UNL     1     -43.271  61.624 -52.223  1.00  0.00     0.020 A 
HETATM   10  C   UNL     1     -43.074  61.268 -50.869  1.00  0.00     0.023 A 
HETATM   11  N   UNL     1     -42.546  60.043 -50.442  1.00  0.00    -0.259 NA
HETATM   12  C   UNL     1     -43.670  62.942 -52.526  1.00  0.00     0.016 A 
HETATM   13  C   UNL     1     -43.855  63.896 -51.525  1.00  0.00     0.001 A 
HETATM   14  C   UNL     1     -43.621  63.554 -50.201  1.00  0.00     0.002 A 
HETATM   15  C   UNL     1     -43.216  62.259 -49.883  1.00  0.00     0.024 A 
HETATM   16  H   UNL     1     -41.522  60.076 -50.511  1.00  0.00     0.130 HD
ENDROOT
BRANCH   7  17
HETATM   17  S   UNL     1     -42.403  57.736 -56.612  1.00  0.00    -0.084 SA
BRANCH  17  18
HETATM   18  C   UNL     1     -43.350  56.324 -55.967  1.00  0.00     0.121 C 
BRANCH  18  19
HETATM   19  C   UNL     1     -42.436  55.257 -55.413  1.00  0.00    -0.048 A 
HETATM   20  C   UNL     1     -41.100  55.557 -55.103  1.00  0.00     0.009 A 
HETATM   21  C   UNL     1     -40.251  54.568 -54.600  1.00  0.00     0.024 A 
HETATM   22  C   UNL     1     -40.730  53.274 -54.411  1.00  0.00     0.034 A 
HETATM   23 CL   UNL     1     -39.682  52.057 -53.793  1.00  0.00    -0.084 Cl
HETATM   24  C   UNL     1     -42.051  52.958 -54.720  1.00  0.00     0.024 A 
HETATM   25  C   UNL     1     -42.901  53.947 -55.222  1.00  0.00     0.009 A 
ENDBRANCH  18  19
ENDBRANCH  17  18
ENDBRANCH   7  17
BRANCH   1  26
HETATM   26  C   UNL     1     -41.780  57.831 -51.264  1.00  0.00     0.203 C 
HETATM   27  O   UNL     1     -40.659  58.312 -51.457  1.00  0.00    -0.288 OA
BRANCH  26  28
HETATM   28  C   UNL     1     -41.959  56.346 -51.252  1.00  0.00     0.014 A 
HETATM   29  C   UNL     1     -43.171  55.724 -51.580  1.00  0.00     0.015 A 
HETATM   30  C   UNL     1     -43.284  54.332 -51.527  1.00  0.00     0.001 A 
HETATM   31  C   UNL     1     -42.194  53.552 -51.147  1.00  0.00     0.000 A 
HETATM   32  C   UNL     1     -40.984  54.161 -50.824  1.00  0.00     0.001 A 
HETATM   33  C   UNL     1     -40.866  55.551 -50.876  1.00  0.00     0.015 A 
ENDBRANCH  26  28
ENDBRANCH   1  26
TORSDOF 5
ENDMDL
MODEL 10
REMARK VINA RESULT:      -7.8      1.812      2.625
REMARK  5 active torsions:
REMARK  status: ('A' for Active; 'I' for Inactive)
REMARK    1  A    between atoms: C_4  and  C_5 
REMARK    2  A    between atoms: C_5  and  C_6 
REMARK    3  A    between atoms: C_12  and  S_13 
REMARK    4  A    between atoms: S_13  and  C_14 
REMARK    5  A    between atoms: C_14  and  C_15 
ROOT
HETATM    1  C   UNL     1     -42.507  54.510 -55.199  1.00  0.00     0.283 C 
HETATM    2  O   UNL     1     -43.322  54.453 -54.041  1.00  0.00    -0.303 OA
HETATM    3  C   UNL     1     -42.811  55.262 -53.061  1.00  0.00     0.201 A 
HETATM    4  C   UNL     1     -41.707  54.861 -52.331  1.00  0.00     0.144 A 
HETATM    5  N   UNL     1     -41.295  55.648 -51.319  1.00  0.00    -0.142 NA
HETATM    6  N   UNL     1     -41.976  56.807 -51.064  1.00  0.00    -0.122 NA
HETATM    7  C   UNL     1     -43.046  57.142 -51.821  1.00  0.00     0.212 A 
HETATM    8  N   UNL     1     -43.513  56.388 -52.829  1.00  0.00    -0.195 NA
HETATM    9  C   UNL     1     -40.972  53.627 -52.606  1.00  0.00     0.020 A 
HETATM   10  C   UNL     1     -40.803  53.150 -53.925  1.00  0.00     0.023 A 
HETATM   11  N   UNL     1     -41.185  53.851 -55.076  1.00  0.00    -0.259 NA
HETATM   12  C   UNL     1     -40.410  52.891 -51.541  1.00  0.00     0.016 A 
HETATM   13  C   UNL     1     -39.683  51.722 -51.767  1.00  0.00     0.001 A 
HETATM   14  C   UNL     1     -39.485  51.279 -53.067  1.00  0.00     0.002 A 
HETATM   15  C   UNL     1     -40.024  51.999 -54.132  1.00  0.00     0.024 A 
HETATM   16  H   UNL     1     -40.459  54.540 -55.305  1.00  0.00     0.130 HD
ENDROOT
BRANCH   7  17
HETATM   17  S   UNL     1     -43.916  58.646 -51.474  1.00  0.00    -0.084 SA
BRANCH  17  18
HETATM   18  C   UNL     1     -45.007  58.699 -52.929  1.00  0.00     0.121 C 
BRANCH  18  19
HETATM   19  C   UNL     1     -44.420  59.558 -54.023  1.00  0.00    -0.048 A 
HETATM   20  C   UNL     1     -45.259  60.236 -54.922  1.00  0.00     0.009 A 
HETATM   21  C   UNL     1     -44.716  61.022 -55.941  1.00  0.00     0.024 A 
HETATM   22  C   UNL     1     -43.333  61.130 -56.072  1.00  0.00     0.034 A 
HETATM   23 CL   UNL     1     -42.667  62.097 -57.329  1.00  0.00    -0.084 Cl
HETATM   24  C   UNL     1     -42.487  60.457 -55.194  1.00  0.00     0.024 A 
HETATM   25  C   UNL     1     -43.029  59.671 -54.173  1.00  0.00     0.009 A 
ENDBRANCH  18  19
ENDBRANCH  17  18
ENDBRANCH   7  17
BRANCH   1  26
HETATM   26  C   UNL     1     -42.330  55.916 -55.837  1.00  0.00     0.203 C 
HETATM   27  O   UNL     1     -41.473  56.701 -55.418  1.00  0.00    -0.288 OA
BRANCH  26  28
HETATM   28  C   UNL     1     -43.188  56.305 -57.000  1.00  0.00     0.014 A 
HETATM   29  C   UNL     1     -43.958  57.475 -57.018  1.00  0.00     0.015 A 
HETATM   30  C   UNL     1     -44.759  57.773 -58.124  1.00  0.00     0.001 A 
HETATM   31  C   UNL     1     -44.798  56.909 -59.216  1.00  0.00     0.000 A 
HETATM   32  C   UNL     1     -44.032  55.746 -59.210  1.00  0.00     0.001 A 
HETATM   33  C   UNL     1     -43.229  55.445 -58.107  1.00  0.00     0.015 A 
ENDBRANCH  26  28
ENDBRANCH   1  26
TORSDOF 5
ENDMDL
