MODEL 1
REMARK VINA RESULT:      -8.3      0.000      0.000
REMARK  11 active torsions:
REMARK  status: ('A' for Active; 'I' for Inactive)
REMARK    1  A    between atoms: C_2  and  O_3 
REMARK    2  A    between atoms: O_3  and  C_4 
REMARK    3  A    between atoms: C_7  and  N_8 
REMARK       I    between atoms: N_8  and  C_9 
REMARK    4  A    between atoms: C_9  and  C_10 
REMARK    5  A    between atoms: C_10  and  C_11 
REMARK    6  A    between atoms: N_12  and  C_13 
REMARK    7  A    between atoms: C_13  and  C_14 
REMARK    8  A    between atoms: C_14  and  C_15 
REMARK    9  A    between atoms: C_15  and  N_16 
REMARK   10  A    between atoms: C_20  and  C_21 
REMARK       I    between atoms: C_21  and  N_22 
REMARK   11  A    between atoms: N_28  and  C_29 
ROOT
HETATM    1  C   UNL     1     -43.271  59.535 -52.963  1.00  0.00     0.188 C 
HETATM    2  N   UNL     1     -44.312  60.352 -53.576  1.00  0.00    -0.344 N 
HETATM    3  C   UNL     1     -44.660  61.429 -52.736  1.00  0.00     0.184 C 
HETATM    4  S   UNL     1     -45.443  62.801 -53.290  1.00  0.00    -0.040 SA
HETATM    5  N   UNL     1     -44.164  61.151 -51.466  1.00  0.00    -0.257 N 
HETATM    6  C   UNL     1     -43.328  60.052 -51.531  1.00  0.00     0.254 C 
HETATM    7  O   UNL     1     -42.641  59.552 -50.647  1.00  0.00    -0.270 OA
ENDROOT
BRANCH   2   8
HETATM    8  C   UNL     1     -44.689  60.141 -54.979  1.00  0.00     0.128 C 
BRANCH   8   9
HETATM    9  C   UNL     1     -45.040  58.674 -55.287  1.00  0.00     0.048 C 
BRANCH   9  10
HETATM   10  C   UNL     1     -45.686  58.490 -56.665  1.00  0.00     0.236 C 
BRANCH  10  11
HETATM   11  N   UNL     1     -45.097  57.296 -57.404  1.00  0.00    -0.071 N 
HETATM   12  H   UNL     1     -45.540  56.441 -57.048  1.00  0.00     0.279 HD
HETATM   13  C   UNL     1     -45.355  57.388 -58.896  1.00  0.00     0.235 C 
HETATM   14  C   UNL     1     -44.806  56.148 -59.592  1.00  0.00     0.042 C 
HETATM   15  C   UNL     1     -43.307  55.977 -59.341  1.00  0.00     0.081 C 
HETATM   16  C   UNL     1     -43.015  55.985 -57.837  1.00  0.00     0.042 C 
HETATM   17  C   UNL     1     -43.612  57.181 -57.103  1.00  0.00     0.235 C 
BRANCH  15  18
HETATM   18  C   UNL     1     -42.533  57.070 -60.063  1.00  0.00     0.219 C 
HETATM   19  N   UNL     1     -41.194  56.869 -60.171  1.00  0.00    -0.370 N 
HETATM   20  H   UNL     1     -40.683  56.261 -59.543  1.00  0.00     0.159 HD
HETATM   21  H   UNL     1     -40.655  57.618 -60.596  1.00  0.00     0.159 HD
HETATM   22  O   UNL     1     -43.079  58.018 -60.613  1.00  0.00    -0.273 OA
ENDBRANCH  15  18
ENDBRANCH  10  11
ENDBRANCH   9  10
ENDBRANCH   8   9
ENDBRANCH   2   8
BRANCH   1  23
HETATM   23  C   UNL     1     -41.887  59.828 -53.529  1.00  0.00     0.138 C 
BRANCH  23  24
HETATM   24  C   UNL     1     -41.028  58.581 -53.608  1.00  0.00     0.224 C 
HETATM   25  N   UNL     1     -41.723  57.459 -54.006  1.00  0.00    -0.327 N 
HETATM   26  H   UNL     1     -42.622  57.596 -54.466  1.00  0.00     0.169 HD
HETATM   27  O   UNL     1     -39.837  58.646 -53.315  1.00  0.00    -0.273 OA
BRANCH  25  28
HETATM   28  C   UNL     1     -41.318  56.114 -53.902  1.00  0.00     0.034 A 
HETATM   29  C   UNL     1     -40.786  55.373 -54.954  1.00  0.00     0.032 A 
HETATM   30  C   UNL     1     -40.327  54.068 -54.731  1.00  0.00     0.039 A 
HETATM   31  C   UNL     1     -40.394  53.490 -53.462  1.00  0.00     0.068 A 
HETATM   32  C   UNL     1     -40.950  54.220 -52.415  1.00  0.00     0.039 A 
HETATM   33  C   UNL     1     -41.404  55.524 -52.634  1.00  0.00     0.032 A 
BRANCH  31  34
HETATM   34  O   UNL     1     -39.885  52.224 -53.376  1.00  0.00    -0.352 OA
BRANCH  34  35
HETATM   35  C   UNL     1     -40.428  51.247 -54.263  1.00  0.00     0.171 C 
HETATM   36  C   UNL     1     -39.504  50.043 -54.268  1.00  0.00     0.034 C 
ENDBRANCH  34  35
ENDBRANCH  31  34
ENDBRANCH  25  28
ENDBRANCH  23  24
ENDBRANCH   1  23
BRANCH   5  37
HETATM   37  C   UNL     1     -44.454  61.831 -50.240  1.00  0.00     0.045 A 
HETATM   38  C   UNL     1     -43.809  63.034 -49.903  1.00  0.00     0.032 A 
HETATM   39  C   UNL     1     -44.056  63.682 -48.684  1.00  0.00     0.026 A 
HETATM   40  C   UNL     1     -44.954  63.134 -47.777  1.00  0.00     0.034 A 
HETATM   41 CL   UNL     1     -45.255  63.920 -46.280  1.00  0.00    -0.084 Cl
HETATM   42  C   UNL     1     -45.598  61.940 -48.077  1.00  0.00     0.026 A 
HETATM   43  C   UNL     1     -45.342  61.294 -49.293  1.00  0.00     0.032 A 
ENDBRANCH   5  37
TORSDOF 11
ENDMDL
MODEL 2
REMARK VINA RESULT:      -8.2      4.041      7.436
REMARK  11 active torsions:
REMARK  status: ('A' for Active; 'I' for Inactive)
REMARK    1  A    between atoms: C_2  and  O_3 
REMARK    2  A    between atoms: O_3  and  C_4 
REMARK    3  A    between atoms: C_7  and  N_8 
REMARK       I    between atoms: N_8  and  C_9 
REMARK    4  A    between atoms: C_9  and  C_10 
REMARK    5  A    between atoms: C_10  and  C_11 
REMARK    6  A    between atoms: N_12  and  C_13 
REMARK    7  A    between atoms: C_13  and  C_14 
REMARK    8  A    between atoms: C_14  and  C_15 
REMARK    9  A    between atoms: C_15  and  N_16 
REMARK   10  A    between atoms: C_20  and  C_21 
REMARK       I    between atoms: C_21  and  N_22 
REMARK   11  A    between atoms: N_28  and  C_29 
ROOT
HETATM    1  C   UNL     1     -43.189  58.647 -57.123  1.00  0.00     0.188 C 
HETATM    2  N   UNL     1     -43.964  59.863 -56.908  1.00  0.00    -0.344 N 
HETATM    3  C   UNL     1     -43.740  60.789 -57.947  1.00  0.00     0.184 C 
HETATM    4  S   UNL     1     -44.784  62.055 -58.282  1.00  0.00    -0.040 SA
HETATM    5  N   UNL     1     -42.595  60.388 -58.629  1.00  0.00    -0.257 N 
HETATM    6  C   UNL     1     -42.224  59.127 -58.199  1.00  0.00     0.254 C 
HETATM    7  O   UNL     1     -41.324  58.405 -58.615  1.00  0.00    -0.270 OA
ENDROOT
BRANCH   2   8
HETATM    8  C   UNL     1     -44.994  59.911 -55.862  1.00  0.00     0.128 C 
BRANCH   8   9
HETATM    9  C   UNL     1     -44.401  60.075 -54.450  1.00  0.00     0.048 C 
BRANCH   9  10
HETATM   10  C   UNL     1     -44.818  58.954 -53.492  1.00  0.00     0.236 C 
BRANCH  10  11
HETATM   11  N   UNL     1     -43.631  58.084 -53.099  1.00  0.00    -0.071 N 
HETATM   12  H   UNL     1     -43.744  57.161 -53.537  1.00  0.00     0.279 HD
HETATM   13  C   UNL     1     -42.323  58.686 -53.575  1.00  0.00     0.235 C 
HETATM   14  C   UNL     1     -41.168  57.758 -53.217  1.00  0.00     0.042 C 
HETATM   15  C   UNL     1     -41.096  57.500 -51.712  1.00  0.00     0.081 C 
HETATM   16  C   UNL     1     -42.443  56.987 -51.195  1.00  0.00     0.042 C 
HETATM   17  C   UNL     1     -43.627  57.861 -51.596  1.00  0.00     0.235 C 
BRANCH  15  18
HETATM   18  C   UNL     1     -40.669  58.769 -50.989  1.00  0.00     0.219 C 
HETATM   19  N   UNL     1     -41.215  58.957 -49.759  1.00  0.00    -0.370 N 
HETATM   20  H   UNL     1     -42.083  58.519 -49.476  1.00  0.00     0.159 HD
HETATM   21  H   UNL     1     -40.989  59.830 -49.291  1.00  0.00     0.159 HD
HETATM   22  O   UNL     1     -39.809  59.524 -51.424  1.00  0.00    -0.273 OA
ENDBRANCH  15  18
ENDBRANCH  10  11
ENDBRANCH   9  10
ENDBRANCH   8   9
ENDBRANCH   2   8
BRANCH   1  23
HETATM   23  C   UNL     1     -44.029  57.512 -57.696  1.00  0.00     0.138 C 
BRANCH  23  24
HETATM   24  C   UNL     1     -43.530  56.152 -57.249  1.00  0.00     0.224 C 
HETATM   25  N   UNL     1     -43.234  56.090 -55.905  1.00  0.00    -0.327 N 
HETATM   26  H   UNL     1     -43.619  56.815 -55.300  1.00  0.00     0.169 HD
HETATM   27  O   UNL     1     -43.415  55.248 -58.072  1.00  0.00    -0.273 OA
BRANCH  25  28
HETATM   28  C   UNL     1     -42.489  55.102 -55.232  1.00  0.00     0.034 A 
HETATM   29  C   UNL     1     -41.202  54.711 -55.594  1.00  0.00     0.032 A 
HETATM   30  C   UNL     1     -40.504  53.784 -54.808  1.00  0.00     0.039 A 
HETATM   31  C   UNL     1     -41.079  53.239 -53.658  1.00  0.00     0.068 A 
HETATM   32  C   UNL     1     -42.375  53.610 -53.310  1.00  0.00     0.039 A 
HETATM   33  C   UNL     1     -43.072  54.539 -54.090  1.00  0.00     0.032 A 
BRANCH  31  34
HETATM   34  O   UNL     1     -40.280  52.371 -52.967  1.00  0.00    -0.352 OA
BRANCH  34  35
HETATM   35  C   UNL     1     -39.448  51.505 -53.739  1.00  0.00     0.171 C 
HETATM   36  C   UNL     1     -40.274  50.302 -54.157  1.00  0.00     0.034 C 
ENDBRANCH  34  35
ENDBRANCH  31  34
ENDBRANCH  25  28
ENDBRANCH  23  24
ENDBRANCH   1  23
BRANCH   5  37
HETATM   37  C   UNL     1     -41.851  61.122 -59.607  1.00  0.00     0.045 A 
HETATM   38  C   UNL     1     -40.836  62.018 -59.230  1.00  0.00     0.032 A 
HETATM   39  C   UNL     1     -40.134  62.772 -60.180  1.00  0.00     0.026 A 
HETATM   40  C   UNL     1     -40.437  62.645 -61.529  1.00  0.00     0.034 A 
HETATM   41 CL   UNL     1     -39.584  63.572 -62.696  1.00  0.00    -0.084 Cl
HETATM   42  C   UNL     1     -41.443  61.776 -61.933  1.00  0.00     0.026 A 
HETATM   43  C   UNL     1     -42.147  61.030 -60.978  1.00  0.00     0.032 A 
ENDBRANCH   5  37
TORSDOF 11
ENDMDL
MODEL 3
REMARK VINA RESULT:      -8.0      2.240      3.027
REMARK  11 active torsions:
REMARK  status: ('A' for Active; 'I' for Inactive)
REMARK    1  A    between atoms: C_2  and  O_3 
REMARK    2  A    between atoms: O_3  and  C_4 
REMARK    3  A    between atoms: C_7  and  N_8 
REMARK       I    between atoms: N_8  and  C_9 
REMARK    4  A    between atoms: C_9  and  C_10 
REMARK    5  A    between atoms: C_10  and  C_11 
REMARK    6  A    between atoms: N_12  and  C_13 
REMARK    7  A    between atoms: C_13  and  C_14 
REMARK    8  A    between atoms: C_14  and  C_15 
REMARK    9  A    between atoms: C_15  and  N_16 
REMARK   10  A    between atoms: C_20  and  C_21 
REMARK       I    between atoms: C_21  and  N_22 
REMARK   11  A    between atoms: N_28  and  C_29 
ROOT
HETATM    1  C   UNL     1     -43.822  57.483 -52.081  1.00  0.00     0.188 C 
HETATM    2  N   UNL     1     -43.212  58.368 -53.067  1.00  0.00    -0.344 N 
HETATM    3  C   UNL     1     -43.657  59.694 -52.890  1.00  0.00     0.184 C 
HETATM    4  S   UNL     1     -42.839  61.020 -53.503  1.00  0.00    -0.040 SA
HETATM    5  N   UNL     1     -44.789  59.655 -52.081  1.00  0.00    -0.257 N 
HETATM    6  C   UNL     1     -44.937  58.382 -51.562  1.00  0.00     0.254 C 
HETATM    7  O   UNL     1     -45.758  57.972 -50.748  1.00  0.00    -0.270 OA
ENDROOT
BRANCH   2   8
HETATM    8  C   UNL     1     -42.112  57.889 -53.913  1.00  0.00     0.128 C 
BRANCH   8   9
HETATM    9  C   UNL     1     -42.501  57.795 -55.399  1.00  0.00     0.048 C 
BRANCH   9  10
HETATM   10  C   UNL     1     -43.507  56.675 -55.685  1.00  0.00     0.236 C 
BRANCH  10  11
HETATM   11  N   UNL     1     -43.936  56.666 -57.146  1.00  0.00    -0.071 N 
HETATM   12  H   UNL     1     -44.906  56.331 -57.199  1.00  0.00     0.279 HD
HETATM   13  C   UNL     1     -43.873  58.056 -57.748  1.00  0.00     0.235 C 
HETATM   14  C   UNL     1     -44.367  58.017 -59.189  1.00  0.00     0.042 C 
HETATM   15  C   UNL     1     -43.544  57.051 -60.042  1.00  0.00     0.081 C 
HETATM   16  C   UNL     1     -43.512  55.664 -59.394  1.00  0.00     0.042 C 
HETATM   17  C   UNL     1     -43.085  55.682 -57.930  1.00  0.00     0.235 C 
BRANCH  15  18
HETATM   18  C   UNL     1     -42.141  57.604 -60.243  1.00  0.00     0.219 C 
HETATM   19  N   UNL     1     -41.139  56.686 -60.233  1.00  0.00    -0.370 N 
HETATM   20  H   UNL     1     -41.234  55.783 -59.785  1.00  0.00     0.159 HD
HETATM   21  H   UNL     1     -40.192  57.047 -60.303  1.00  0.00     0.159 HD
HETATM   22  O   UNL     1     -41.922  58.780 -60.506  1.00  0.00    -0.273 OA
ENDBRANCH  15  18
ENDBRANCH  10  11
ENDBRANCH   9  10
ENDBRANCH   8   9
ENDBRANCH   2   8
BRANCH   1  23
HETATM   23  C   UNL     1     -42.883  57.160 -50.925  1.00  0.00     0.138 C 
BRANCH  23  24
HETATM   24  C   UNL     1     -42.517  55.689 -50.882  1.00  0.00     0.224 C 
HETATM   25  N   UNL     1     -41.233  55.429 -51.308  1.00  0.00    -0.327 N 
HETATM   26  H   UNL     1     -40.575  56.208 -51.339  1.00  0.00     0.169 HD
HETATM   27  O   UNL     1     -43.349  54.869 -50.504  1.00  0.00    -0.273 OA
BRANCH  25  28
HETATM   28  C   UNL     1     -40.681  54.185 -51.670  1.00  0.00     0.034 A 
HETATM   29  C   UNL     1     -40.299  53.204 -50.759  1.00  0.00     0.032 A 
HETATM   30  C   UNL     1     -39.844  51.960 -51.216  1.00  0.00     0.039 A 
HETATM   31  C   UNL     1     -39.764  51.682 -52.582  1.00  0.00     0.068 A 
HETATM   32  C   UNL     1     -40.122  52.671 -53.495  1.00  0.00     0.039 A 
HETATM   33  C   UNL     1     -40.581  53.912 -53.041  1.00  0.00     0.032 A 
BRANCH  31  34
HETATM   34  O   UNL     1     -39.334  50.423 -52.893  1.00  0.00    -0.352 OA
BRANCH  34  35
HETATM   35  C   UNL     1     -39.422  50.028 -54.262  1.00  0.00     0.171 C 
HETATM   36  C   UNL     1     -40.885  49.819 -54.603  1.00  0.00     0.034 C 
ENDBRANCH  34  35
ENDBRANCH  31  34
ENDBRANCH  25  28
ENDBRANCH  23  24
ENDBRANCH   1  23
BRANCH   5  37
HETATM   37  C   UNL     1     -45.714  60.713 -51.810  1.00  0.00     0.045 A 
HETATM   38  C   UNL     1     -46.655  61.124 -52.770  1.00  0.00     0.032 A 
HETATM   39  C   UNL     1     -47.534  62.188 -52.527  1.00  0.00     0.026 A 
HETATM   40  C   UNL     1     -47.485  62.865 -51.316  1.00  0.00     0.034 A 
HETATM   41 CL   UNL     1     -48.556  64.174 -51.015  1.00  0.00    -0.084 Cl
HETATM   42  C   UNL     1     -46.559  62.490 -50.350  1.00  0.00     0.026 A 
HETATM   43  C   UNL     1     -45.678  61.430 -50.602  1.00  0.00     0.032 A 
ENDBRANCH   5  37
TORSDOF 11
ENDMDL
MODEL 4
REMARK VINA RESULT:      -7.8      1.850      2.311
REMARK  11 active torsions:
REMARK  status: ('A' for Active; 'I' for Inactive)
REMARK    1  A    between atoms: C_2  and  O_3 
REMARK    2  A    between atoms: O_3  and  C_4 
REMARK    3  A    between atoms: C_7  and  N_8 
REMARK       I    between atoms: N_8  and  C_9 
REMARK    4  A    between atoms: C_9  and  C_10 
REMARK    5  A    between atoms: C_10  and  C_11 
REMARK    6  A    between atoms: N_12  and  C_13 
REMARK    7  A    between atoms: C_13  and  C_14 
REMARK    8  A    between atoms: C_14  and  C_15 
REMARK    9  A    between atoms: C_15  and  N_16 
REMARK   10  A    between atoms: C_20  and  C_21 
REMARK       I    between atoms: C_21  and  N_22 
REMARK   11  A    between atoms: N_28  and  C_29 
ROOT
HETATM    1  C   UNL     1     -44.399  59.678 -51.691  1.00  0.00     0.188 C 
HETATM    2  N   UNL     1     -43.914  61.027 -51.956  1.00  0.00    -0.344 N 
HETATM    3  C   UNL     1     -44.118  61.860 -50.837  1.00  0.00     0.184 C 
HETATM    4  S   UNL     1     -43.285  63.294 -50.603  1.00  0.00    -0.040 SA
HETATM    5  N   UNL     1     -45.030  61.225 -49.999  1.00  0.00    -0.257 N 
HETATM    6  C   UNL     1     -45.231  59.930 -50.439  1.00  0.00     0.254 C 
HETATM    7  O   UNL     1     -45.893  59.034 -49.924  1.00  0.00    -0.270 OA
ENDROOT
BRANCH   2   8
HETATM    8  C   UNL     1     -43.113  61.304 -53.155  1.00  0.00     0.128 C 
BRANCH   8   9
HETATM    9  C   UNL     1     -43.671  60.618 -54.415  1.00  0.00     0.048 C 
BRANCH   9  10
HETATM   10  C   UNL     1     -42.671  59.653 -55.062  1.00  0.00     0.236 C 
BRANCH  10  11
HETATM   11  N   UNL     1     -43.380  58.551 -55.839  1.00  0.00    -0.071 N 
HETATM   12  H   UNL     1     -44.033  58.074 -55.205  1.00  0.00     0.279 HD
HETATM   13  C   UNL     1     -44.166  59.115 -57.006  1.00  0.00     0.235 C 
HETATM   14  C   UNL     1     -44.909  57.991 -57.719  1.00  0.00     0.042 C 
HETATM   15  C   UNL     1     -43.951  56.910 -58.221  1.00  0.00     0.081 C 
HETATM   16  C   UNL     1     -43.076  56.400 -57.072  1.00  0.00     0.042 C 
HETATM   17  C   UNL     1     -42.373  57.510 -56.297  1.00  0.00     0.235 C 
BRANCH  15  18
HETATM   18  C   UNL     1     -43.107  57.456 -59.363  1.00  0.00     0.219 C 
HETATM   19  N   UNL     1     -41.812  57.044 -59.386  1.00  0.00    -0.370 N 
HETATM   20  H   UNL     1     -41.333  56.709 -58.560  1.00  0.00     0.159 HD
HETATM   21  H   UNL     1     -41.220  57.449 -60.106  1.00  0.00     0.159 HD
HETATM   22  O   UNL     1     -43.574  58.134 -60.269  1.00  0.00    -0.273 OA
ENDBRANCH  15  18
ENDBRANCH  10  11
ENDBRANCH   9  10
ENDBRANCH   8   9
ENDBRANCH   2   8
BRANCH   1  23
HETATM   23  C   UNL     1     -43.276  58.711 -51.339  1.00  0.00     0.138 C 
BRANCH  23  24
HETATM   24  C   UNL     1     -43.403  57.395 -52.083  1.00  0.00     0.224 C 
HETATM   25  N   UNL     1     -42.477  56.452 -51.693  1.00  0.00    -0.327 N 
HETATM   26  H   UNL     1     -42.004  56.591 -50.801  1.00  0.00     0.169 HD
HETATM   27  O   UNL     1     -44.267  57.269 -52.946  1.00  0.00    -0.273 OA
BRANCH  25  28
HETATM   28  C   UNL     1     -42.127  55.263 -52.361  1.00  0.00     0.034 A 
HETATM   29  C   UNL     1     -42.528  54.945 -53.657  1.00  0.00     0.032 A 
HETATM   30  C   UNL     1     -42.054  53.780 -54.272  1.00  0.00     0.039 A 
HETATM   31  C   UNL     1     -41.177  52.921 -53.606  1.00  0.00     0.068 A 
HETATM   32  C   UNL     1     -40.795  53.223 -52.301  1.00  0.00     0.039 A 
HETATM   33  C   UNL     1     -41.264  54.389 -51.686  1.00  0.00     0.032 A 
BRANCH  31  34
HETATM   34  O   UNL     1     -40.768  51.836 -54.330  1.00  0.00    -0.352 OA
BRANCH  34  35
HETATM   35  C   UNL     1     -39.681  51.078 -53.800  1.00  0.00     0.171 C 
HETATM   36  C   UNL     1     -39.595  49.771 -54.566  1.00  0.00     0.034 C 
ENDBRANCH  34  35
ENDBRANCH  31  34
ENDBRANCH  25  28
ENDBRANCH  23  24
ENDBRANCH   1  23
BRANCH   5  37
HETATM   37  C   UNL     1     -45.712  61.771 -48.865  1.00  0.00     0.045 A 
HETATM   38  C   UNL     1     -46.852  62.579 -49.020  1.00  0.00     0.032 A 
HETATM   39  C   UNL     1     -47.499  63.153 -47.916  1.00  0.00     0.026 A 
HETATM   40  C   UNL     1     -47.014  62.931 -46.635  1.00  0.00     0.034 A 
HETATM   41 CL   UNL     1     -47.798  63.637 -45.280  1.00  0.00    -0.084 Cl
HETATM   42  C   UNL     1     -45.882  62.146 -46.450  1.00  0.00     0.026 A 
HETATM   43  C   UNL     1     -45.235  61.581 -47.557  1.00  0.00     0.032 A 
ENDBRANCH   5  37
TORSDOF 11
ENDMDL
MODEL 5
REMARK VINA RESULT:      -7.6      3.110      3.770
REMARK  11 active torsions:
REMARK  status: ('A' for Active; 'I' for Inactive)
REMARK    1  A    between atoms: C_2  and  O_3 
REMARK    2  A    between atoms: O_3  and  C_4 
REMARK    3  A    between atoms: C_7  and  N_8 
REMARK       I    between atoms: N_8  and  C_9 
REMARK    4  A    between atoms: C_9  and  C_10 
REMARK    5  A    between atoms: C_10  and  C_11 
REMARK    6  A    between atoms: N_12  and  C_13 
REMARK    7  A    between atoms: C_13  and  C_14 
REMARK    8  A    between atoms: C_14  and  C_15 
REMARK    9  A    between atoms: C_15  and  N_16 
REMARK   10  A    between atoms: C_20  and  C_21 
REMARK       I    between atoms: C_21  and  N_22 
REMARK   11  A    between atoms: N_28  and  C_29 
ROOT
HETATM    1  C   UNL     1     -45.111  58.260 -53.839  1.00  0.00     0.188 C 
HETATM    2  N   UNL     1     -44.664  59.446 -54.561  1.00  0.00    -0.344 N 
HETATM    3  C   UNL     1     -43.319  59.738 -54.257  1.00  0.00     0.184 C 
HETATM    4  S   UNL     1     -42.354  60.705 -55.226  1.00  0.00    -0.040 SA
HETATM    5  N   UNL     1     -42.981  59.025 -53.110  1.00  0.00    -0.257 N 
HETATM    6  C   UNL     1     -43.990  58.127 -52.816  1.00  0.00     0.254 C 
HETATM    7  O   UNL     1     -44.028  57.270 -51.939  1.00  0.00    -0.270 OA
ENDROOT
BRANCH   2   8
HETATM    8  C   UNL     1     -45.498  60.026 -55.621  1.00  0.00     0.128 C 
BRANCH   8   9
HETATM    9  C   UNL     1     -45.123  59.510 -57.022  1.00  0.00     0.048 C 
BRANCH   9  10
HETATM   10  C   UNL     1     -46.316  58.918 -57.780  1.00  0.00     0.236 C 
BRANCH  10  11
HETATM   11  N   UNL     1     -45.874  58.210 -59.055  1.00  0.00    -0.071 N 
HETATM   12  H   UNL     1     -46.055  58.832 -59.852  1.00  0.00     0.279 HD
HETATM   13  C   UNL     1     -44.392  57.888 -59.022  1.00  0.00     0.235 C 
HETATM   14  C   UNL     1     -43.977  57.239 -60.337  1.00  0.00     0.042 C 
HETATM   15  C   UNL     1     -44.773  55.962 -60.612  1.00  0.00     0.081 C 
HETATM   16  C   UNL     1     -46.276  56.249 -60.548  1.00  0.00     0.042 C 
HETATM   17  C   UNL     1     -46.710  56.960 -59.271  1.00  0.00     0.235 C 
BRANCH  15  18
HETATM   18  C   UNL     1     -44.371  54.877 -59.625  1.00  0.00     0.219 C 
HETATM   19  N   UNL     1     -45.125  53.748 -59.652  1.00  0.00    -0.370 N 
HETATM   20  H   UNL     1     -46.071  53.734 -60.013  1.00  0.00     0.159 HD
HETATM   21  H   UNL     1     -44.908  53.040 -58.956  1.00  0.00     0.159 HD
HETATM   22  O   UNL     1     -43.370  54.956 -58.923  1.00  0.00    -0.273 OA
ENDBRANCH  15  18
ENDBRANCH  10  11
ENDBRANCH   9  10
ENDBRANCH   8   9
ENDBRANCH   2   8
BRANCH   1  23
HETATM   23  C   UNL     1     -45.120  57.012 -54.713  1.00  0.00     0.138 C 
BRANCH  23  24
HETATM   24  C   UNL     1     -43.801  56.267 -54.654  1.00  0.00     0.224 C 
HETATM   25  N   UNL     1     -43.860  55.103 -53.920  1.00  0.00    -0.327 N 
HETATM   26  H   UNL     1     -44.780  54.706 -53.731  1.00  0.00     0.169 HD
HETATM   27  O   UNL     1     -42.816  56.731 -55.223  1.00  0.00    -0.273 OA
BRANCH  25  28
HETATM   28  C   UNL     1     -42.783  54.342 -53.424  1.00  0.00     0.034 A 
HETATM   29  C   UNL     1     -41.801  53.761 -54.223  1.00  0.00     0.032 A 
HETATM   30  C   UNL     1     -40.717  53.099 -53.633  1.00  0.00     0.039 A 
HETATM   31  C   UNL     1     -40.601  53.007 -52.245  1.00  0.00     0.068 A 
HETATM   32  C   UNL     1     -41.595  53.564 -51.444  1.00  0.00     0.039 A 
HETATM   33  C   UNL     1     -42.676  54.230 -52.031  1.00  0.00     0.032 A 
BRANCH  31  34
HETATM   34  O   UNL     1     -39.481  52.361 -51.799  1.00  0.00    -0.352 OA
BRANCH  34  35
HETATM   35  C   UNL     1     -39.499  50.934 -51.840  1.00  0.00     0.171 C 
HETATM   36  C   UNL     1     -39.976  50.426 -50.492  1.00  0.00     0.034 C 
ENDBRANCH  34  35
ENDBRANCH  31  34
ENDBRANCH  25  28
ENDBRANCH  23  24
ENDBRANCH   1  23
BRANCH   5  37
HETATM   37  C   UNL     1     -41.810  59.167 -52.299  1.00  0.00     0.045 A 
HETATM   38  C   UNL     1     -41.874  59.752 -51.022  1.00  0.00     0.032 A 
HETATM   39  C   UNL     1     -40.724  59.933 -50.241  1.00  0.00     0.026 A 
HETATM   40  C   UNL     1     -39.486  59.534 -50.725  1.00  0.00     0.034 A 
HETATM   41 CL   UNL     1     -38.074  59.760 -49.775  1.00  0.00    -0.084 Cl
HETATM   42  C   UNL     1     -39.389  58.963 -51.988  1.00  0.00     0.026 A 
HETATM   43  C   UNL     1     -40.540  58.791 -52.768  1.00  0.00     0.032 A 
ENDBRANCH   5  37
TORSDOF 11
ENDMDL
MODEL 6
REMARK VINA RESULT:      -7.6      4.594      8.227
REMARK  11 active torsions:
REMARK  status: ('A' for Active; 'I' for Inactive)
REMARK    1  A    between atoms: C_2  and  O_3 
REMARK    2  A    between atoms: O_3  and  C_4 
REMARK    3  A    between atoms: C_7  and  N_8 
REMARK       I    between atoms: N_8  and  C_9 
REMARK    4  A    between atoms: C_9  and  C_10 
REMARK    5  A    between atoms: C_10  and  C_11 
REMARK    6  A    between atoms: N_12  and  C_13 
REMARK    7  A    between atoms: C_13  and  C_14 
REMARK    8  A    between atoms: C_14  and  C_15 
REMARK    9  A    between atoms: C_15  and  N_16 
REMARK   10  A    between atoms: C_20  and  C_21 
REMARK       I    between atoms: C_21  and  N_22 
REMARK   11  A    between atoms: N_28  and  C_29 
ROOT
HETATM    1  C   UNL     1     -41.746  56.740 -54.387  1.00  0.00     0.188 C 
HETATM    2  N   UNL     1     -42.917  56.213 -53.696  1.00  0.00    -0.344 N 
HETATM    3  C   UNL     1     -42.610  55.003 -53.044  1.00  0.00     0.184 C 
HETATM    4  S   UNL     1     -43.537  54.376 -51.798  1.00  0.00    -0.040 SA
HETATM    5  N   UNL     1     -41.409  54.533 -53.568  1.00  0.00    -0.257 N 
HETATM    6  C   UNL     1     -40.842  55.515 -54.360  1.00  0.00     0.254 C 
HETATM    7  O   UNL     1     -39.753  55.515 -54.926  1.00  0.00    -0.270 OA
ENDROOT
BRANCH   2   8
HETATM    8  C   UNL     1     -44.126  57.035 -53.553  1.00  0.00     0.128 C 
BRANCH   8   9
HETATM    9  C   UNL     1     -45.018  57.005 -54.807  1.00  0.00     0.048 C 
BRANCH   9  10
HETATM   10  C   UNL     1     -45.411  58.403 -55.296  1.00  0.00     0.236 C 
BRANCH  10  11
HETATM   11  N   UNL     1     -45.170  58.561 -56.792  1.00  0.00    -0.071 N 
HETATM   12  H   UNL     1     -44.793  59.502 -56.963  1.00  0.00     0.279 HD
HETATM   13  C   UNL     1     -44.171  57.541 -57.301  1.00  0.00     0.235 C 
HETATM   14  C   UNL     1     -43.911  57.770 -58.785  1.00  0.00     0.042 C 
HETATM   15  C   UNL     1     -45.199  57.681 -59.605  1.00  0.00     0.081 C 
HETATM   16  C   UNL     1     -46.257  58.633 -59.040  1.00  0.00     0.042 C 
HETATM   17  C   UNL     1     -46.489  58.471 -57.541  1.00  0.00     0.235 C 
BRANCH  15  18
HETATM   18  C   UNL     1     -45.699  56.244 -59.627  1.00  0.00     0.219 C 
HETATM   19  N   UNL     1     -47.048  56.091 -59.679  1.00  0.00    -0.370 N 
HETATM   20  H   UNL     1     -47.689  56.813 -59.371  1.00  0.00     0.159 HD
HETATM   21  H   UNL     1     -47.399  55.139 -59.631  1.00  0.00     0.159 HD
HETATM   22  O   UNL     1     -44.948  55.280 -59.706  1.00  0.00    -0.273 OA
ENDBRANCH  15  18
ENDBRANCH  10  11
ENDBRANCH   9  10
ENDBRANCH   8   9
ENDBRANCH   2   8
BRANCH   1  23
HETATM   23  C   UNL     1     -41.065  57.861 -53.611  1.00  0.00     0.138 C 
BRANCH  23  24
HETATM   24  C   UNL     1     -41.530  59.232 -54.065  1.00  0.00     0.224 C 
HETATM   25  N   UNL     1     -41.970  59.259 -55.370  1.00  0.00    -0.327 N 
HETATM   26  H   UNL     1     -42.209  58.370 -55.809  1.00  0.00     0.169 HD
HETATM   27  O   UNL     1     -41.476  60.179 -53.285  1.00  0.00    -0.273 OA
BRANCH  25  28
HETATM   28  C   UNL     1     -42.184  60.388 -56.183  1.00  0.00     0.034 A 
HETATM   29  C   UNL     1     -43.011  61.455 -55.838  1.00  0.00     0.032 A 
HETATM   30  C   UNL     1     -43.091  62.578 -56.672  1.00  0.00     0.039 A 
HETATM   31  C   UNL     1     -42.350  62.651 -57.853  1.00  0.00     0.068 A 
HETATM   32  C   UNL     1     -41.543  61.574 -58.212  1.00  0.00     0.039 A 
HETATM   33  C   UNL     1     -41.459  60.453 -57.380  1.00  0.00     0.032 A 
BRANCH  31  34
HETATM   34  O   UNL     1     -42.497  63.813 -58.557  1.00  0.00    -0.352 OA
BRANCH  34  35
HETATM   35  C   UNL     1     -43.822  64.166 -58.956  1.00  0.00     0.171 C 
HETATM   36  C   UNL     1     -44.166  63.381 -60.208  1.00  0.00     0.034 C 
ENDBRANCH  34  35
ENDBRANCH  31  34
ENDBRANCH  25  28
ENDBRANCH  23  24
ENDBRANCH   1  23
BRANCH   5  37
HETATM   37  C   UNL     1     -40.812  53.245 -53.386  1.00  0.00     0.045 A 
HETATM   38  C   UNL     1     -40.902  52.253 -54.378  1.00  0.00     0.032 A 
HETATM   39  C   UNL     1     -40.358  50.975 -54.187  1.00  0.00     0.026 A 
HETATM   40  C   UNL     1     -39.714  50.666 -52.997  1.00  0.00     0.034 A 
HETATM   41 CL   UNL     1     -39.051  49.100 -52.756  1.00  0.00    -0.084 Cl
HETATM   42  C   UNL     1     -39.618  51.622 -51.993  1.00  0.00     0.026 A 
HETATM   43  C   UNL     1     -40.171  52.895 -52.186  1.00  0.00     0.032 A 
ENDBRANCH   5  37
TORSDOF 11
ENDMDL
MODEL 7
REMARK VINA RESULT:      -7.6      1.842      2.439
REMARK  11 active torsions:
REMARK  status: ('A' for Active; 'I' for Inactive)
REMARK    1  A    between atoms: C_2  and  O_3 
REMARK    2  A    between atoms: O_3  and  C_4 
REMARK    3  A    between atoms: C_7  and  N_8 
REMARK       I    between atoms: N_8  and  C_9 
REMARK    4  A    between atoms: C_9  and  C_10 
REMARK    5  A    between atoms: C_10  and  C_11 
REMARK    6  A    between atoms: N_12  and  C_13 
REMARK    7  A    between atoms: C_13  and  C_14 
REMARK    8  A    between atoms: C_14  and  C_15 
REMARK    9  A    between atoms: C_15  and  N_16 
REMARK   10  A    between atoms: C_20  and  C_21 
REMARK       I    between atoms: C_21  and  N_22 
REMARK   11  A    between atoms: N_28  and  C_29 
ROOT
HETATM    1  C   UNL     1     -42.937  59.213 -52.567  1.00  0.00     0.188 C 
HETATM    2  N   UNL     1     -42.840  60.273 -53.564  1.00  0.00    -0.344 N 
HETATM    3  C   UNL     1     -43.535  61.423 -53.140  1.00  0.00     0.184 C 
HETATM    4  S   UNL     1     -43.254  62.946 -53.778  1.00  0.00    -0.040 SA
HETATM    5  N   UNL     1     -44.374  61.048 -52.095  1.00  0.00    -0.257 N 
HETATM    6  C   UNL     1     -44.066  59.759 -51.701  1.00  0.00     0.254 C 
HETATM    7  O   UNL     1     -44.521  59.108 -50.766  1.00  0.00    -0.270 OA
ENDROOT
BRANCH   2   8
HETATM    8  C   UNL     1     -41.912  60.143 -54.696  1.00  0.00     0.128 C 
BRANCH   8   9
HETATM    9  C   UNL     1     -42.111  58.834 -55.481  1.00  0.00     0.048 C 
BRANCH   9  10
HETATM   10  C   UNL     1     -42.175  59.049 -56.997  1.00  0.00     0.236 C 
BRANCH  10  11
HETATM   11  N   UNL     1     -42.140  57.727 -57.752  1.00  0.00    -0.071 N 
HETATM   12  H   UNL     1     -41.256  57.251 -57.535  1.00  0.00     0.279 HD
HETATM   13  C   UNL     1     -43.287  56.825 -57.339  1.00  0.00     0.235 C 
HETATM   14  C   UNL     1     -43.183  55.491 -58.068  1.00  0.00     0.042 C 
HETATM   15  C   UNL     1     -43.197  55.675 -59.587  1.00  0.00     0.081 C 
HETATM   16  C   UNL     1     -42.107  56.664 -60.012  1.00  0.00     0.042 C 
HETATM   17  C   UNL     1     -42.146  57.984 -59.249  1.00  0.00     0.235 C 
BRANCH  15  18
HETATM   18  C   UNL     1     -44.574  56.135 -60.040  1.00  0.00     0.219 C 
HETATM   19  N   UNL     1     -45.607  55.320 -59.702  1.00  0.00    -0.370 N 
HETATM   20  H   UNL     1     -45.479  54.337 -59.495  1.00  0.00     0.159 HD
HETATM   21  H   UNL     1     -46.525  55.582 -60.052  1.00  0.00     0.159 HD
HETATM   22  O   UNL     1     -44.770  57.218 -60.577  1.00  0.00    -0.273 OA
ENDBRANCH  15  18
ENDBRANCH  10  11
ENDBRANCH   9  10
ENDBRANCH   8   9
ENDBRANCH   2   8
BRANCH   1  23
HETATM   23  C   UNL     1     -41.682  59.099 -51.711  1.00  0.00     0.138 C 
BRANCH  23  24
HETATM   24  C   UNL     1     -41.088  57.704 -51.755  1.00  0.00     0.224 C 
HETATM   25  N   UNL     1     -41.284  57.061 -52.958  1.00  0.00    -0.327 N 
HETATM   26  H   UNL     1     -41.533  57.631 -53.766  1.00  0.00     0.169 HD
HETATM   27  O   UNL     1     -40.515  57.258 -50.765  1.00  0.00    -0.273 OA
BRANCH  25  28
HETATM   28  C   UNL     1     -41.132  55.689 -53.235  1.00  0.00     0.034 A 
HETATM   29  C   UNL     1     -41.612  54.667 -52.419  1.00  0.00     0.032 A 
HETATM   30  C   UNL     1     -41.493  53.331 -52.824  1.00  0.00     0.039 A 
HETATM   31  C   UNL     1     -40.896  53.000 -54.041  1.00  0.00     0.068 A 
HETATM   32  C   UNL     1     -40.392  54.018 -54.846  1.00  0.00     0.039 A 
HETATM   33  C   UNL     1     -40.514  55.353 -54.447  1.00  0.00     0.032 A 
BRANCH  31  34
HETATM   34  O   UNL     1     -40.871  51.664 -54.329  1.00  0.00    -0.352 OA
BRANCH  34  35
HETATM   35  C   UNL     1     -39.623  50.990 -54.164  1.00  0.00     0.171 C 
HETATM   36  C   UNL     1     -39.810  49.889 -53.136  1.00  0.00     0.034 C 
ENDBRANCH  34  35
ENDBRANCH  31  34
ENDBRANCH  25  28
ENDBRANCH  23  24
ENDBRANCH   1  23
BRANCH   5  37
HETATM   37  C   UNL     1     -45.427  61.809 -51.495  1.00  0.00     0.045 A 
HETATM   38  C   UNL     1     -45.301  62.331 -50.196  1.00  0.00     0.032 A 
HETATM   39  C   UNL     1     -46.346  63.040 -49.586  1.00  0.00     0.026 A 
HETATM   40  C   UNL     1     -47.540  63.238 -50.267  1.00  0.00     0.034 A 
HETATM   41 CL   UNL     1     -48.825  64.100 -49.522  1.00  0.00    -0.084 Cl
HETATM   42  C   UNL     1     -47.699  62.724 -51.548  1.00  0.00     0.026 A 
HETATM   43  C   UNL     1     -46.654  62.010 -52.149  1.00  0.00     0.032 A 
ENDBRANCH   5  37
TORSDOF 11
ENDMDL
MODEL 8
REMARK VINA RESULT:      -7.5      4.419      8.732
REMARK  11 active torsions:
REMARK  status: ('A' for Active; 'I' for Inactive)
REMARK    1  A    between atoms: C_2  and  O_3 
REMARK    2  A    between atoms: O_3  and  C_4 
REMARK    3  A    between atoms: C_7  and  N_8 
REMARK       I    between atoms: N_8  and  C_9 
REMARK    4  A    between atoms: C_9  and  C_10 
REMARK    5  A    between atoms: C_10  and  C_11 
REMARK    6  A    between atoms: N_12  and  C_13 
REMARK    7  A    between atoms: C_13  and  C_14 
REMARK    8  A    between atoms: C_14  and  C_15 
REMARK    9  A    between atoms: C_15  and  N_16 
REMARK   10  A    between atoms: C_20  and  C_21 
REMARK       I    between atoms: C_21  and  N_22 
REMARK   11  A    between atoms: N_28  and  C_29 
ROOT
HETATM    1  C   UNL     1     -45.358  57.945 -56.707  1.00  0.00     0.188 C 
HETATM    2  N   UNL     1     -44.308  57.412 -57.568  1.00  0.00    -0.344 N 
HETATM    3  C   UNL     1     -44.647  57.573 -58.926  1.00  0.00     0.184 C 
HETATM    4  S   UNL     1     -43.517  57.522 -60.161  1.00  0.00    -0.040 SA
HETATM    5  N   UNL     1     -46.010  57.851 -58.992  1.00  0.00    -0.257 N 
HETATM    6  C   UNL     1     -46.489  58.092 -57.717  1.00  0.00     0.254 C 
HETATM    7  O   UNL     1     -47.610  58.449 -57.370  1.00  0.00    -0.270 OA
ENDROOT
BRANCH   2   8
HETATM    8  C   UNL     1     -43.013  57.019 -57.000  1.00  0.00     0.128 C 
BRANCH   8   9
HETATM    9  C   UNL     1     -43.155  56.126 -55.754  1.00  0.00     0.048 C 
BRANCH   9  10
HETATM   10  C   UNL     1     -42.070  55.048 -55.663  1.00  0.00     0.236 C 
BRANCH  10  11
HETATM   11  N   UNL     1     -42.030  54.409 -54.280  1.00  0.00    -0.071 N 
HETATM   12  H   UNL     1     -41.987  53.389 -54.394  1.00  0.00     0.279 HD
HETATM   13  C   UNL     1     -40.810  54.859 -53.500  1.00  0.00     0.235 C 
HETATM   14  C   UNL     1     -40.772  54.153 -52.150  1.00  0.00     0.042 C 
HETATM   15  C   UNL     1     -42.035  54.429 -51.333  1.00  0.00     0.081 C 
HETATM   16  C   UNL     1     -43.283  54.075 -52.146  1.00  0.00     0.042 C 
HETATM   17  C   UNL     1     -43.315  54.716 -53.530  1.00  0.00     0.235 C 
BRANCH  15  18
HETATM   18  C   UNL     1     -42.055  55.884 -50.887  1.00  0.00     0.219 C 
HETATM   19  N   UNL     1     -40.993  56.284 -50.139  1.00  0.00    -0.370 N 
HETATM   20  H   UNL     1     -40.422  55.634 -49.613  1.00  0.00     0.159 HD
HETATM   21  H   UNL     1     -41.023  57.235 -49.782  1.00  0.00     0.159 HD
HETATM   22  O   UNL     1     -42.906  56.681 -51.260  1.00  0.00    -0.273 OA
ENDBRANCH  15  18
ENDBRANCH  10  11
ENDBRANCH   9  10
ENDBRANCH   8   9
ENDBRANCH   2   8
BRANCH   1  23
HETATM   23  C   UNL     1     -45.019  59.324 -56.155  1.00  0.00     0.138 C 
BRANCH  23  24
HETATM   24  C   UNL     1     -44.499  59.256 -54.732  1.00  0.00     0.224 C 
HETATM   25  N   UNL     1     -43.216  59.739 -54.593  1.00  0.00    -0.327 N 
HETATM   26  H   UNL     1     -42.847  60.331 -55.337  1.00  0.00     0.169 HD
HETATM   27  O   UNL     1     -45.212  58.789 -53.848  1.00  0.00    -0.273 OA
BRANCH  25  28
HETATM   28  C   UNL     1     -42.342  59.557 -53.504  1.00  0.00     0.034 A 
HETATM   29  C   UNL     1     -41.138  58.860 -53.574  1.00  0.00     0.032 A 
HETATM   30  C   UNL     1     -40.290  58.810 -52.460  1.00  0.00     0.039 A 
HETATM   31  C   UNL     1     -40.631  59.451 -51.268  1.00  0.00     0.068 A 
HETATM   32  C   UNL     1     -41.846  60.126 -51.187  1.00  0.00     0.039 A 
HETATM   33  C   UNL     1     -42.692  60.181 -52.300  1.00  0.00     0.032 A 
BRANCH  31  34
HETATM   34  O   UNL     1     -39.703  59.349 -50.270  1.00  0.00    -0.352 OA
BRANCH  34  35
HETATM   35  C   UNL     1     -38.333  59.503 -50.643  1.00  0.00     0.171 C 
HETATM   36  C   UNL     1     -37.550  59.918 -49.411  1.00  0.00     0.034 C 
ENDBRANCH  34  35
ENDBRANCH  31  34
ENDBRANCH  25  28
ENDBRANCH  23  24
ENDBRANCH   1  23
BRANCH   5  37
HETATM   37  C   UNL     1     -46.849  57.872 -60.151  1.00  0.00     0.045 A 
HETATM   38  C   UNL     1     -47.264  56.680 -60.771  1.00  0.00     0.032 A 
HETATM   39  C   UNL     1     -48.050  56.694 -61.932  1.00  0.00     0.026 A 
HETATM   40  C   UNL     1     -48.434  57.903 -62.496  1.00  0.00     0.034 A 
HETATM   41 CL   UNL     1     -49.392  57.925 -63.921  1.00  0.00    -0.084 Cl
HETATM   42  C   UNL     1     -48.030  59.098 -61.912  1.00  0.00     0.026 A 
HETATM   43  C   UNL     1     -47.238  59.078 -60.756  1.00  0.00     0.032 A 
ENDBRANCH   5  37
TORSDOF 11
ENDMDL
MODEL 9
REMARK VINA RESULT:      -7.4      3.748      9.357
REMARK  11 active torsions:
REMARK  status: ('A' for Active; 'I' for Inactive)
REMARK    1  A    between atoms: C_2  and  O_3 
REMARK    2  A    between atoms: O_3  and  C_4 
REMARK    3  A    between atoms: C_7  and  N_8 
REMARK       I    between atoms: N_8  and  C_9 
REMARK    4  A    between atoms: C_9  and  C_10 
REMARK    5  A    between atoms: C_10  and  C_11 
REMARK    6  A    between atoms: N_12  and  C_13 
REMARK    7  A    between atoms: C_13  and  C_14 
REMARK    8  A    between atoms: C_14  and  C_15 
REMARK    9  A    between atoms: C_15  and  N_16 
REMARK   10  A    between atoms: C_20  and  C_21 
REMARK       I    between atoms: C_21  and  N_22 
REMARK   11  A    between atoms: N_28  and  C_29 
ROOT
HETATM    1  C   UNL     1     -43.529  57.289 -57.139  1.00  0.00     0.188 C 
HETATM    2  N   UNL     1     -43.197  58.176 -56.030  1.00  0.00    -0.344 N 
HETATM    3  C   UNL     1     -42.308  57.546 -55.136  1.00  0.00     0.184 C 
HETATM    4  S   UNL     1     -41.363  58.392 -54.043  1.00  0.00    -0.040 SA
HETATM    5  N   UNL     1     -42.328  56.182 -55.411  1.00  0.00    -0.257 N 
HETATM    6  C   UNL     1     -43.023  55.963 -56.586  1.00  0.00     0.254 C 
HETATM    7  O   UNL     1     -43.188  54.913 -57.200  1.00  0.00    -0.270 OA
ENDROOT
BRANCH   2   8
HETATM    8  C   UNL     1     -43.588  59.591 -56.071  1.00  0.00     0.128 C 
BRANCH   8   9
HETATM    9  C   UNL     1     -44.757  59.913 -55.124  1.00  0.00     0.048 C 
BRANCH   9  10
HETATM   10  C   UNL     1     -44.827  61.396 -54.743  1.00  0.00     0.236 C 
BRANCH  10  11
HETATM   11  N   UNL     1     -44.967  61.582 -53.237  1.00  0.00    -0.071 N 
HETATM   12  H   UNL     1     -44.880  62.583 -53.023  1.00  0.00     0.279 HD
HETATM   13  C   UNL     1     -46.318  61.099 -52.744  1.00  0.00     0.235 C 
HETATM   14  C   UNL     1     -46.443  61.357 -51.248  1.00  0.00     0.042 C 
HETATM   15  C   UNL     1     -45.331  60.663 -50.460  1.00  0.00     0.081 C 
HETATM   16  C   UNL     1     -43.959  61.061 -51.012  1.00  0.00     0.042 C 
HETATM   17  C   UNL     1     -43.829  60.876 -52.520  1.00  0.00     0.235 C 
BRANCH  15  18
HETATM   18  C   UNL     1     -45.531  59.155 -50.501  1.00  0.00     0.219 C 
HETATM   19  N   UNL     1     -44.395  58.412 -50.526  1.00  0.00    -0.370 N 
HETATM   20  H   UNL     1     -43.509  58.782 -50.849  1.00  0.00     0.159 HD
HETATM   21  H   UNL     1     -44.512  57.406 -50.616  1.00  0.00     0.159 HD
HETATM   22  O   UNL     1     -46.633  58.629 -50.407  1.00  0.00    -0.273 OA
ENDBRANCH  15  18
ENDBRANCH  10  11
ENDBRANCH   9  10
ENDBRANCH   8   9
ENDBRANCH   2   8
BRANCH   1  23
HETATM   23  C   UNL     1     -42.747  57.616 -58.405  1.00  0.00     0.138 C 
BRANCH  23  24
HETATM   24  C   UNL     1     -43.609  57.517 -59.649  1.00  0.00     0.224 C 
HETATM   25  N   UNL     1     -44.884  58.009 -59.474  1.00  0.00    -0.327 N 
HETATM   26  H   UNL     1     -45.051  58.624 -58.678  1.00  0.00     0.169 HD
HETATM   27  O   UNL     1     -43.143  57.020 -60.670  1.00  0.00    -0.273 OA
BRANCH  25  28
HETATM   28  C   UNL     1     -46.005  57.809 -60.303  1.00  0.00     0.034 A 
HETATM   29  C   UNL     1     -46.539  56.559 -60.608  1.00  0.00     0.032 A 
HETATM   30  C   UNL     1     -47.712  56.464 -61.368  1.00  0.00     0.039 A 
HETATM   31  C   UNL     1     -48.363  57.609 -61.831  1.00  0.00     0.068 A 
HETATM   32  C   UNL     1     -47.817  58.859 -61.548  1.00  0.00     0.039 A 
HETATM   33  C   UNL     1     -46.648  58.956 -60.786  1.00  0.00     0.032 A 
BRANCH  31  34
HETATM   34  O   UNL     1     -49.513  57.377 -62.533  1.00  0.00    -0.352 OA
BRANCH  34  35
HETATM   35  C   UNL     1     -49.957  58.415 -63.407  1.00  0.00     0.171 C 
HETATM   36  C   UNL     1     -51.254  58.977 -62.855  1.00  0.00     0.034 C 
ENDBRANCH  34  35
ENDBRANCH  31  34
ENDBRANCH  25  28
ENDBRANCH  23  24
ENDBRANCH   1  23
BRANCH   5  37
HETATM   37  C   UNL     1     -41.769  55.119 -54.633  1.00  0.00     0.045 A 
HETATM   38  C   UNL     1     -42.304  54.774 -53.379  1.00  0.00     0.032 A 
HETATM   39  C   UNL     1     -41.734  53.763 -52.592  1.00  0.00     0.026 A 
HETATM   40  C   UNL     1     -40.614  53.079 -53.046  1.00  0.00     0.034 A 
HETATM   41 CL   UNL     1     -39.908  51.845 -52.083  1.00  0.00    -0.084 Cl
HETATM   42  C   UNL     1     -40.055  53.405 -54.276  1.00  0.00     0.026 A 
HETATM   43  C   UNL     1     -40.624  54.422 -55.054  1.00  0.00     0.032 A 
ENDBRANCH   5  37
TORSDOF 11
ENDMDL
MODEL 10
REMARK VINA RESULT:      -7.3      3.059      7.015
REMARK  11 active torsions:
REMARK  status: ('A' for Active; 'I' for Inactive)
REMARK    1  A    between atoms: C_2  and  O_3 
REMARK    2  A    between atoms: O_3  and  C_4 
REMARK    3  A    between atoms: C_7  and  N_8 
REMARK       I    between atoms: N_8  and  C_9 
REMARK    4  A    between atoms: C_9  and  C_10 
REMARK    5  A    between atoms: C_10  and  C_11 
REMARK    6  A    between atoms: N_12  and  C_13 
REMARK    7  A    between atoms: C_13  and  C_14 
REMARK    8  A    between atoms: C_14  and  C_15 
REMARK    9  A    between atoms: C_15  and  N_16 
REMARK   10  A    between atoms: C_20  and  C_21 
REMARK       I    between atoms: C_21  and  N_22 
REMARK   11  A    between atoms: N_28  and  C_29 
ROOT
HETATM    1  C   UNL     1     -41.045  57.430 -52.981  1.00  0.00     0.188 C 
HETATM    2  N   UNL     1     -42.037  57.192 -51.939  1.00  0.00    -0.344 N 
HETATM    3  C   UNL     1     -43.235  57.879 -52.224  1.00  0.00     0.184 C 
HETATM    4  S   UNL     1     -44.705  57.475 -51.531  1.00  0.00    -0.040 SA
HETATM    5  N   UNL     1     -42.953  58.832 -53.199  1.00  0.00    -0.257 N 
HETATM    6  C   UNL     1     -41.681  58.616 -53.695  1.00  0.00     0.254 C 
HETATM    7  O   UNL     1     -41.105  59.188 -54.615  1.00  0.00    -0.270 OA
ENDROOT
BRANCH   2   8
HETATM    8  C   UNL     1     -41.806  56.164 -50.917  1.00  0.00     0.128 C 
BRANCH   8   9
HETATM    9  C   UNL     1     -42.539  54.844 -51.223  1.00  0.00     0.048 C 
BRANCH   9  10
HETATM   10  C   UNL     1     -41.738  53.605 -50.807  1.00  0.00     0.236 C 
BRANCH  10  11
HETATM   11  N   UNL     1     -40.691  53.239 -51.851  1.00  0.00    -0.071 N 
HETATM   12  H   UNL     1     -40.094  54.059 -52.015  1.00  0.00     0.279 HD
HETATM   13  C   UNL     1     -39.818  52.093 -51.378  1.00  0.00     0.235 C 
HETATM   14  C   UNL     1     -38.746  51.798 -52.420  1.00  0.00     0.042 C 
HETATM   15  C   UNL     1     -39.358  51.449 -53.777  1.00  0.00     0.081 C 
HETATM   16  C   UNL     1     -40.324  52.551 -54.224  1.00  0.00     0.042 C 
HETATM   17  C   UNL     1     -41.367  52.915 -53.172  1.00  0.00     0.235 C 
BRANCH  15  18
HETATM   18  C   UNL     1     -40.053  50.098 -53.700  1.00  0.00     0.219 C 
HETATM   19  N   UNL     1     -40.989  49.862 -54.657  1.00  0.00    -0.370 N 
HETATM   20  H   UNL     1     -41.457  50.609 -55.156  1.00  0.00     0.159 HD
HETATM   21  H   UNL     1     -41.505  48.991 -54.581  1.00  0.00     0.159 HD
HETATM   22  O   UNL     1     -39.726  49.227 -52.904  1.00  0.00    -0.273 OA
ENDBRANCH  15  18
ENDBRANCH  10  11
ENDBRANCH   9  10
ENDBRANCH   8   9
ENDBRANCH   2   8
BRANCH   1  23
HETATM   23  C   UNL     1     -40.940  56.272 -53.965  1.00  0.00     0.138 C 
BRANCH  23  24
HETATM   24  C   UNL     1     -42.144  56.194 -54.883  1.00  0.00     0.224 C 
HETATM   25  N   UNL     1     -41.869  56.563 -56.182  1.00  0.00    -0.327 N 
HETATM   26  H   UNL     1     -40.892  56.577 -56.475  1.00  0.00     0.169 HD
HETATM   27  O   UNL     1     -43.229  55.838 -54.431  1.00  0.00    -0.273 OA
BRANCH  25  28
HETATM   28  C   UNL     1     -42.789  56.885 -57.198  1.00  0.00     0.034 A 
HETATM   29  C   UNL     1     -43.271  55.974 -58.134  1.00  0.00     0.032 A 
HETATM   30  C   UNL     1     -44.255  56.365 -59.052  1.00  0.00     0.039 A 
HETATM   31  C   UNL     1     -44.767  57.664 -59.047  1.00  0.00     0.068 A 
HETATM   32  C   UNL     1     -44.267  58.584 -58.128  1.00  0.00     0.039 A 
HETATM   33  C   UNL     1     -43.289  58.194 -57.208  1.00  0.00     0.032 A 
BRANCH  31  34
HETATM   34  O   UNL     1     -45.743  57.905 -59.974  1.00  0.00    -0.352 OA
BRANCH  34  35
HETATM   35  C   UNL     1     -46.983  57.220 -59.800  1.00  0.00     0.171 C 
HETATM   36  C   UNL     1     -47.331  56.530 -61.106  1.00  0.00     0.034 C 
ENDBRANCH  34  35
ENDBRANCH  31  34
ENDBRANCH  25  28
ENDBRANCH  23  24
ENDBRANCH   1  23
BRANCH   5  37
HETATM   37  C   UNL     1     -43.786  59.908 -53.644  1.00  0.00     0.045 A 
HETATM   38  C   UNL     1     -43.570  61.226 -53.206  1.00  0.00     0.032 A 
HETATM   39  C   UNL     1     -44.408  62.277 -53.604  1.00  0.00     0.026 A 
HETATM   40  C   UNL     1     -45.482  62.027 -54.448  1.00  0.00     0.034 A 
HETATM   41 CL   UNL     1     -46.515  63.310 -54.933  1.00  0.00    -0.084 Cl
HETATM   42  C   UNL     1     -45.728  60.732 -54.888  1.00  0.00     0.026 A 
HETATM   43  C   UNL     1     -44.891  59.684 -54.482  1.00  0.00     0.032 A 
ENDBRANCH   5  37
TORSDOF 11
ENDMDL
