MODEL 1
REMARK VINA RESULT:      -8.0      0.000      0.000
REMARK  4 active torsions:
REMARK  status: ('A' for Active; 'I' for Inactive)
REMARK    1  A    between atoms: C_3  and  N_4 
REMARK    2  A    between atoms: N_4  and  C_5 
REMARK    3  A    between atoms: C_5  and  C_6 
REMARK    4  A    between atoms: C_14  and  C_15 
ROOT
HETATM    1  C   UNL     1     -44.008  56.740 -54.244  1.00  0.00     0.006 A 
HETATM    2  C   UNL     1     -43.616  57.064 -55.540  1.00  0.00     0.048 A 
HETATM    3  C   UNL     1     -42.582  56.354 -56.170  1.00  0.00     0.101 A 
HETATM    4  N   UNL     1     -41.957  55.402 -55.459  1.00  0.00    -0.342 N 
HETATM    5  H   UNL     1     -41.183  54.906 -55.881  1.00  0.00     0.167 HD
HETATM    6  C   UNL     1     -42.295  55.063 -54.200  1.00  0.00     0.044 A 
HETATM    7  C   UNL     1     -43.347  55.725 -53.569  1.00  0.00     0.030 A 
ENDROOT
BRANCH   6   8
HETATM    8  C   UNL     1     -41.512  53.978 -53.612  1.00  0.00    -0.007 A 
HETATM    9  C   UNL     1     -41.275  52.796 -54.337  1.00  0.00     0.053 A 
HETATM   10  C   UNL     1     -40.526  51.753 -53.789  1.00  0.00     0.103 A 
HETATM   11  C   UNL     1     -40.022  51.859 -52.494  1.00  0.00     0.102 A 
HETATM   12  O   UNL     1     -40.341  50.651 -54.582  1.00  0.00    -0.346 OA
HETATM   13  O   UNL     1     -39.313  50.862 -51.881  1.00  0.00    -0.346 OA
HETATM   14  C   UNL     1     -40.231  53.025 -51.764  1.00  0.00     0.040 A 
HETATM   15  C   UNL     1     -39.485  49.608 -52.555  1.00  0.00     0.202 C 
HETATM   16  C   UNL     1     -39.327  49.783 -54.058  1.00  0.00     0.202 C 
HETATM   17  C   UNL     1     -40.974  54.075 -52.314  1.00  0.00     0.016 A 
ENDBRANCH   6   8
BRANCH   3  18
HETATM   18  N   UNL     1     -42.165  56.744 -57.437  1.00  0.00    -0.372 N 
HETATM   19  H   UNL     1     -41.179  57.016 -57.433  1.00  0.00     0.161 HD
BRANCH  18  20
HETATM   20  C   UNL     1     -42.935  57.605 -58.334  1.00  0.00     0.162 C 
BRANCH  20  21
HETATM   21  C   UNL     1     -43.914  56.838 -59.163  1.00  0.00    -0.005 A 
HETATM   22  C   UNL     1     -43.520  55.783 -59.962  1.00  0.00     0.128 A 
HETATM   23  N   UNL     1     -44.360  55.099 -60.759  1.00  0.00    -0.254 NA
HETATM   24  C   UNL     1     -45.653  55.445 -60.696  1.00  0.00     0.232 A 
HETATM   25  N   UNL     1     -46.151  56.434 -59.943  1.00  0.00    -0.254 NA
HETATM   26  C   UNL     1     -45.272  57.093 -59.166  1.00  0.00     0.128 A 
ENDBRANCH  20  21
ENDBRANCH  18  20
ENDBRANCH   3  18
TORSDOF 4
ENDMDL
MODEL 2
REMARK VINA RESULT:      -7.9      1.606      2.153
REMARK  4 active torsions:
REMARK  status: ('A' for Active; 'I' for Inactive)
REMARK    1  A    between atoms: C_3  and  N_4 
REMARK    2  A    between atoms: N_4  and  C_5 
REMARK    3  A    between atoms: C_5  and  C_6 
REMARK    4  A    between atoms: C_14  and  C_15 
ROOT
HETATM    1  C   UNL     1     -42.091  57.816 -52.081  1.00  0.00     0.006 A 
HETATM    2  C   UNL     1     -42.650  57.983 -53.346  1.00  0.00     0.048 A 
HETATM    3  C   UNL     1     -42.647  56.927 -54.271  1.00  0.00     0.101 A 
HETATM    4  N   UNL     1     -42.042  55.784 -53.910  1.00  0.00    -0.342 N 
HETATM    5  H   UNL     1     -41.995  55.025 -54.577  1.00  0.00     0.167 HD
HETATM    6  C   UNL     1     -41.480  55.582 -52.703  1.00  0.00     0.044 A 
HETATM    7  C   UNL     1     -41.507  56.601 -51.753  1.00  0.00     0.030 A 
ENDROOT
BRANCH   6   8
HETATM    8  C   UNL     1     -40.901  54.256 -52.497  1.00  0.00    -0.007 A 
HETATM    9  C   UNL     1     -40.857  53.325 -53.551  1.00  0.00     0.053 A 
HETATM   10  C   UNL     1     -40.304  52.056 -53.368  1.00  0.00     0.103 A 
HETATM   11  C   UNL     1     -39.808  51.682 -52.120  1.00  0.00     0.102 A 
HETATM   12  O   UNL     1     -40.297  51.230 -54.460  1.00  0.00    -0.346 OA
HETATM   13  O   UNL     1     -39.288  50.444 -51.860  1.00  0.00    -0.346 OA
HETATM   14  C   UNL     1     -39.827  52.592 -51.067  1.00  0.00     0.040 A 
HETATM   15  C   UNL     1     -39.659  49.498 -52.872  1.00  0.00     0.202 C 
HETATM   16  C   UNL     1     -39.452  50.088 -54.258  1.00  0.00     0.202 C 
HETATM   17  C   UNL     1     -40.374  53.867 -51.250  1.00  0.00     0.016 A 
ENDBRANCH   6   8
BRANCH   3  18
HETATM   18  N   UNL     1     -43.150  57.143 -55.548  1.00  0.00    -0.372 N 
HETATM   19  H   UNL     1     -44.041  57.645 -55.513  1.00  0.00     0.161 HD
BRANCH  18  20
HETATM   20  C   UNL     1     -43.162  56.142 -56.614  1.00  0.00     0.162 C 
BRANCH  20  21
HETATM   21  C   UNL     1     -42.762  56.710 -57.937  1.00  0.00    -0.005 A 
HETATM   22  C   UNL     1     -42.878  55.984 -59.106  1.00  0.00     0.128 A 
HETATM   23  N   UNL     1     -42.485  56.440 -60.308  1.00  0.00    -0.254 NA
HETATM   24  C   UNL     1     -42.024  57.699 -60.344  1.00  0.00     0.232 A 
HETATM   25  N   UNL     1     -41.888  58.501 -59.281  1.00  0.00    -0.254 NA
HETATM   26  C   UNL     1     -42.290  57.999 -58.099  1.00  0.00     0.128 A 
ENDBRANCH  20  21
ENDBRANCH  18  20
ENDBRANCH   3  18
TORSDOF 4
ENDMDL
MODEL 3
REMARK VINA RESULT:      -7.6      1.858      2.922
REMARK  4 active torsions:
REMARK  status: ('A' for Active; 'I' for Inactive)
REMARK    1  A    between atoms: C_3  and  N_4 
REMARK    2  A    between atoms: N_4  and  C_5 
REMARK    3  A    between atoms: C_5  and  C_6 
REMARK    4  A    between atoms: C_14  and  C_15 
ROOT
HETATM    1  C   UNL     1     -44.097  56.819 -54.498  1.00  0.00     0.006 A 
HETATM    2  C   UNL     1     -43.651  57.168 -55.770  1.00  0.00     0.048 A 
HETATM    3  C   UNL     1     -42.561  56.501 -56.351  1.00  0.00     0.101 A 
HETATM    4  N   UNL     1     -41.940  55.565 -55.615  1.00  0.00    -0.342 N 
HETATM    5  H   UNL     1     -41.127  55.101 -56.001  1.00  0.00     0.167 HD
HETATM    6  C   UNL     1     -42.329  55.203 -54.378  1.00  0.00     0.044 A 
HETATM    7  C   UNL     1     -43.435  55.821 -53.797  1.00  0.00     0.030 A 
ENDROOT
BRANCH   6   8
HETATM    8  C   UNL     1     -41.538  54.142 -53.759  1.00  0.00    -0.007 A 
HETATM    9  C   UNL     1     -41.335  52.921 -54.428  1.00  0.00     0.053 A 
HETATM   10  C   UNL     1     -40.580  51.899 -53.849  1.00  0.00     0.103 A 
HETATM   11  C   UNL     1     -40.034  52.068 -52.578  1.00  0.00     0.102 A 
HETATM   12  O   UNL     1     -40.430  50.756 -54.588  1.00  0.00    -0.346 OA
HETATM   13  O   UNL     1     -39.316  51.096 -51.935  1.00  0.00    -0.346 OA
HETATM   14  C   UNL     1     -40.208  53.273 -51.904  1.00  0.00     0.040 A 
HETATM   15  C   UNL     1     -39.520  49.810 -52.537  1.00  0.00     0.202 C 
HETATM   16  C   UNL     1     -39.409  49.905 -54.051  1.00  0.00     0.202 C 
HETATM   17  C   UNL     1     -40.959  54.301 -52.484  1.00  0.00     0.016 A 
ENDBRANCH   6   8
BRANCH   3  18
HETATM   18  N   UNL     1     -42.095  56.916 -57.592  1.00  0.00    -0.372 N 
HETATM   19  H   UNL     1     -41.116  57.210 -57.538  1.00  0.00     0.161 HD
BRANCH  18  20
HETATM   20  C   UNL     1     -42.841  57.773 -58.513  1.00  0.00     0.162 C 
BRANCH  20  21
HETATM   21  C   UNL     1     -42.230  59.129 -58.655  1.00  0.00    -0.005 A 
HETATM   22  C   UNL     1     -42.143  59.765 -59.878  1.00  0.00     0.128 A 
HETATM   23  N   UNL     1     -41.558  60.962 -60.055  1.00  0.00    -0.254 NA
HETATM   24  C   UNL     1     -41.108  61.572 -58.950  1.00  0.00     0.232 A 
HETATM   25  N   UNL     1     -41.158  61.063 -57.713  1.00  0.00    -0.254 NA
HETATM   26  C   UNL     1     -41.747  59.861 -57.586  1.00  0.00     0.128 A 
ENDBRANCH  20  21
ENDBRANCH  18  20
ENDBRANCH   3  18
TORSDOF 4
ENDMDL
MODEL 4
REMARK VINA RESULT:      -7.6      2.762      5.103
REMARK  4 active torsions:
REMARK  status: ('A' for Active; 'I' for Inactive)
REMARK    1  A    between atoms: C_3  and  N_4 
REMARK    2  A    between atoms: N_4  and  C_5 
REMARK    3  A    between atoms: C_5  and  C_6 
REMARK    4  A    between atoms: C_14  and  C_15 
ROOT
HETATM    1  C   UNL     1     -42.940  56.119 -56.535  1.00  0.00     0.006 A 
HETATM    2  C   UNL     1     -43.633  56.973 -55.682  1.00  0.00     0.048 A 
HETATM    3  C   UNL     1     -43.554  56.809 -54.290  1.00  0.00     0.101 A 
HETATM    4  N   UNL     1     -42.836  55.774 -53.825  1.00  0.00    -0.342 N 
HETATM    5  H   UNL     1     -42.800  55.615 -52.826  1.00  0.00     0.167 HD
HETATM    6  C   UNL     1     -42.159  54.917 -54.612  1.00  0.00     0.044 A 
HETATM    7  C   UNL     1     -42.189  55.084 -55.996  1.00  0.00     0.030 A 
ENDROOT
BRANCH   6   8
HETATM    8  C   UNL     1     -41.413  53.876 -53.908  1.00  0.00    -0.007 A 
HETATM    9  C   UNL     1     -41.209  52.619 -54.504  1.00  0.00     0.053 A 
HETATM   10  C   UNL     1     -40.496  51.616 -53.843  1.00  0.00     0.103 A 
HETATM   11  C   UNL     1     -39.996  51.841 -52.562  1.00  0.00     0.102 A 
HETATM   12  O   UNL     1     -40.340  50.433 -54.516  1.00  0.00    -0.346 OA
HETATM   13  O   UNL     1     -39.323  50.892 -51.842  1.00  0.00    -0.346 OA
HETATM   14  C   UNL     1     -40.174  53.083 -51.958  1.00  0.00     0.040 A 
HETATM   15  C   UNL     1     -39.529  49.581 -52.384  1.00  0.00     0.202 C 
HETATM   16  C   UNL     1     -39.356  49.593 -53.895  1.00  0.00     0.202 C 
HETATM   17  C   UNL     1     -40.882  54.091 -52.621  1.00  0.00     0.016 A 
ENDBRANCH   6   8
BRANCH   3  18
HETATM   18  N   UNL     1     -44.311  57.633 -53.466  1.00  0.00    -0.372 N 
HETATM   19  H   UNL     1     -45.283  57.676 -53.782  1.00  0.00     0.161 HD
BRANCH  18  20
HETATM   20  C   UNL     1     -43.871  58.935 -52.967  1.00  0.00     0.162 C 
BRANCH  20  21
HETATM   21  C   UNL     1     -42.483  58.897 -52.414  1.00  0.00    -0.005 A 
HETATM   22  C   UNL     1     -42.218  58.413 -51.148  1.00  0.00     0.128 A 
HETATM   23  N   UNL     1     -40.992  58.406 -50.596  1.00  0.00    -0.254 NA
HETATM   24  C   UNL     1     -39.988  58.837 -51.373  1.00  0.00     0.232 A 
HETATM   25  N   UNL     1     -40.124  59.306 -52.619  1.00  0.00    -0.254 NA
HETATM   26  C   UNL     1     -41.370  59.298 -53.127  1.00  0.00     0.128 A 
ENDBRANCH  20  21
ENDBRANCH  18  20
ENDBRANCH   3  18
TORSDOF 4
ENDMDL
MODEL 5
REMARK VINA RESULT:      -7.4      3.371      5.397
REMARK  4 active torsions:
REMARK  status: ('A' for Active; 'I' for Inactive)
REMARK    1  A    between atoms: C_3  and  N_4 
REMARK    2  A    between atoms: N_4  and  C_5 
REMARK    3  A    between atoms: C_5  and  C_6 
REMARK    4  A    between atoms: C_14  and  C_15 
ROOT
HETATM    1  C   UNL     1     -42.278  57.032 -55.510  1.00  0.00     0.006 A 
HETATM    2  C   UNL     1     -43.344  57.452 -54.720  1.00  0.00     0.048 A 
HETATM    3  C   UNL     1     -43.655  56.780 -53.527  1.00  0.00     0.101 A 
HETATM    4  N   UNL     1     -42.926  55.697 -53.213  1.00  0.00    -0.342 N 
HETATM    5  H   UNL     1     -43.161  55.176 -52.378  1.00  0.00     0.167 HD
HETATM    6  C   UNL     1     -41.894  55.249 -53.952  1.00  0.00     0.044 A 
HETATM    7  C   UNL     1     -41.540  55.924 -55.119  1.00  0.00     0.030 A 
ENDROOT
BRANCH   6   8
HETATM    8  C   UNL     1     -41.209  54.072 -53.421  1.00  0.00    -0.007 A 
HETATM    9  C   UNL     1     -41.053  52.920 -54.213  1.00  0.00     0.053 A 
HETATM   10  C   UNL     1     -40.399  51.790 -53.719  1.00  0.00     0.103 A 
HETATM   11  C   UNL     1     -39.910  51.779 -52.415  1.00  0.00     0.102 A 
HETATM   12  O   UNL     1     -40.287  50.726 -54.575  1.00  0.00    -0.346 OA
HETATM   13  O   UNL     1     -39.294  50.693 -51.854  1.00  0.00    -0.346 OA
HETATM   14  C   UNL     1     -40.040  52.912 -51.618  1.00  0.00     0.040 A 
HETATM   15  C   UNL     1     -39.551  49.499 -52.605  1.00  0.00     0.202 C 
HETATM   16  C   UNL     1     -39.354  49.750 -54.092  1.00  0.00     0.202 C 
HETATM   17  C   UNL     1     -40.689  54.049 -52.112  1.00  0.00     0.016 A 
ENDBRANCH   6   8
BRANCH   3  18
HETATM   18  N   UNL     1     -44.767  57.179 -52.794  1.00  0.00    -0.372 N 
HETATM   19  H   UNL     1     -45.425  57.700 -53.379  1.00  0.00     0.161 HD
BRANCH  18  20
HETATM   20  C   UNL     1     -44.712  57.744 -51.447  1.00  0.00     0.162 C 
BRANCH  20  21
HETATM   21  C   UNL     1     -45.302  59.115 -51.378  1.00  0.00    -0.005 A 
HETATM   22  C   UNL     1     -45.541  59.745 -50.171  1.00  0.00     0.128 A 
HETATM   23  N   UNL     1     -46.114  60.956 -50.065  1.00  0.00    -0.254 NA
HETATM   24  C   UNL     1     -46.392  61.586 -51.216  1.00  0.00     0.232 A 
HETATM   25  N   UNL     1     -46.184  61.083 -52.439  1.00  0.00    -0.254 NA
HETATM   26  C   UNL     1     -45.613  59.866 -52.495  1.00  0.00     0.128 A 
ENDBRANCH  20  21
ENDBRANCH  18  20
ENDBRANCH   3  18
TORSDOF 4
ENDMDL
MODEL 6
REMARK VINA RESULT:      -7.3      3.813      8.555
REMARK  4 active torsions:
REMARK  status: ('A' for Active; 'I' for Inactive)
REMARK    1  A    between atoms: C_3  and  N_4 
REMARK    2  A    between atoms: N_4  and  C_5 
REMARK    3  A    between atoms: C_5  and  C_6 
REMARK    4  A    between atoms: C_14  and  C_15 
ROOT
HETATM    1  C   UNL     1     -43.421  54.977 -53.694  1.00  0.00     0.006 A 
HETATM    2  C   UNL     1     -42.222  54.286 -53.540  1.00  0.00     0.048 A 
HETATM    3  C   UNL     1     -41.242  54.326 -54.544  1.00  0.00     0.101 A 
HETATM    4  N   UNL     1     -41.529  55.004 -55.667  1.00  0.00    -0.342 N 
HETATM    5  H   UNL     1     -40.851  55.011 -56.418  1.00  0.00     0.167 HD
HETATM    6  C   UNL     1     -42.678  55.677 -55.864  1.00  0.00     0.044 A 
HETATM    7  C   UNL     1     -43.649  55.686 -54.864  1.00  0.00     0.030 A 
ENDROOT
BRANCH   6   8
HETATM    8  C   UNL     1     -42.782  56.377 -57.143  1.00  0.00    -0.007 A 
HETATM    9  C   UNL     1     -42.424  57.733 -57.244  1.00  0.00     0.053 A 
HETATM   10  C   UNL     1     -42.516  58.413 -58.461  1.00  0.00     0.103 A 
HETATM   11  C   UNL     1     -42.994  57.757 -59.594  1.00  0.00     0.102 A 
HETATM   12  O   UNL     1     -42.130  59.727 -58.457  1.00  0.00    -0.346 OA
HETATM   13  O   UNL     1     -43.146  58.371 -60.807  1.00  0.00    -0.346 OA
HETATM   14  C   UNL     1     -43.340  56.411 -59.520  1.00  0.00     0.040 A 
HETATM   15  C   UNL     1     -43.128  59.800 -60.677  1.00  0.00     0.202 C 
HETATM   16  C   UNL     1     -41.976  60.240 -59.787  1.00  0.00     0.202 C 
HETATM   17  C   UNL     1     -43.241  55.726 -58.305  1.00  0.00     0.016 A 
ENDBRANCH   6   8
BRANCH   3  18
HETATM   18  N   UNL     1     -40.085  53.571 -54.393  1.00  0.00    -0.372 N 
HETATM   19  H   UNL     1     -39.263  54.090 -54.714  1.00  0.00     0.161 HD
BRANCH  18  20
HETATM   20  C   UNL     1     -39.969  52.155 -54.737  1.00  0.00     0.162 C 
BRANCH  20  21
HETATM   21  C   UNL     1     -39.816  51.284 -53.532  1.00  0.00    -0.005 A 
HETATM   22  C   UNL     1     -39.779  51.809 -52.255  1.00  0.00     0.128 A 
HETATM   23  N   UNL     1     -39.595  51.067 -51.150  1.00  0.00    -0.254 NA
HETATM   24  C   UNL     1     -39.515  49.740 -51.332  1.00  0.00     0.232 A 
HETATM   25  N   UNL     1     -39.560  49.121 -52.518  1.00  0.00    -0.254 NA
HETATM   26  C   UNL     1     -39.741  49.906 -53.595  1.00  0.00     0.128 A 
ENDBRANCH  20  21
ENDBRANCH  18  20
ENDBRANCH   3  18
TORSDOF 4
ENDMDL
MODEL 7
REMARK VINA RESULT:      -7.3      1.538      2.250
REMARK  4 active torsions:
REMARK  status: ('A' for Active; 'I' for Inactive)
REMARK    1  A    between atoms: C_3  and  N_4 
REMARK    2  A    between atoms: N_4  and  C_5 
REMARK    3  A    between atoms: C_5  and  C_6 
REMARK    4  A    between atoms: C_14  and  C_15 
ROOT
HETATM    1  C   UNL     1     -42.689  58.463 -55.090  1.00  0.00     0.006 A 
HETATM    2  C   UNL     1     -42.720  58.405 -56.481  1.00  0.00     0.048 A 
HETATM    3  C   UNL     1     -42.308  57.245 -57.155  1.00  0.00     0.101 A 
HETATM    4  N   UNL     1     -41.834  56.229 -56.415  1.00  0.00    -0.342 N 
HETATM    5  H   UNL     1     -41.495  55.400 -56.885  1.00  0.00     0.167 HD
HETATM    6  C   UNL     1     -41.775  56.246 -55.070  1.00  0.00     0.044 A 
HETATM    7  C   UNL     1     -42.218  57.370 -54.376  1.00  0.00     0.030 A 
ENDROOT
BRANCH   6   8
HETATM    8  C   UNL     1     -41.257  55.027 -54.451  1.00  0.00    -0.007 A 
HETATM    9  C   UNL     1     -41.269  54.877 -53.053  1.00  0.00     0.053 A 
HETATM   10  C   UNL     1     -40.779  53.717 -52.449  1.00  0.00     0.103 A 
HETATM   11  C   UNL     1     -40.243  52.695 -53.230  1.00  0.00     0.102 A 
HETATM   12  O   UNL     1     -40.849  53.664 -51.082  1.00  0.00    -0.346 OA
HETATM   13  O   UNL     1     -39.711  51.549 -52.704  1.00  0.00    -0.346 OA
HETATM   14  C   UNL     1     -40.235  52.815 -54.616  1.00  0.00     0.040 A 
HETATM   15  C   UNL     1     -39.431  51.697 -51.305  1.00  0.00     0.202 C 
HETATM   16  C   UNL     1     -40.609  52.338 -50.588  1.00  0.00     0.202 C 
HETATM   17  C   UNL     1     -40.731  53.973 -55.224  1.00  0.00     0.016 A 
ENDBRANCH   6   8
BRANCH   3  18
HETATM   18  N   UNL     1     -42.285  57.239 -58.544  1.00  0.00    -0.372 N 
HETATM   19  H   UNL     1     -42.484  58.171 -58.919  1.00  0.00     0.161 HD
BRANCH  18  20
HETATM   20  C   UNL     1     -42.895  56.205 -59.379  1.00  0.00     0.162 C 
BRANCH  20  21
HETATM   21  C   UNL     1     -44.307  56.526 -59.746  1.00  0.00    -0.005 A 
HETATM   22  C   UNL     1     -45.234  55.536 -60.010  1.00  0.00     0.128 A 
HETATM   23  N   UNL     1     -46.499  55.783 -60.391  1.00  0.00    -0.254 NA
HETATM   24  C   UNL     1     -46.864  57.072 -60.439  1.00  0.00     0.232 A 
HETATM   25  N   UNL     1     -46.060  58.111 -60.183  1.00  0.00    -0.254 NA
HETATM   26  C   UNL     1     -44.801  57.815 -59.812  1.00  0.00     0.128 A 
ENDBRANCH  20  21
ENDBRANCH  18  20
ENDBRANCH   3  18
TORSDOF 4
ENDMDL
MODEL 8
REMARK VINA RESULT:      -7.2      3.893      7.690
REMARK  4 active torsions:
REMARK  status: ('A' for Active; 'I' for Inactive)
REMARK    1  A    between atoms: C_3  and  N_4 
REMARK    2  A    between atoms: N_4  and  C_5 
REMARK    3  A    between atoms: C_5  and  C_6 
REMARK    4  A    between atoms: C_14  and  C_15 
ROOT
HETATM    1  C   UNL     1     -43.328  56.141 -50.610  1.00  0.00     0.006 A 
HETATM    2  C   UNL     1     -42.555  55.038 -50.256  1.00  0.00     0.048 A 
HETATM    3  C   UNL     1     -41.932  54.259 -51.242  1.00  0.00     0.101 A 
HETATM    4  N   UNL     1     -42.155  54.583 -52.526  1.00  0.00    -0.342 N 
HETATM    5  H   UNL     1     -41.747  54.009 -53.253  1.00  0.00     0.167 HD
HETATM    6  C   UNL     1     -42.903  55.633 -52.915  1.00  0.00     0.044 A 
HETATM    7  C   UNL     1     -43.498  56.447 -51.952  1.00  0.00     0.030 A 
ENDROOT
BRANCH   6   8
HETATM    8  C   UNL     1     -42.997  55.834 -54.360  1.00  0.00    -0.007 A 
HETATM    9  C   UNL     1     -43.647  56.967 -54.881  1.00  0.00     0.053 A 
HETATM   10  C   UNL     1     -43.741  57.172 -56.259  1.00  0.00     0.103 A 
HETATM   11  C   UNL     1     -43.210  56.236 -57.144  1.00  0.00     0.102 A 
HETATM   12  O   UNL     1     -44.383  58.313 -56.663  1.00  0.00    -0.346 OA
HETATM   13  O   UNL     1     -43.300  56.354 -58.504  1.00  0.00    -0.346 OA
HETATM   14  C   UNL     1     -42.549  55.115 -56.650  1.00  0.00     0.040 A 
HETATM   15  C   UNL     1     -44.301  57.310 -58.881  1.00  0.00     0.202 C 
HETATM   16  C   UNL     1     -44.164  58.580 -58.056  1.00  0.00     0.202 C 
HETATM   17  C   UNL     1     -42.447  54.910 -55.270  1.00  0.00     0.016 A 
ENDBRANCH   6   8
BRANCH   3  18
HETATM   18  N   UNL     1     -41.224  53.124 -50.864  1.00  0.00    -0.372 N 
HETATM   19  H   UNL     1     -41.334  52.939 -49.863  1.00  0.00     0.161 HD
BRANCH  18  20
HETATM   20  C   UNL     1     -39.864  52.812 -51.301  1.00  0.00     0.162 C 
BRANCH  20  21
HETATM   21  C   UNL     1     -39.827  51.721 -52.321  1.00  0.00    -0.005 A 
HETATM   22  C   UNL     1     -40.055  51.968 -53.661  1.00  0.00     0.128 A 
HETATM   23  N   UNL     1     -40.079  51.009 -54.601  1.00  0.00    -0.254 NA
HETATM   24  C   UNL     1     -39.794  49.765 -54.189  1.00  0.00     0.232 A 
HETATM   25  N   UNL     1     -39.537  49.412 -52.923  1.00  0.00    -0.254 NA
HETATM   26  C   UNL     1     -39.529  50.406 -52.017  1.00  0.00     0.128 A 
ENDBRANCH  20  21
ENDBRANCH  18  20
ENDBRANCH   3  18
TORSDOF 4
ENDMDL
MODEL 9
REMARK VINA RESULT:      -7.2      4.163      6.322
REMARK  4 active torsions:
REMARK  status: ('A' for Active; 'I' for Inactive)
REMARK    1  A    between atoms: C_3  and  N_4 
REMARK    2  A    between atoms: N_4  and  C_5 
REMARK    3  A    between atoms: C_5  and  C_6 
REMARK    4  A    between atoms: C_14  and  C_15 
ROOT
HETATM    1  C   UNL     1     -41.812  57.605 -54.528  1.00  0.00     0.006 A 
HETATM    2  C   UNL     1     -42.072  58.285 -53.341  1.00  0.00     0.048 A 
HETATM    3  C   UNL     1     -41.889  57.651 -52.102  1.00  0.00     0.101 A 
HETATM    4  N   UNL     1     -41.513  56.362 -52.111  1.00  0.00    -0.342 N 
HETATM    5  H   UNL     1     -41.415  55.877 -51.229  1.00  0.00     0.167 HD
HETATM    6  C   UNL     1     -41.263  55.663 -53.233  1.00  0.00     0.044 A 
HETATM    7  C   UNL     1     -41.396  56.283 -54.475  1.00  0.00     0.030 A 
ENDROOT
BRANCH   6   8
HETATM    8  C   UNL     1     -40.834  54.280 -53.026  1.00  0.00    -0.007 A 
HETATM    9  C   UNL     1     -40.789  53.735 -51.731  1.00  0.00     0.053 A 
HETATM   10  C   UNL     1     -40.384  52.415 -51.520  1.00  0.00     0.103 A 
HETATM   11  C   UNL     1     -39.991  51.623 -52.597  1.00  0.00     0.102 A 
HETATM   12  O   UNL     1     -40.388  51.976 -50.222  1.00  0.00    -0.346 OA
HETATM   13  O   UNL     1     -39.548  50.336 -52.459  1.00  0.00    -0.346 OA
HETATM   14  C   UNL     1     -40.043  52.137 -53.889  1.00  0.00     0.040 A 
HETATM   15  C   UNL     1     -39.182  50.051 -51.101  1.00  0.00     0.202 C 
HETATM   16  C   UNL     1     -40.253  50.549 -50.143  1.00  0.00     0.202 C 
HETATM   17  C   UNL     1     -40.455  53.456 -54.104  1.00  0.00     0.016 A 
ENDBRANCH   6   8
BRANCH   3  18
HETATM   18  N   UNL     1     -42.221  58.332 -50.937  1.00  0.00    -0.372 N 
HETATM   19  H   UNL     1     -43.076  57.952 -50.520  1.00  0.00     0.161 HD
BRANCH  18  20
HETATM   20  C   UNL     1     -42.173  59.785 -50.783  1.00  0.00     0.162 C 
BRANCH  20  21
HETATM   21  C   UNL     1     -43.512  60.372 -50.471  1.00  0.00    -0.005 A 
HETATM   22  C   UNL     1     -43.644  61.631 -49.919  1.00  0.00     0.128 A 
HETATM   23  N   UNL     1     -44.825  62.174 -49.578  1.00  0.00    -0.254 NA
HETATM   24  C   UNL     1     -45.917  61.453 -49.870  1.00  0.00     0.232 A 
HETATM   25  N   UNL     1     -45.911  60.234 -50.424  1.00  0.00    -0.254 NA
HETATM   26  C   UNL     1     -44.705  59.730 -50.742  1.00  0.00     0.128 A 
ENDBRANCH  20  21
ENDBRANCH  18  20
ENDBRANCH   3  18
TORSDOF 4
ENDMDL
MODEL 10
REMARK VINA RESULT:      -7.1      3.516      7.524
REMARK  4 active torsions:
REMARK  status: ('A' for Active; 'I' for Inactive)
REMARK    1  A    between atoms: C_3  and  N_4 
REMARK    2  A    between atoms: N_4  and  C_5 
REMARK    3  A    between atoms: C_5  and  C_6 
REMARK    4  A    between atoms: C_14  and  C_15 
ROOT
HETATM    1  C   UNL     1     -43.911  56.916 -51.464  1.00  0.00     0.006 A 
HETATM    2  C   UNL     1     -43.213  55.764 -51.111  1.00  0.00     0.048 A 
HETATM    3  C   UNL     1     -42.410  55.101 -52.052  1.00  0.00     0.101 A 
HETATM    4  N   UNL     1     -42.389  55.586 -53.304  1.00  0.00    -0.342 N 
HETATM    5  H   UNL     1     -41.847  55.099 -54.007  1.00  0.00     0.167 HD
HETATM    6  C   UNL     1     -43.056  56.688 -53.693  1.00  0.00     0.044 A 
HETATM    7  C   UNL     1     -43.827  57.388 -52.766  1.00  0.00     0.030 A 
ENDROOT
BRANCH   6   8
HETATM    8  C   UNL     1     -42.876  57.068 -55.093  1.00  0.00    -0.007 A 
HETATM    9  C   UNL     1     -43.071  56.125 -56.117  1.00  0.00     0.053 A 
HETATM   10  C   UNL     1     -42.905  56.475 -57.459  1.00  0.00     0.103 A 
HETATM   11  C   UNL     1     -42.516  57.768 -57.802  1.00  0.00     0.102 A 
HETATM   12  O   UNL     1     -43.131  55.487 -58.380  1.00  0.00    -0.346 OA
HETATM   13  O   UNL     1     -42.298  58.169 -59.092  1.00  0.00    -0.346 OA
HETATM   14  C   UNL     1     -42.333  58.722 -56.805  1.00  0.00     0.040 A 
HETATM   15  C   UNL     1     -42.145  57.045 -59.970  1.00  0.00     0.202 C 
HETATM   16  C   UNL     1     -43.230  56.013 -59.711  1.00  0.00     0.202 C 
HETATM   17  C   UNL     1     -42.505  58.376 -55.461  1.00  0.00     0.016 A 
ENDBRANCH   6   8
BRANCH   3  18
HETATM   18  N   UNL     1     -41.779  53.917 -51.691  1.00  0.00    -0.372 N 
HETATM   19  H   UNL     1     -42.079  53.608 -50.763  1.00  0.00     0.161 HD
BRANCH  18  20
HETATM   20  C   UNL     1     -40.357  53.640 -51.893  1.00  0.00     0.162 C 
BRANCH  20  21
HETATM   21  C   UNL     1     -40.117  52.301 -52.511  1.00  0.00    -0.005 A 
HETATM   22  C   UNL     1     -40.314  52.076 -53.860  1.00  0.00     0.128 A 
HETATM   23  N   UNL     1     -40.157  50.876 -54.445  1.00  0.00    -0.254 NA
HETATM   24  C   UNL     1     -39.718  49.883 -53.657  1.00  0.00     0.232 A 
HETATM   25  N   UNL     1     -39.475  49.991 -52.345  1.00  0.00    -0.254 NA
HETATM   26  C   UNL     1     -39.651  51.210 -51.803  1.00  0.00     0.128 A 
ENDBRANCH  20  21
ENDBRANCH  18  20
ENDBRANCH   3  18
TORSDOF 4
ENDMDL
