MODEL 1
REMARK VINA RESULT:      -7.4      0.000      0.000
REMARK  14 active torsions:
REMARK  status: ('A' for Active; 'I' for Inactive)
REMARK    1  A    between atoms: C_2  and  O_3 
REMARK    2  A    between atoms: O_3  and  C_4 
REMARK    3  A    between atoms: C_5  and  O_6 
REMARK    4  A    between atoms: C_9  and  C_10 
REMARK    5  A    between atoms: N_11  and  C_12 
REMARK    6  A    between atoms: C_12  and  C_13 
REMARK    7  A    between atoms: C_13  and  C_14 
REMARK    8  A    between atoms: C_14  and  N_15 
REMARK    9  A    between atoms: C_24  and  O_25 
REMARK   10  A    between atoms: C_26  and  C_27 
REMARK   11  A    between atoms: C_27  and  C_28 
REMARK   12  A    between atoms: C_32  and  O_33 
REMARK   13  A    between atoms: O_33  and  C_34 
REMARK   14  A    between atoms: C_34  and  C_35 
ROOT
HETATM    1  C   UNL     1     -43.422  57.860 -55.390  1.00  0.00     0.161 C 
HETATM    2  N   UNL     1     -44.622  58.693 -55.426  1.00  0.00    -0.333 N 
HETATM    3  C   UNL     1     -44.446  59.848 -54.691  1.00  0.00     0.278 C 
HETATM    4  O   UNL     1     -45.232  60.765 -54.527  1.00  0.00    -0.265 OA
HETATM    5  C   UNL     1     -43.105  59.786 -54.070  1.00  0.00     0.146 C 
HETATM    6  C   UNL     1     -42.572  58.608 -54.409  1.00  0.00     0.059 C 
ENDROOT
BRANCH   6   7
HETATM    7  C   UNL     1     -41.336  57.968 -53.912  1.00  0.00     0.193 C 
HETATM    8  O   UNL     1     -40.361  58.668 -53.654  1.00  0.00    -0.287 OA
BRANCH   7   9
HETATM    9  C   UNL     1     -41.218  56.487 -53.832  1.00  0.00     0.015 A 
HETATM   10  C   UNL     1     -41.763  55.835 -52.718  1.00  0.00     0.025 A 
HETATM   11  C   UNL     1     -41.623  54.445 -52.559  1.00  0.00    -0.028 A 
HETATM   12  C   UNL     1     -42.205  53.769 -51.347  1.00  0.00     0.051 C 
HETATM   13  C   UNL     1     -40.933  53.701 -53.532  1.00  0.00     0.074 A 
HETATM   14  C   UNL     1     -40.366  54.358 -54.626  1.00  0.00     0.038 A 
HETATM   15  C   UNL     1     -40.495  55.744 -54.769  1.00  0.00     0.018 A 
BRANCH  13  16
HETATM   16  O   UNL     1     -40.846  52.352 -53.304  1.00  0.00    -0.350 OA
BRANCH  16  17
HETATM   17  C   UNL     1     -39.564  51.822 -52.965  1.00  0.00     0.179 C 
BRANCH  17  18
HETATM   18  C   UNL     1     -39.475  50.368 -53.449  1.00  0.00     0.002 C 
HETATM   19  C   UNL     1     -39.630  49.381 -52.290  1.00  0.00     0.011 C 
HETATM   20  C   UNL     1     -40.531  50.100 -54.520  1.00  0.00     0.011 C 
ENDBRANCH  17  18
ENDBRANCH  16  17
ENDBRANCH  13  16
ENDBRANCH   7   9
ENDBRANCH   6   7
BRANCH   1  21
HETATM   21  C   UNL     1     -42.871  57.740 -56.804  1.00  0.00    -0.028 A 
HETATM   22  C   UNL     1     -42.160  58.795 -57.409  1.00  0.00     0.012 A 
HETATM   23  C   UNL     1     -41.739  58.702 -58.734  1.00  0.00     0.040 A 
HETATM   24  C   UNL     1     -42.019  57.551 -59.454  1.00  0.00     0.099 A 
HETATM   25  C   UNL     1     -42.693  56.471 -58.878  1.00  0.00     0.102 A 
HETATM   26  C   UNL     1     -43.123  56.572 -57.553  1.00  0.00     0.049 A 
BRANCH  24  27
HETATM   27  O   UNL     1     -41.611  57.495 -60.758  1.00  0.00    -0.358 OA
HETATM   28  H   UNL     1     -41.302  58.397 -60.972  1.00  0.00     0.218 HD
ENDBRANCH  24  27
BRANCH  25  29
HETATM   29  O   UNL     1     -42.893  55.403 -59.711  1.00  0.00    -0.349 OA
BRANCH  29  30
HETATM   30  C   UNL     1     -44.207  54.848 -59.746  1.00  0.00     0.171 C 
HETATM   31  C   UNL     1     -44.943  55.466 -60.922  1.00  0.00     0.034 C 
ENDBRANCH  29  30
ENDBRANCH  25  29
ENDBRANCH   1  21
BRANCH   5  32
HETATM   32  O   UNL     1     -42.619  60.743 -53.233  1.00  0.00    -0.355 OA
HETATM   33  H   UNL     1     -43.313  60.916 -52.566  1.00  0.00     0.218 HD
ENDBRANCH   5  32
BRANCH   2  34
HETATM   34  C   UNL     1     -45.913  58.117 -55.771  1.00  0.00     0.129 C 
BRANCH  34  35
HETATM   35  C   UNL     1     -46.639  58.800 -56.928  1.00  0.00     0.048 C 
BRANCH  35  36
HETATM   36  C   UNL     1     -46.251  58.204 -58.276  1.00  0.00     0.236 C 
BRANCH  36  37
HETATM   37  N   UNL     1     -45.271  59.122 -58.978  1.00  0.00    -0.067 N 
HETATM   38  H   UNL     1     -44.319  58.800 -58.768  1.00  0.00     0.280 HD
HETATM   39  C   UNL     1     -45.440  59.105 -60.501  1.00  0.00     0.261 C 
HETATM   40  C   UNL     1     -44.416  60.053 -61.137  1.00  0.00     0.195 C 
HETATM   41  O   UNL     1     -44.554  61.382 -60.621  1.00  0.00    -0.388 OA
HETATM   42  C   UNL     1     -44.349  61.431 -59.206  1.00  0.00     0.195 C 
HETATM   43  C   UNL     1     -45.375  60.560 -58.472  1.00  0.00     0.261 C 
ENDBRANCH  36  37
ENDBRANCH  35  36
ENDBRANCH  34  35
ENDBRANCH   2  34
TORSDOF 14
ENDMDL
MODEL 2
REMARK VINA RESULT:      -7.4      2.424      5.758
REMARK  14 active torsions:
REMARK  status: ('A' for Active; 'I' for Inactive)
REMARK    1  A    between atoms: C_2  and  O_3 
REMARK    2  A    between atoms: O_3  and  C_4 
REMARK    3  A    between atoms: C_5  and  O_6 
REMARK    4  A    between atoms: C_9  and  C_10 
REMARK    5  A    between atoms: N_11  and  C_12 
REMARK    6  A    between atoms: C_12  and  C_13 
REMARK    7  A    between atoms: C_13  and  C_14 
REMARK    8  A    between atoms: C_14  and  N_15 
REMARK    9  A    between atoms: C_24  and  O_25 
REMARK   10  A    between atoms: C_26  and  C_27 
REMARK   11  A    between atoms: C_27  and  C_28 
REMARK   12  A    between atoms: C_32  and  O_33 
REMARK   13  A    between atoms: O_33  and  C_34 
REMARK   14  A    between atoms: C_34  and  C_35 
ROOT
HETATM    1  C   UNL     1     -42.602  57.568 -55.605  1.00  0.00     0.161 C 
HETATM    2  N   UNL     1     -42.922  58.870 -56.187  1.00  0.00    -0.333 N 
HETATM    3  C   UNL     1     -43.762  58.733 -57.273  1.00  0.00     0.278 C 
HETATM    4  O   UNL     1     -44.238  59.611 -57.973  1.00  0.00    -0.265 OA
HETATM    5  C   UNL     1     -43.980  57.288 -57.495  1.00  0.00     0.146 C 
HETATM    6  C   UNL     1     -43.242  56.638 -56.589  1.00  0.00     0.059 C 
ENDROOT
BRANCH   6   7
HETATM    7  C   UNL     1     -42.955  55.192 -56.488  1.00  0.00     0.193 C 
HETATM    8  O   UNL     1     -43.435  54.426 -57.319  1.00  0.00    -0.287 OA
BRANCH   7   9
HETATM    9  C   UNL     1     -42.198  54.640 -55.332  1.00  0.00     0.015 A 
HETATM   10  C   UNL     1     -42.892  54.391 -54.140  1.00  0.00     0.025 A 
HETATM   11  C   UNL     1     -42.215  53.931 -52.997  1.00  0.00    -0.028 A 
HETATM   12  C   UNL     1     -42.979  53.684 -51.725  1.00  0.00     0.051 C 
HETATM   13  C   UNL     1     -40.827  53.713 -53.052  1.00  0.00     0.074 A 
HETATM   14  C   UNL     1     -40.134  53.989 -54.233  1.00  0.00     0.038 A 
HETATM   15  C   UNL     1     -40.813  54.464 -55.362  1.00  0.00     0.018 A 
BRANCH  13  16
HETATM   16  O   UNL     1     -40.245  53.260 -51.897  1.00  0.00    -0.350 OA
BRANCH  16  17
HETATM   17  C   UNL     1     -39.264  52.228 -52.013  1.00  0.00     0.179 C 
BRANCH  17  18
HETATM   18  C   UNL     1     -39.970  50.878 -52.201  1.00  0.00     0.002 C 
HETATM   19  C   UNL     1     -39.666  50.273 -53.574  1.00  0.00     0.011 C 
HETATM   20  C   UNL     1     -39.567  49.909 -51.092  1.00  0.00     0.011 C 
ENDBRANCH  17  18
ENDBRANCH  16  17
ENDBRANCH  13  16
ENDBRANCH   7   9
ENDBRANCH   6   7
BRANCH   1  21
HETATM   21  C   UNL     1     -43.146  57.523 -54.184  1.00  0.00    -0.028 A 
HETATM   22  C   UNL     1     -44.531  57.535 -53.925  1.00  0.00     0.012 A 
HETATM   23  C   UNL     1     -45.011  57.582 -52.618  1.00  0.00     0.040 A 
HETATM   24  C   UNL     1     -44.109  57.607 -51.567  1.00  0.00     0.099 A 
HETATM   25  C   UNL     1     -42.728  57.563 -51.783  1.00  0.00     0.102 A 
HETATM   26  C   UNL     1     -42.251  57.526 -53.095  1.00  0.00     0.049 A 
BRANCH  24  27
HETATM   27  O   UNL     1     -44.607  57.672 -50.295  1.00  0.00    -0.358 OA
HETATM   28  H   UNL     1     -45.483  57.240 -50.338  1.00  0.00     0.218 HD
ENDBRANCH  24  27
BRANCH  25  29
HETATM   29  O   UNL     1     -41.964  57.589 -50.647  1.00  0.00    -0.349 OA
BRANCH  29  30
HETATM   30  C   UNL     1     -40.703  58.252 -50.733  1.00  0.00     0.171 C 
HETATM   31  C   UNL     1     -40.895  59.683 -50.265  1.00  0.00     0.034 C 
ENDBRANCH  29  30
ENDBRANCH  25  29
ENDBRANCH   1  21
BRANCH   5  32
HETATM   32  O   UNL     1     -44.722  56.788 -58.521  1.00  0.00    -0.355 OA
HETATM   33  H   UNL     1     -44.094  56.516 -59.220  1.00  0.00     0.218 HD
ENDBRANCH   5  32
BRANCH   2  34
HETATM   34  C   UNL     1     -42.072  60.023 -55.933  1.00  0.00     0.129 C 
BRANCH  34  35
HETATM   35  C   UNL     1     -42.478  60.876 -54.733  1.00  0.00     0.048 C 
BRANCH  35  36
HETATM   36  C   UNL     1     -43.887  61.437 -54.881  1.00  0.00     0.236 C 
BRANCH  36  37
HETATM   37  N   UNL     1     -44.511  61.621 -53.512  1.00  0.00    -0.067 N 
HETATM   38  H   UNL     1     -44.632  62.627 -53.344  1.00  0.00     0.280 HD
HETATM   39  C   UNL     1     -45.892  60.964 -53.405  1.00  0.00     0.261 C 
HETATM   40  C   UNL     1     -46.456  61.195 -51.997  1.00  0.00     0.195 C 
HETATM   41  O   UNL     1     -45.567  60.686 -50.996  1.00  0.00    -0.388 OA
HETATM   42  C   UNL     1     -44.286  61.322 -51.044  1.00  0.00     0.195 C 
HETATM   43  C   UNL     1     -43.609  61.091 -52.399  1.00  0.00     0.261 C 
ENDBRANCH  36  37
ENDBRANCH  35  36
ENDBRANCH  34  35
ENDBRANCH   2  34
TORSDOF 14
ENDMDL
MODEL 3
REMARK VINA RESULT:      -7.3      3.606      5.996
REMARK  14 active torsions:
REMARK  status: ('A' for Active; 'I' for Inactive)
REMARK    1  A    between atoms: C_2  and  O_3 
REMARK    2  A    between atoms: O_3  and  C_4 
REMARK    3  A    between atoms: C_5  and  O_6 
REMARK    4  A    between atoms: C_9  and  C_10 
REMARK    5  A    between atoms: N_11  and  C_12 
REMARK    6  A    between atoms: C_12  and  C_13 
REMARK    7  A    between atoms: C_13  and  C_14 
REMARK    8  A    between atoms: C_14  and  N_15 
REMARK    9  A    between atoms: C_24  and  O_25 
REMARK   10  A    between atoms: C_26  and  C_27 
REMARK   11  A    between atoms: C_27  and  C_28 
REMARK   12  A    between atoms: C_32  and  O_33 
REMARK   13  A    between atoms: O_33  and  C_34 
REMARK   14  A    between atoms: C_34  and  C_35 
ROOT
HETATM    1  C   UNL     1     -44.168  58.726 -52.338  1.00  0.00     0.161 C 
HETATM    2  N   UNL     1     -43.519  60.032 -52.260  1.00  0.00    -0.333 N 
HETATM    3  C   UNL     1     -42.417  59.989 -51.429  1.00  0.00     0.278 C 
HETATM    4  O   UNL     1     -41.642  60.891 -51.158  1.00  0.00    -0.265 OA
HETATM    5  C   UNL     1     -42.336  58.627 -50.860  1.00  0.00     0.146 C 
HETATM    6  C   UNL     1     -43.390  57.948 -51.322  1.00  0.00     0.059 C 
ENDROOT
BRANCH   6   7
HETATM    7  C   UNL     1     -43.882  56.612 -50.924  1.00  0.00     0.193 C 
HETATM    8  O   UNL     1     -45.025  56.498 -50.490  1.00  0.00    -0.287 OA
BRANCH   7   9
HETATM    9  C   UNL     1     -42.979  55.430 -50.930  1.00  0.00     0.015 A 
HETATM   10  C   UNL     1     -42.188  55.191 -49.798  1.00  0.00     0.025 A 
HETATM   11  C   UNL     1     -41.270  54.127 -49.774  1.00  0.00    -0.028 A 
HETATM   12  C   UNL     1     -40.422  53.899 -48.552  1.00  0.00     0.051 C 
HETATM   13  C   UNL     1     -41.148  53.288 -50.896  1.00  0.00     0.074 A 
HETATM   14  C   UNL     1     -41.917  53.546 -52.033  1.00  0.00     0.038 A 
HETATM   15  C   UNL     1     -42.817  54.618 -52.056  1.00  0.00     0.018 A 
BRANCH  13  16
HETATM   16  O   UNL     1     -40.235  52.273 -50.788  1.00  0.00    -0.350 OA
BRANCH  16  17
HETATM   17  C   UNL     1     -39.464  51.953 -51.948  1.00  0.00     0.179 C 
BRANCH  17  18
HETATM   18  C   UNL     1     -39.240  50.436 -52.002  1.00  0.00     0.002 C 
HETATM   19  C   UNL     1     -39.869  49.733 -50.797  1.00  0.00     0.011 C 
HETATM   20  C   UNL     1     -39.798  49.863 -53.303  1.00  0.00     0.011 C 
ENDBRANCH  17  18
ENDBRANCH  16  17
ENDBRANCH  13  16
ENDBRANCH   7   9
ENDBRANCH   6   7
BRANCH   1  21
HETATM   21  C   UNL     1     -44.086  58.227 -53.774  1.00  0.00    -0.028 A 
HETATM   22  C   UNL     1     -45.144  58.428 -54.684  1.00  0.00     0.012 A 
HETATM   23  C   UNL     1     -45.090  57.890 -55.968  1.00  0.00     0.040 A 
HETATM   24  C   UNL     1     -43.977  57.157 -56.349  1.00  0.00     0.099 A 
HETATM   25  C   UNL     1     -42.895  56.964 -55.485  1.00  0.00     0.102 A 
HETATM   26  C   UNL     1     -42.957  57.497 -54.196  1.00  0.00     0.049 A 
BRANCH  24  27
HETATM   27  O   UNL     1     -43.959  56.624 -57.608  1.00  0.00    -0.358 OA
HETATM   28  H   UNL     1     -43.015  56.483 -57.816  1.00  0.00     0.218 HD
ENDBRANCH  24  27
BRANCH  25  29
HETATM   29  O   UNL     1     -41.866  56.224 -56.004  1.00  0.00    -0.349 OA
BRANCH  29  30
HETATM   30  C   UNL     1     -41.729  54.886 -55.526  1.00  0.00     0.171 C 
HETATM   31  C   UNL     1     -40.305  54.712 -55.028  1.00  0.00     0.034 C 
ENDBRANCH  29  30
ENDBRANCH  25  29
ENDBRANCH   1  21
BRANCH   5  32
HETATM   32  O   UNL     1     -41.392  58.245 -49.956  1.00  0.00    -0.355 OA
HETATM   33  H   UNL     1     -41.715  57.421 -49.540  1.00  0.00     0.218 HD
ENDBRANCH   5  32
BRANCH   2  34
HETATM   34  C   UNL     1     -44.246  61.242 -52.613  1.00  0.00     0.129 C 
BRANCH  34  35
HETATM   35  C   UNL     1     -45.420  61.583 -51.697  1.00  0.00     0.048 C 
BRANCH  35  36
HETATM   36  C   UNL     1     -45.143  62.821 -50.852  1.00  0.00     0.236 C 
BRANCH  36  37
HETATM   37  N   UNL     1     -45.475  62.534 -49.402  1.00  0.00    -0.067 N 
HETATM   38  H   UNL     1     -44.834  63.075 -48.809  1.00  0.00     0.280 HD
HETATM   39  C   UNL     1     -46.904  62.948 -49.034  1.00  0.00     0.261 C 
HETATM   40  C   UNL     1     -47.162  62.629 -47.557  1.00  0.00     0.195 C 
HETATM   41  O   UNL     1     -46.946  61.240 -47.284  1.00  0.00    -0.388 OA
HETATM   42  C   UNL     1     -45.602  60.841 -47.571  1.00  0.00     0.195 C 
HETATM   43  C   UNL     1     -45.267  61.062 -49.050  1.00  0.00     0.261 C 
ENDBRANCH  36  37
ENDBRANCH  35  36
ENDBRANCH  34  35
ENDBRANCH   2  34
TORSDOF 14
ENDMDL
MODEL 4
REMARK VINA RESULT:      -7.3      2.454      7.832
REMARK  14 active torsions:
REMARK  status: ('A' for Active; 'I' for Inactive)
REMARK    1  A    between atoms: C_2  and  O_3 
REMARK    2  A    between atoms: O_3  and  C_4 
REMARK    3  A    between atoms: C_5  and  O_6 
REMARK    4  A    between atoms: C_9  and  C_10 
REMARK    5  A    between atoms: N_11  and  C_12 
REMARK    6  A    between atoms: C_12  and  C_13 
REMARK    7  A    between atoms: C_13  and  C_14 
REMARK    8  A    between atoms: C_14  and  N_15 
REMARK    9  A    between atoms: C_24  and  O_25 
REMARK   10  A    between atoms: C_26  and  C_27 
REMARK   11  A    between atoms: C_27  and  C_28 
REMARK   12  A    between atoms: C_32  and  O_33 
REMARK   13  A    between atoms: O_33  and  C_34 
REMARK   14  A    between atoms: C_34  and  C_35 
ROOT
HETATM    1  C   UNL     1     -41.751  59.198 -54.523  1.00  0.00     0.161 C 
HETATM    2  N   UNL     1     -41.941  59.832 -53.220  1.00  0.00    -0.333 N 
HETATM    3  C   UNL     1     -42.584  61.046 -53.349  1.00  0.00     0.278 C 
HETATM    4  O   UNL     1     -42.914  61.822 -52.467  1.00  0.00    -0.265 OA
HETATM    5  C   UNL     1     -42.790  61.296 -54.792  1.00  0.00     0.146 C 
HETATM    6  C   UNL     1     -42.232  60.273 -55.448  1.00  0.00     0.059 C 
ENDROOT
BRANCH   6   7
HETATM    7  C   UNL     1     -41.997  60.117 -56.898  1.00  0.00     0.193 C 
HETATM    8  O   UNL     1     -41.067  60.723 -57.424  1.00  0.00    -0.287 OA
BRANCH   7   9
HETATM    9  C   UNL     1     -42.936  59.336 -57.748  1.00  0.00     0.015 A 
HETATM   10  C   UNL     1     -42.501  58.109 -58.266  1.00  0.00     0.025 A 
HETATM   11  C   UNL     1     -43.322  57.360 -59.127  1.00  0.00    -0.028 A 
HETATM   12  C   UNL     1     -42.828  56.052 -59.681  1.00  0.00     0.051 C 
HETATM   13  C   UNL     1     -44.598  57.845 -59.467  1.00  0.00     0.074 A 
HETATM   14  C   UNL     1     -45.017  59.082 -58.972  1.00  0.00     0.038 A 
HETATM   15  C   UNL     1     -44.186  59.830 -58.129  1.00  0.00     0.018 A 
BRANCH  13  16
HETATM   16  O   UNL     1     -45.335  57.052 -60.306  1.00  0.00    -0.350 OA
BRANCH  16  17
HETATM   17  C   UNL     1     -46.756  57.070 -60.151  1.00  0.00     0.179 C 
BRANCH  17  18
HETATM   18  C   UNL     1     -47.393  57.678 -61.408  1.00  0.00     0.002 C 
HETATM   19  C   UNL     1     -48.401  56.719 -62.044  1.00  0.00     0.011 C 
HETATM   20  C   UNL     1     -48.064  59.008 -61.072  1.00  0.00     0.011 C 
ENDBRANCH  17  18
ENDBRANCH  16  17
ENDBRANCH  13  16
ENDBRANCH   7   9
ENDBRANCH   6   7
BRANCH   1  21
HETATM   21  C   UNL     1     -42.532  57.891 -54.546  1.00  0.00    -0.028 A 
HETATM   22  C   UNL     1     -43.925  57.862 -54.328  1.00  0.00     0.012 A 
HETATM   23  C   UNL     1     -44.609  56.650 -54.265  1.00  0.00     0.040 A 
HETATM   24  C   UNL     1     -43.907  55.466 -54.430  1.00  0.00     0.099 A 
HETATM   25  C   UNL     1     -42.532  55.457 -54.681  1.00  0.00     0.102 A 
HETATM   26  C   UNL     1     -41.848  56.674 -54.733  1.00  0.00     0.049 A 
BRANCH  24  27
HETATM   27  O   UNL     1     -44.602  54.291 -54.345  1.00  0.00    -0.358 OA
HETATM   28  H   UNL     1     -44.009  53.675 -53.871  1.00  0.00     0.218 HD
ENDBRANCH  24  27
BRANCH  25  29
HETATM   29  O   UNL     1     -41.979  54.213 -54.826  1.00  0.00    -0.349 OA
BRANCH  29  30
HETATM   30  C   UNL     1     -40.556  54.145 -54.906  1.00  0.00     0.171 C 
HETATM   31  C   UNL     1     -40.127  52.769 -54.429  1.00  0.00     0.034 C 
ENDBRANCH  29  30
ENDBRANCH  25  29
ENDBRANCH   1  21
BRANCH   5  32
HETATM   32  O   UNL     1     -43.355  62.432 -55.285  1.00  0.00    -0.355 OA
HETATM   33  H   UNL     1     -44.219  62.176 -55.666  1.00  0.00     0.218 HD
ENDBRANCH   5  32
BRANCH   2  34
HETATM   34  C   UNL     1     -41.123  59.441 -52.082  1.00  0.00     0.129 C 
BRANCH  34  35
HETATM   35  C   UNL     1     -41.809  58.514 -51.080  1.00  0.00     0.048 C 
BRANCH  35  36
HETATM   36  C   UNL     1     -40.879  57.408 -50.595  1.00  0.00     0.236 C 
BRANCH  36  37
HETATM   37  N   UNL     1     -41.646  56.107 -50.485  1.00  0.00    -0.067 N 
HETATM   38  H   UNL     1     -41.600  55.785 -49.511  1.00  0.00     0.280 HD
HETATM   39  C   UNL     1     -43.126  56.266 -50.851  1.00  0.00     0.261 C 
HETATM   40  C   UNL     1     -43.832  54.911 -50.715  1.00  0.00     0.195 C 
HETATM   41  O   UNL     1     -43.205  53.918 -51.534  1.00  0.00    -0.388 OA
HETATM   42  C   UNL     1     -41.835  53.715 -51.176  1.00  0.00     0.195 C 
HETATM   43  C   UNL     1     -41.026  55.006 -51.344  1.00  0.00     0.261 C 
ENDBRANCH  36  37
ENDBRANCH  35  36
ENDBRANCH  34  35
ENDBRANCH   2  34
TORSDOF 14
ENDMDL
MODEL 5
REMARK VINA RESULT:      -7.2      2.675      5.054
REMARK  14 active torsions:
REMARK  status: ('A' for Active; 'I' for Inactive)
REMARK    1  A    between atoms: C_2  and  O_3 
REMARK    2  A    between atoms: O_3  and  C_4 
REMARK    3  A    between atoms: C_5  and  O_6 
REMARK    4  A    between atoms: C_9  and  C_10 
REMARK    5  A    between atoms: N_11  and  C_12 
REMARK    6  A    between atoms: C_12  and  C_13 
REMARK    7  A    between atoms: C_13  and  C_14 
REMARK    8  A    between atoms: C_14  and  N_15 
REMARK    9  A    between atoms: C_24  and  O_25 
REMARK   10  A    between atoms: C_26  and  C_27 
REMARK   11  A    between atoms: C_27  and  C_28 
REMARK   12  A    between atoms: C_32  and  O_33 
REMARK   13  A    between atoms: O_33  and  C_34 
REMARK   14  A    between atoms: C_34  and  C_35 
ROOT
HETATM    1  C   UNL     1     -42.424  58.207 -55.735  1.00  0.00     0.161 C 
HETATM    2  N   UNL     1     -43.079  59.484 -56.007  1.00  0.00    -0.333 N 
HETATM    3  C   UNL     1     -44.306  59.293 -56.611  1.00  0.00     0.278 C 
HETATM    4  O   UNL     1     -45.117  60.136 -56.953  1.00  0.00    -0.265 OA
HETATM    5  C   UNL     1     -44.479  57.840 -56.827  1.00  0.00     0.146 C 
HETATM    6  C   UNL     1     -43.360  57.246 -56.400  1.00  0.00     0.059 C 
ENDROOT
BRANCH   6   7
HETATM    7  C   UNL     1     -42.939  55.838 -56.552  1.00  0.00     0.193 C 
HETATM    8  O   UNL     1     -43.193  55.245 -57.597  1.00  0.00    -0.287 OA
BRANCH   7   9
HETATM    9  C   UNL     1     -42.323  55.095 -55.420  1.00  0.00     0.015 A 
HETATM   10  C   UNL     1     -43.092  54.877 -54.270  1.00  0.00     0.025 A 
HETATM   11  C   UNL     1     -42.540  54.239 -53.145  1.00  0.00    -0.028 A 
HETATM   12  C   UNL     1     -43.382  54.028 -51.916  1.00  0.00     0.051 C 
HETATM   13  C   UNL     1     -41.201  53.810 -53.178  1.00  0.00     0.074 A 
HETATM   14  C   UNL     1     -40.429  54.054 -54.315  1.00  0.00     0.038 A 
HETATM   15  C   UNL     1     -40.981  54.706 -55.424  1.00  0.00     0.018 A 
BRANCH  13  16
HETATM   16  O   UNL     1     -40.743  53.193 -52.043  1.00  0.00    -0.350 OA
BRANCH  16  17
HETATM   17  C   UNL     1     -39.581  52.370 -52.164  1.00  0.00     0.179 C 
BRANCH  17  18
HETATM   18  C   UNL     1     -40.014  50.921 -52.427  1.00  0.00     0.002 C 
HETATM   19  C   UNL     1     -39.559  50.442 -53.808  1.00  0.00     0.011 C 
HETATM   20  C   UNL     1     -39.469  49.998 -51.339  1.00  0.00     0.011 C 
ENDBRANCH  17  18
ENDBRANCH  16  17
ENDBRANCH  13  16
ENDBRANCH   7   9
ENDBRANCH   6   7
BRANCH   1  21
HETATM   21  C   UNL     1     -42.260  58.055 -54.229  1.00  0.00    -0.028 A 
HETATM   22  C   UNL     1     -40.995  57.845 -53.643  1.00  0.00     0.012 A 
HETATM   23  C   UNL     1     -40.874  57.620 -52.274  1.00  0.00     0.040 A 
HETATM   24  C   UNL     1     -42.014  57.613 -51.485  1.00  0.00     0.099 A 
HETATM   25  C   UNL     1     -43.281  57.850 -52.025  1.00  0.00     0.102 A 
HETATM   26  C   UNL     1     -43.400  58.065 -53.400  1.00  0.00     0.049 A 
BRANCH  24  27
HETATM   27  O   UNL     1     -41.867  57.371 -50.147  1.00  0.00    -0.358 OA
HETATM   28  H   UNL     1     -41.144  56.717 -50.081  1.00  0.00     0.218 HD
ENDBRANCH  24  27
BRANCH  25  29
HETATM   29  O   UNL     1     -44.310  57.817 -51.121  1.00  0.00    -0.349 OA
BRANCH  29  30
HETATM   30  C   UNL     1     -45.419  58.678 -51.375  1.00  0.00     0.171 C 
HETATM   31  C   UNL     1     -45.494  59.689 -50.245  1.00  0.00     0.034 C 
ENDBRANCH  29  30
ENDBRANCH  25  29
ENDBRANCH   1  21
BRANCH   5  32
HETATM   32  O   UNL     1     -45.560  57.296 -57.449  1.00  0.00    -0.355 OA
HETATM   33  H   UNL     1     -46.354  57.626 -56.981  1.00  0.00     0.218 HD
ENDBRANCH   5  32
BRANCH   2  34
HETATM   34  C   UNL     1     -42.306  60.715 -56.069  1.00  0.00     0.129 C 
BRANCH  34  35
HETATM   35  C   UNL     1     -41.729  61.049 -57.443  1.00  0.00     0.048 C 
BRANCH  35  36
HETATM   36  C   UNL     1     -42.502  62.167 -58.131  1.00  0.00     0.236 C 
BRANCH  36  37
HETATM   37  N   UNL     1     -41.622  62.833 -59.170  1.00  0.00    -0.067 N 
HETATM   38  H   UNL     1     -41.781  63.847 -59.127  1.00  0.00     0.280 HD
HETATM   39  C   UNL     1     -40.130  62.588 -58.917  1.00  0.00     0.261 C 
HETATM   40  C   UNL     1     -39.309  63.293 -60.004  1.00  0.00     0.195 C 
HETATM   41  O   UNL     1     -39.688  62.843 -61.310  1.00  0.00    -0.388 OA
HETATM   42  C   UNL     1     -41.066  63.108 -61.588  1.00  0.00     0.195 C 
HETATM   43  C   UNL     1     -41.977  62.388 -60.587  1.00  0.00     0.261 C 
ENDBRANCH  36  37
ENDBRANCH  35  36
ENDBRANCH  34  35
ENDBRANCH   2  34
TORSDOF 14
ENDMDL
MODEL 6
REMARK VINA RESULT:      -7.2      2.116      3.646
REMARK  14 active torsions:
REMARK  status: ('A' for Active; 'I' for Inactive)
REMARK    1  A    between atoms: C_2  and  O_3 
REMARK    2  A    between atoms: O_3  and  C_4 
REMARK    3  A    between atoms: C_5  and  O_6 
REMARK    4  A    between atoms: C_9  and  C_10 
REMARK    5  A    between atoms: N_11  and  C_12 
REMARK    6  A    between atoms: C_12  and  C_13 
REMARK    7  A    between atoms: C_13  and  C_14 
REMARK    8  A    between atoms: C_14  and  N_15 
REMARK    9  A    between atoms: C_24  and  O_25 
REMARK   10  A    between atoms: C_26  and  C_27 
REMARK   11  A    between atoms: C_27  and  C_28 
REMARK   12  A    between atoms: C_32  and  O_33 
REMARK   13  A    between atoms: O_33  and  C_34 
REMARK   14  A    between atoms: C_34  and  C_35 
ROOT
HETATM    1  C   UNL     1     -44.317  58.371 -57.172  1.00  0.00     0.161 C 
HETATM    2  N   UNL     1     -43.548  59.506 -57.678  1.00  0.00    -0.333 N 
HETATM    3  C   UNL     1     -42.380  59.671 -56.961  1.00  0.00     0.278 C 
HETATM    4  O   UNL     1     -41.504  60.503 -57.129  1.00  0.00    -0.265 OA
HETATM    5  C   UNL     1     -42.367  58.661 -55.881  1.00  0.00     0.146 C 
HETATM    6  C   UNL     1     -43.519  57.987 -55.964  1.00  0.00     0.059 C 
ENDROOT
BRANCH   6   7
HETATM    7  C   UNL     1     -44.089  57.001 -55.022  1.00  0.00     0.193 C 
HETATM    8  O   UNL     1     -45.175  57.231 -54.498  1.00  0.00    -0.287 OA
BRANCH   7   9
HETATM    9  C   UNL     1     -43.316  55.798 -54.611  1.00  0.00     0.015 A 
HETATM   10  C   UNL     1     -43.318  55.438 -53.257  1.00  0.00     0.025 A 
HETATM   11  C   UNL     1     -42.553  54.349 -52.802  1.00  0.00    -0.028 A 
HETATM   12  C   UNL     1     -42.560  53.989 -51.341  1.00  0.00     0.051 C 
HETATM   13  C   UNL     1     -41.782  53.611 -53.717  1.00  0.00     0.074 A 
HETATM   14  C   UNL     1     -41.760  53.991 -55.061  1.00  0.00     0.038 A 
HETATM   15  C   UNL     1     -42.511  55.086 -55.503  1.00  0.00     0.018 A 
BRANCH  13  16
HETATM   16  O   UNL     1     -41.071  52.563 -53.193  1.00  0.00    -0.350 OA
BRANCH  16  17
HETATM   17  C   UNL     1     -39.790  52.286 -53.761  1.00  0.00     0.179 C 
BRANCH  17  18
HETATM   18  C   UNL     1     -39.457  50.802 -53.556  1.00  0.00     0.002 C 
HETATM   19  C   UNL     1     -39.606  50.392 -52.089  1.00  0.00     0.011 C 
HETATM   20  C   UNL     1     -40.345  49.932 -54.443  1.00  0.00     0.011 C 
ENDBRANCH  17  18
ENDBRANCH  16  17
ENDBRANCH  13  16
ENDBRANCH   7   9
ENDBRANCH   6   7
BRANCH   1  21
HETATM   21  C   UNL     1     -44.419  57.324 -58.272  1.00  0.00    -0.028 A 
HETATM   22  C   UNL     1     -43.305  56.553 -58.661  1.00  0.00     0.012 A 
HETATM   23  C   UNL     1     -43.393  55.662 -59.728  1.00  0.00     0.040 A 
HETATM   24  C   UNL     1     -44.597  55.531 -60.403  1.00  0.00     0.099 A 
HETATM   25  C   UNL     1     -45.732  56.255 -60.026  1.00  0.00     0.102 A 
HETATM   26  C   UNL     1     -45.637  57.154 -58.962  1.00  0.00     0.049 A 
BRANCH  24  27
HETATM   27  O   UNL     1     -44.650  54.663 -61.458  1.00  0.00    -0.358 OA
HETATM   28  H   UNL     1     -45.525  54.231 -61.394  1.00  0.00     0.218 HD
ENDBRANCH  24  27
BRANCH  25  29
HETATM   29  O   UNL     1     -46.848  56.016 -60.783  1.00  0.00    -0.349 OA
BRANCH  29  30
HETATM   30  C   UNL     1     -47.614  57.154 -61.179  1.00  0.00     0.171 C 
HETATM   31  C   UNL     1     -48.424  56.768 -62.404  1.00  0.00     0.034 C 
ENDBRANCH  29  30
ENDBRANCH  25  29
ENDBRANCH   1  21
BRANCH   5  32
HETATM   32  O   UNL     1     -41.380  58.570 -54.949  1.00  0.00    -0.355 OA
HETATM   33  H   UNL     1     -40.538  58.466 -55.436  1.00  0.00     0.218 HD
ENDBRANCH   5  32
BRANCH   2  34
HETATM   34  C   UNL     1     -44.194  60.545 -58.466  1.00  0.00     0.129 C 
BRANCH  34  35
HETATM   35  C   UNL     1     -45.528  61.042 -57.914  1.00  0.00     0.048 C 
BRANCH  35  36
HETATM   36  C   UNL     1     -45.341  62.101 -56.835  1.00  0.00     0.236 C 
BRANCH  36  37
HETATM   37  N   UNL     1     -45.990  61.639 -55.546  1.00  0.00    -0.067 N 
HETATM   38  H   UNL     1     -46.683  60.916 -55.774  1.00  0.00     0.280 HD
HETATM   39  C   UNL     1     -44.981  61.022 -54.571  1.00  0.00     0.261 C 
HETATM   40  C   UNL     1     -45.711  60.579 -53.297  1.00  0.00     0.195 C 
HETATM   41  O   UNL     1     -46.404  61.677 -52.691  1.00  0.00    -0.388 OA
HETATM   42  C   UNL     1     -47.388  62.237 -53.566  1.00  0.00     0.195 C 
HETATM   43  C   UNL     1     -46.742  62.771 -54.850  1.00  0.00     0.261 C 
ENDBRANCH  36  37
ENDBRANCH  35  36
ENDBRANCH  34  35
ENDBRANCH   2  34
TORSDOF 14
ENDMDL
MODEL 7
REMARK VINA RESULT:      -7.1      2.533      5.622
REMARK  14 active torsions:
REMARK  status: ('A' for Active; 'I' for Inactive)
REMARK    1  A    between atoms: C_2  and  O_3 
REMARK    2  A    between atoms: O_3  and  C_4 
REMARK    3  A    between atoms: C_5  and  O_6 
REMARK    4  A    between atoms: C_9  and  C_10 
REMARK    5  A    between atoms: N_11  and  C_12 
REMARK    6  A    between atoms: C_12  and  C_13 
REMARK    7  A    between atoms: C_13  and  C_14 
REMARK    8  A    between atoms: C_14  and  N_15 
REMARK    9  A    between atoms: C_24  and  O_25 
REMARK   10  A    between atoms: C_26  and  C_27 
REMARK   11  A    between atoms: C_27  and  C_28 
REMARK   12  A    between atoms: C_32  and  O_33 
REMARK   13  A    between atoms: O_33  and  C_34 
REMARK   14  A    between atoms: C_34  and  C_35 
ROOT
HETATM    1  C   UNL     1     -42.609  58.312 -55.772  1.00  0.00     0.161 C 
HETATM    2  N   UNL     1     -43.331  59.566 -55.976  1.00  0.00    -0.333 N 
HETATM    3  C   UNL     1     -44.547  59.342 -56.591  1.00  0.00     0.278 C 
HETATM    4  O   UNL     1     -45.402  60.159 -56.888  1.00  0.00    -0.265 OA
HETATM    5  C   UNL     1     -44.644  57.896 -56.884  1.00  0.00     0.146 C 
HETATM    6  C   UNL     1     -43.494  57.340 -56.489  1.00  0.00     0.059 C 
ENDROOT
BRANCH   6   7
HETATM    7  C   UNL     1     -43.000  55.966 -56.715  1.00  0.00     0.193 C 
HETATM    8  O   UNL     1     -43.219  55.420 -57.793  1.00  0.00    -0.287 OA
BRANCH   7   9
HETATM    9  C   UNL     1     -42.350  55.195 -55.622  1.00  0.00     0.015 A 
HETATM   10  C   UNL     1     -43.097  54.913 -54.471  1.00  0.00     0.025 A 
HETATM   11  C   UNL     1     -42.514  54.245 -53.380  1.00  0.00    -0.028 A 
HETATM   12  C   UNL     1     -43.333  53.966 -52.149  1.00  0.00     0.051 C 
HETATM   13  C   UNL     1     -41.166  53.849 -53.448  1.00  0.00     0.074 A 
HETATM   14  C   UNL     1     -40.416  54.157 -54.585  1.00  0.00     0.038 A 
HETATM   15  C   UNL     1     -40.999  54.838 -55.660  1.00  0.00     0.018 A 
BRANCH  13  16
HETATM   16  O   UNL     1     -40.677  53.199 -52.345  1.00  0.00    -0.350 OA
BRANCH  16  17
HETATM   17  C   UNL     1     -39.902  52.019 -52.565  1.00  0.00     0.179 C 
BRANCH  17  18
HETATM   18  C   UNL     1     -39.537  51.396 -51.210  1.00  0.00     0.002 C 
HETATM   19  C   UNL     1     -40.431  51.929 -50.089  1.00  0.00     0.011 C 
HETATM   20  C   UNL     1     -39.629  49.873 -51.285  1.00  0.00     0.011 C 
ENDBRANCH  17  18
ENDBRANCH  16  17
ENDBRANCH  13  16
ENDBRANCH   7   9
ENDBRANCH   6   7
BRANCH   1  21
HETATM   21  C   UNL     1     -42.435  58.088 -54.276  1.00  0.00    -0.028 A 
HETATM   22  C   UNL     1     -41.160  57.901 -53.703  1.00  0.00     0.012 A 
HETATM   23  C   UNL     1     -41.025  57.610 -52.348  1.00  0.00     0.040 A 
HETATM   24  C   UNL     1     -42.162  57.514 -51.559  1.00  0.00     0.099 A 
HETATM   25  C   UNL     1     -43.440  57.726 -52.085  1.00  0.00     0.102 A 
HETATM   26  C   UNL     1     -43.571  58.007 -53.447  1.00  0.00     0.049 A 
BRANCH  24  27
HETATM   27  O   UNL     1     -42.001  57.209 -50.236  1.00  0.00    -0.358 OA
HETATM   28  H   UNL     1     -42.083  56.236 -50.183  1.00  0.00     0.218 HD
ENDBRANCH  24  27
BRANCH  25  29
HETATM   29  O   UNL     1     -44.463  57.603 -51.184  1.00  0.00    -0.349 OA
BRANCH  29  30
HETATM   30  C   UNL     1     -45.521  58.557 -51.274  1.00  0.00     0.171 C 
HETATM   31  C   UNL     1     -45.321  59.581 -50.172  1.00  0.00     0.034 C 
ENDBRANCH  29  30
ENDBRANCH  25  29
ENDBRANCH   1  21
BRANCH   5  32
HETATM   32  O   UNL     1     -45.696  57.330 -57.536  1.00  0.00    -0.355 OA
HETATM   33  H   UNL     1     -46.188  56.801 -56.876  1.00  0.00     0.218 HD
ENDBRANCH   5  32
BRANCH   2  34
HETATM   34  C   UNL     1     -42.624  60.837 -55.971  1.00  0.00     0.129 C 
BRANCH  34  35
HETATM   35  C   UNL     1     -43.225  61.910 -55.065  1.00  0.00     0.048 C 
BRANCH  35  36
HETATM   36  C   UNL     1     -42.935  61.644 -53.593  1.00  0.00     0.236 C 
BRANCH  36  37
HETATM   37  N   UNL     1     -44.211  61.780 -52.788  1.00  0.00    -0.067 N 
HETATM   38  H   UNL     1     -44.259  60.998 -52.124  1.00  0.00     0.280 HD
HETATM   39  C   UNL     1     -44.255  63.079 -51.975  1.00  0.00     0.261 C 
HETATM   40  C   UNL     1     -45.570  63.143 -51.189  1.00  0.00     0.195 C 
HETATM   41  O   UNL     1     -46.699  63.048 -52.065  1.00  0.00    -0.388 OA
HETATM   42  C   UNL     1     -46.707  61.818 -52.796  1.00  0.00     0.195 C 
HETATM   43  C   UNL     1     -45.454  61.691 -53.670  1.00  0.00     0.261 C 
ENDBRANCH  36  37
ENDBRANCH  35  36
ENDBRANCH  34  35
ENDBRANCH   2  34
TORSDOF 14
ENDMDL
MODEL 8
REMARK VINA RESULT:      -7.1      2.586      3.535
REMARK  14 active torsions:
REMARK  status: ('A' for Active; 'I' for Inactive)
REMARK    1  A    between atoms: C_2  and  O_3 
REMARK    2  A    between atoms: O_3  and  C_4 
REMARK    3  A    between atoms: C_5  and  O_6 
REMARK    4  A    between atoms: C_9  and  C_10 
REMARK    5  A    between atoms: N_11  and  C_12 
REMARK    6  A    between atoms: C_12  and  C_13 
REMARK    7  A    between atoms: C_13  and  C_14 
REMARK    8  A    between atoms: C_14  and  N_15 
REMARK    9  A    between atoms: C_24  and  O_25 
REMARK   10  A    between atoms: C_26  and  C_27 
REMARK   11  A    between atoms: C_27  and  C_28 
REMARK   12  A    between atoms: C_32  and  O_33 
REMARK   13  A    between atoms: O_33  and  C_34 
REMARK   14  A    between atoms: C_34  and  C_35 
ROOT
HETATM    1  C   UNL     1     -44.208  58.860 -57.231  1.00  0.00     0.161 C 
HETATM    2  N   UNL     1     -43.381  59.949 -57.746  1.00  0.00    -0.333 N 
HETATM    3  C   UNL     1     -42.237  60.102 -56.989  1.00  0.00     0.278 C 
HETATM    4  O   UNL     1     -41.326  60.897 -57.151  1.00  0.00    -0.265 OA
HETATM    5  C   UNL     1     -42.302  59.133 -55.874  1.00  0.00     0.146 C 
HETATM    6  C   UNL     1     -43.472  58.495 -55.979  1.00  0.00     0.059 C 
ENDROOT
BRANCH   6   7
HETATM    7  C   UNL     1     -44.112  57.565 -55.026  1.00  0.00     0.193 C 
HETATM    8  O   UNL     1     -45.161  57.894 -54.480  1.00  0.00    -0.287 OA
BRANCH   7   9
HETATM    9  C   UNL     1     -43.447  56.294 -54.632  1.00  0.00     0.015 A 
HETATM   10  C   UNL     1     -42.957  56.178 -53.324  1.00  0.00     0.025 A 
HETATM   11  C   UNL     1     -42.263  55.025 -52.916  1.00  0.00    -0.028 A 
HETATM   12  C   UNL     1     -41.733  54.930 -51.511  1.00  0.00     0.051 C 
HETATM   13  C   UNL     1     -42.064  53.974 -53.829  1.00  0.00     0.074 A 
HETATM   14  C   UNL     1     -42.529  54.105 -55.140  1.00  0.00     0.038 A 
HETATM   15  C   UNL     1     -43.204  55.263 -55.543  1.00  0.00     0.018 A 
BRANCH  13  16
HETATM   16  O   UNL     1     -41.383  52.886 -53.350  1.00  0.00    -0.350 OA
BRANCH  16  17
HETATM   17  C   UNL     1     -40.679  52.080 -54.296  1.00  0.00     0.179 C 
BRANCH  17  18
HETATM   18  C   UNL     1     -39.549  51.329 -53.578  1.00  0.00     0.002 C 
HETATM   19  C   UNL     1     -39.575  51.588 -52.070  1.00  0.00     0.011 C 
HETATM   20  C   UNL     1     -39.643  49.831 -53.862  1.00  0.00     0.011 C 
ENDBRANCH  17  18
ENDBRANCH  16  17
ENDBRANCH  13  16
ENDBRANCH   7   9
ENDBRANCH   6   7
BRANCH   1  21
HETATM   21  C   UNL     1     -44.304  57.777 -58.296  1.00  0.00    -0.028 A 
HETATM   22  C   UNL     1     -43.161  57.090 -58.752  1.00  0.00     0.012 A 
HETATM   23  C   UNL     1     -43.254  56.164 -59.789  1.00  0.00     0.040 A 
HETATM   24  C   UNL     1     -44.490  55.915 -60.366  1.00  0.00     0.099 A 
HETATM   25  C   UNL     1     -45.650  56.553 -59.919  1.00  0.00     0.102 A 
HETATM   26  C   UNL     1     -45.551  57.488 -58.886  1.00  0.00     0.049 A 
BRANCH  24  27
HETATM   27  O   UNL     1     -44.548  55.016 -61.395  1.00  0.00    -0.358 OA
HETATM   28  H   UNL     1     -44.762  55.544 -62.189  1.00  0.00     0.218 HD
ENDBRANCH  24  27
BRANCH  25  29
HETATM   29  O   UNL     1     -46.795  56.202 -60.583  1.00  0.00    -0.349 OA
BRANCH  29  30
HETATM   30  C   UNL     1     -47.559  57.262 -61.157  1.00  0.00     0.171 C 
HETATM   31  C   UNL     1     -48.422  56.672 -62.258  1.00  0.00     0.034 C 
ENDBRANCH  29  30
ENDBRANCH  25  29
ENDBRANCH   1  21
BRANCH   5  32
HETATM   32  O   UNL     1     -41.355  59.043 -54.900  1.00  0.00    -0.355 OA
HETATM   33  H   UNL     1     -41.334  58.109 -54.610  1.00  0.00     0.218 HD
ENDBRANCH   5  32
BRANCH   2  34
HETATM   34  C   UNL     1     -43.959  60.979 -58.596  1.00  0.00     0.129 C 
BRANCH  34  35
HETATM   35  C   UNL     1     -43.396  61.038 -60.015  1.00  0.00     0.048 C 
BRANCH  35  36
HETATM   36  C   UNL     1     -43.609  62.403 -60.658  1.00  0.00     0.236 C 
BRANCH  36  37
HETATM   37  N   UNL     1     -42.287  62.942 -61.164  1.00  0.00    -0.067 N 
HETATM   38  H   UNL     1     -42.302  63.966 -61.082  1.00  0.00     0.280 HD
HETATM   39  C   UNL     1     -41.095  62.431 -60.348  1.00  0.00     0.261 C 
HETATM   40  C   UNL     1     -39.799  63.019 -60.918  1.00  0.00     0.195 C 
HETATM   41  O   UNL     1     -39.649  62.692 -62.304  1.00  0.00    -0.388 OA
HETATM   42  C   UNL     1     -40.726  63.205 -63.094  1.00  0.00     0.195 C 
HETATM   43  C   UNL     1     -42.068  62.620 -62.641  1.00  0.00     0.261 C 
ENDBRANCH  36  37
ENDBRANCH  35  36
ENDBRANCH  34  35
ENDBRANCH   2  34
TORSDOF 14
ENDMDL
MODEL 9
REMARK VINA RESULT:      -7.0      2.986      8.354
REMARK  14 active torsions:
REMARK  status: ('A' for Active; 'I' for Inactive)
REMARK    1  A    between atoms: C_2  and  O_3 
REMARK    2  A    between atoms: O_3  and  C_4 
REMARK    3  A    between atoms: C_5  and  O_6 
REMARK    4  A    between atoms: C_9  and  C_10 
REMARK    5  A    between atoms: N_11  and  C_12 
REMARK    6  A    between atoms: C_12  and  C_13 
REMARK    7  A    between atoms: C_13  and  C_14 
REMARK    8  A    between atoms: C_14  and  N_15 
REMARK    9  A    between atoms: C_24  and  O_25 
REMARK   10  A    between atoms: C_26  and  C_27 
REMARK   11  A    between atoms: C_27  and  C_28 
REMARK   12  A    between atoms: C_32  and  O_33 
REMARK   13  A    between atoms: O_33  and  C_34 
REMARK   14  A    between atoms: C_34  and  C_35 
ROOT
HETATM    1  C   UNL     1     -42.016  56.849 -54.146  1.00  0.00     0.161 C 
HETATM    2  N   UNL     1     -42.464  55.580 -53.577  1.00  0.00    -0.333 N 
HETATM    3  C   UNL     1     -42.808  55.727 -52.248  1.00  0.00     0.278 C 
HETATM    4  O   UNL     1     -43.238  54.881 -51.482  1.00  0.00    -0.265 OA
HETATM    5  C   UNL     1     -42.529  57.127 -51.863  1.00  0.00     0.146 C 
HETATM    6  C   UNL     1     -41.998  57.727 -52.933  1.00  0.00     0.059 C 
ENDROOT
BRANCH   6   7
HETATM    7  C   UNL     1     -41.377  59.064 -53.036  1.00  0.00     0.193 C 
HETATM    8  O   UNL     1     -40.157  59.152 -53.150  1.00  0.00    -0.287 OA
BRANCH   7   9
HETATM    9  C   UNL     1     -42.190  60.301 -52.884  1.00  0.00     0.015 A 
HETATM   10  C   UNL     1     -42.463  60.763 -51.590  1.00  0.00     0.025 A 
HETATM   11  C   UNL     1     -43.280  61.889 -51.386  1.00  0.00    -0.028 A 
HETATM   12  C   UNL     1     -43.571  62.358 -49.986  1.00  0.00     0.051 C 
HETATM   13  C   UNL     1     -43.824  62.562 -52.494  1.00  0.00     0.074 A 
HETATM   14  C   UNL     1     -43.573  62.082 -53.781  1.00  0.00     0.038 A 
HETATM   15  C   UNL     1     -42.773  60.951 -53.975  1.00  0.00     0.018 A 
BRANCH  13  16
HETATM   16  O   UNL     1     -44.605  63.652 -52.208  1.00  0.00    -0.350 OA
BRANCH  16  17
HETATM   17  C   UNL     1     -45.915  63.692 -52.776  1.00  0.00     0.179 C 
BRANCH  17  18
HETATM   18  C   UNL     1     -46.829  62.732 -52.003  1.00  0.00     0.002 C 
HETATM   19  C   UNL     1     -47.151  63.266 -50.606  1.00  0.00     0.011 C 
HETATM   20  C   UNL     1     -48.117  62.481 -52.786  1.00  0.00     0.011 C 
ENDBRANCH  17  18
ENDBRANCH  16  17
ENDBRANCH  13  16
ENDBRANCH   7   9
ENDBRANCH   6   7
BRANCH   1  21
HETATM   21  C   UNL     1     -42.979  57.252 -55.254  1.00  0.00    -0.028 A 
HETATM   22  C   UNL     1     -44.257  57.773 -54.965  1.00  0.00     0.012 A 
HETATM   23  C   UNL     1     -45.159  58.054 -55.989  1.00  0.00     0.040 A 
HETATM   24  C   UNL     1     -44.783  57.824 -57.304  1.00  0.00     0.099 A 
HETATM   25  C   UNL     1     -43.513  57.340 -57.631  1.00  0.00     0.102 A 
HETATM   26  C   UNL     1     -42.616  57.050 -56.600  1.00  0.00     0.049 A 
BRANCH  24  27
HETATM   27  O   UNL     1     -45.695  58.091 -58.288  1.00  0.00    -0.358 OA
HETATM   28  H   UNL     1     -45.995  57.217 -58.606  1.00  0.00     0.218 HD
ENDBRANCH  24  27
BRANCH  25  29
HETATM   29  O   UNL     1     -43.287  57.169 -58.970  1.00  0.00    -0.349 OA
BRANCH  29  30
HETATM   30  C   UNL     1     -42.919  55.858 -59.400  1.00  0.00     0.171 C 
HETATM   31  C   UNL     1     -44.187  55.122 -59.792  1.00  0.00     0.034 C 
ENDBRANCH  29  30
ENDBRANCH  25  29
ENDBRANCH   1  21
BRANCH   5  32
HETATM   32  O   UNL     1     -42.707  57.610 -50.603  1.00  0.00    -0.355 OA
HETATM   33  H   UNL     1     -43.499  58.184 -50.627  1.00  0.00     0.218 HD
ENDBRANCH   5  32
BRANCH   2  34
HETATM   34  C   UNL     1     -42.105  54.319 -54.207  1.00  0.00     0.129 C 
BRANCH  34  35
HETATM   35  C   UNL     1     -40.617  53.976 -54.170  1.00  0.00     0.048 C 
BRANCH  35  36
HETATM   36  C   UNL     1     -40.214  53.319 -52.856  1.00  0.00     0.236 C 
BRANCH  36  37
HETATM   37  N   UNL     1     -40.317  51.813 -52.984  1.00  0.00    -0.067 N 
HETATM   38  H   UNL     1     -41.291  51.539 -52.806  1.00  0.00     0.280 HD
HETATM   39  C   UNL     1     -39.946  51.318 -54.386  1.00  0.00     0.261 C 
HETATM   40  C   UNL     1     -40.075  49.791 -54.437  1.00  0.00     0.195 C 
HETATM   41  O   UNL     1     -39.255  49.170 -53.441  1.00  0.00    -0.388 OA
HETATM   42  C   UNL     1     -39.618  49.579 -52.118  1.00  0.00     0.195 C 
HETATM   43  C   UNL     1     -39.457  51.093 -51.947  1.00  0.00     0.261 C 
ENDBRANCH  36  37
ENDBRANCH  35  36
ENDBRANCH  34  35
ENDBRANCH   2  34
TORSDOF 14
ENDMDL
MODEL 10
REMARK VINA RESULT:      -6.9      3.810      6.079
REMARK  14 active torsions:
REMARK  status: ('A' for Active; 'I' for Inactive)
REMARK    1  A    between atoms: C_2  and  O_3 
REMARK    2  A    between atoms: O_3  and  C_4 
REMARK    3  A    between atoms: C_5  and  O_6 
REMARK    4  A    between atoms: C_9  and  C_10 
REMARK    5  A    between atoms: N_11  and  C_12 
REMARK    6  A    between atoms: C_12  and  C_13 
REMARK    7  A    between atoms: C_13  and  C_14 
REMARK    8  A    between atoms: C_14  and  N_15 
REMARK    9  A    between atoms: C_24  and  O_25 
REMARK   10  A    between atoms: C_26  and  C_27 
REMARK   11  A    between atoms: C_27  and  C_28 
REMARK   12  A    between atoms: C_32  and  O_33 
REMARK   13  A    between atoms: O_33  and  C_34 
REMARK   14  A    between atoms: C_34  and  C_35 
ROOT
HETATM    1  C   UNL     1     -44.299  59.386 -52.476  1.00  0.00     0.161 C 
HETATM    2  N   UNL     1     -43.889  60.722 -52.049  1.00  0.00    -0.333 N 
HETATM    3  C   UNL     1     -42.848  60.656 -51.145  1.00  0.00     0.278 C 
HETATM    4  O   UNL     1     -42.256  61.576 -50.608  1.00  0.00    -0.265 OA
HETATM    5  C   UNL     1     -42.569  59.227 -50.885  1.00  0.00     0.146 C 
HETATM    6  C   UNL     1     -43.462  58.521 -51.585  1.00  0.00     0.059 C 
ENDROOT
BRANCH   6   7
HETATM    7  C   UNL     1     -43.741  57.070 -51.540  1.00  0.00     0.193 C 
HETATM    8  O   UNL     1     -44.608  56.649 -50.779  1.00  0.00    -0.287 OA
BRANCH   7   9
HETATM    9  C   UNL     1     -42.912  56.106 -52.312  1.00  0.00     0.015 A 
HETATM   10  C   UNL     1     -43.395  55.650 -53.545  1.00  0.00     0.025 A 
HETATM   11  C   UNL     1     -42.685  54.689 -54.286  1.00  0.00    -0.028 A 
HETATM   12  C   UNL     1     -43.231  54.205 -55.602  1.00  0.00     0.051 C 
HETATM   13  C   UNL     1     -41.471  54.185 -53.786  1.00  0.00     0.074 A 
HETATM   14  C   UNL     1     -41.006  54.620 -52.543  1.00  0.00     0.038 A 
HETATM   15  C   UNL     1     -41.729  55.564 -51.803  1.00  0.00     0.018 A 
BRANCH  13  16
HETATM   16  O   UNL     1     -40.840  53.257 -54.571  1.00  0.00    -0.350 OA
BRANCH  16  17
HETATM   17  C   UNL     1     -40.998  51.880 -54.223  1.00  0.00     0.179 C 
BRANCH  17  18
HETATM   18  C   UNL     1     -39.635  51.301 -53.820  1.00  0.00     0.002 C 
HETATM   19  C   UNL     1     -39.423  51.369 -52.306  1.00  0.00     0.011 C 
HETATM   20  C   UNL     1     -39.505  49.861 -54.311  1.00  0.00     0.011 C 
ENDBRANCH  17  18
ENDBRANCH  16  17
ENDBRANCH  13  16
ENDBRANCH   7   9
ENDBRANCH   6   7
BRANCH   1  21
HETATM   21  C   UNL     1     -44.047  59.254 -53.971  1.00  0.00    -0.028 A 
HETATM   22  C   UNL     1     -42.743  59.123 -54.490  1.00  0.00     0.012 A 
HETATM   23  C   UNL     1     -42.524  59.092 -55.865  1.00  0.00     0.040 A 
HETATM   24  C   UNL     1     -43.607  59.183 -56.726  1.00  0.00     0.099 A 
HETATM   25  C   UNL     1     -44.917  59.281 -56.248  1.00  0.00     0.102 A 
HETATM   26  C   UNL     1     -45.132  59.322 -54.869  1.00  0.00     0.049 A 
BRANCH  24  27
HETATM   27  O   UNL     1     -43.361  59.169 -58.071  1.00  0.00    -0.358 OA
HETATM   28  H   UNL     1     -43.278  58.224 -58.309  1.00  0.00     0.218 HD
ENDBRANCH  24  27
BRANCH  25  29
HETATM   29  O   UNL     1     -45.881  59.358 -57.218  1.00  0.00    -0.349 OA
BRANCH  29  30
HETATM   30  C   UNL     1     -46.756  58.238 -57.348  1.00  0.00     0.171 C 
HETATM   31  C   UNL     1     -46.485  57.587 -58.693  1.00  0.00     0.034 C 
ENDBRANCH  29  30
ENDBRANCH  25  29
ENDBRANCH   1  21
BRANCH   5  32
HETATM   32  O   UNL     1     -41.630  58.794 -49.999  1.00  0.00    -0.355 OA
HETATM   33  H   UNL     1     -42.088  58.652 -49.146  1.00  0.00     0.218 HD
ENDBRANCH   5  32
BRANCH   2  34
HETATM   34  C   UNL     1     -44.790  61.855 -52.197  1.00  0.00     0.129 C 
BRANCH  34  35
HETATM   35  C   UNL     1     -45.926  61.917 -51.178  1.00  0.00     0.048 C 
BRANCH  35  36
HETATM   36  C   UNL     1     -45.771  63.091 -50.220  1.00  0.00     0.236 C 
BRANCH  36  37
HETATM   37  N   UNL     1     -45.862  62.600 -48.789  1.00  0.00    -0.067 N 
HETATM   38  H   UNL     1     -45.129  63.065 -48.240  1.00  0.00     0.280 HD
HETATM   39  C   UNL     1     -47.210  62.934 -48.140  1.00  0.00     0.261 C 
HETATM   40  C   UNL     1     -47.224  62.408 -46.700  1.00  0.00     0.195 C 
HETATM   41  O   UNL     1     -46.973  60.999 -46.662  1.00  0.00    -0.388 OA
HETATM   42  C   UNL     1     -45.696  60.668 -47.217  1.00  0.00     0.195 C 
HETATM   43  C   UNL     1     -45.607  61.098 -48.686  1.00  0.00     0.261 C 
ENDBRANCH  36  37
ENDBRANCH  35  36
ENDBRANCH  34  35
ENDBRANCH   2  34
TORSDOF 14
ENDMDL
