MODEL 1
REMARK VINA RESULT:      -8.9      0.000      0.000
REMARK  8 active torsions:
REMARK  status: ('A' for Active; 'I' for Inactive)
REMARK    1  A    between atoms: C_7  and  C_8 
REMARK       I    between atoms: C_8  and  N_9 
REMARK    2  A    between atoms: N_9  and  N_10 
REMARK    3  A    between atoms: N_10  and  C_11 
REMARK    4  A    between atoms: C_11  and  N_12 
REMARK    5  A    between atoms: N_12  and  C_13 
REMARK    6  A    between atoms: N_15  and  C_16 
REMARK    7  A    between atoms: C_16  and  C_17 
REMARK    8  A    between atoms: C_29  and  C_30 
ROOT
HETATM    1  C   UNL     1     -42.229  56.933 -54.798  1.00  0.00     0.290 C 
HETATM    2  N   UNL     1     -41.534  57.957 -54.186  1.00  0.00    -0.262 N 
HETATM    3  O   UNL     1     -42.467  55.844 -54.284  1.00  0.00    -0.264 OA
HETATM    4  H   UNL     1     -41.469  58.855 -54.665  1.00  0.00     0.190 HD
ENDROOT
BRANCH   2   5
HETATM    5  N   UNL     1     -41.148  57.882 -52.849  1.00  0.00    -0.273 N 
HETATM    6  H   UNL     1     -40.159  57.704 -52.642  1.00  0.00     0.189 HD
BRANCH   5   7
HETATM    7  C   UNL     1     -41.954  58.353 -51.847  1.00  0.00     0.192 C 
HETATM    8  S   UNL     1     -42.382  59.964 -51.646  1.00  0.00    -0.039 SA
BRANCH   7   9
HETATM    9  N   UNL     1     -42.433  57.451 -50.942  1.00  0.00    -0.315 N 
HETATM   10  H   UNL     1     -43.001  57.840 -50.201  1.00  0.00     0.170 HD
BRANCH   9  11
HETATM   11  C   UNL     1     -42.170  56.100 -50.874  1.00  0.00     0.151 A 
HETATM   12  N   UNL     1     -40.945  55.566 -50.855  1.00  0.00    -0.154 NA
HETATM   13  N   UNL     1     -41.162  54.237 -50.758  1.00  0.00    -0.275 N 
HETATM   14  C   UNL     1     -42.488  53.911 -50.727  1.00  0.00     0.116 A 
HETATM   15  C   UNL     1     -43.169  55.102 -50.806  1.00  0.00     0.071 A 
BRANCH  13  16
HETATM   16  C   UNL     1     -40.041  53.307 -50.778  1.00  0.00     0.192 C 
BRANCH  16  17
HETATM   17  C   UNL     1     -40.052  52.447 -52.010  1.00  0.00     0.000 A 
HETATM   18  C   UNL     1     -39.691  51.100 -51.934  1.00  0.00     0.124 A 
HETATM   19  F   UNL     1     -39.340  50.571 -50.753  1.00  0.00    -0.205 F 
HETATM   20  C   UNL     1     -39.692  50.284 -53.062  1.00  0.00     0.043 A 
HETATM   21  C   UNL     1     -40.059  50.818 -54.296  1.00  0.00     0.003 A 
HETATM   22  C   UNL     1     -40.414  52.164 -54.393  1.00  0.00     0.001 A 
HETATM   23  C   UNL     1     -40.407  52.978 -53.258  1.00  0.00     0.012 A 
ENDBRANCH  16  17
ENDBRANCH  13  16
ENDBRANCH   9  11
ENDBRANCH   7   9
ENDBRANCH   5   7
ENDBRANCH   2   5
BRANCH   1  24
HETATM   24  C   UNL     1     -42.655  57.297 -56.161  1.00  0.00     0.150 A 
HETATM   25  N   UNL     1     -43.522  56.527 -56.859  1.00  0.00    -0.165 NA
HETATM   26  N   UNL     1     -43.652  57.174 -58.027  1.00  0.00    -0.240 N 
HETATM   27  C   UNL     1     -42.941  58.339 -58.102  1.00  0.00     0.123 A 
HETATM   28  C   UNL     1     -44.525  56.683 -59.076  1.00  0.00     0.221 C 
HETATM   29  N   UNL     1     -43.016  59.143 -59.188  1.00  0.00    -0.371 N 
HETATM   30  C   UNL     1     -42.265  58.440 -56.913  1.00  0.00     0.089 A 
HETATM   31  C   UNL     1     -43.706  58.698 -60.397  1.00  0.00     0.081 C 
HETATM   32  H   UNL     1     -42.327  59.885 -59.313  1.00  0.00     0.161 HD
HETATM   33  C   UNL     1     -44.142  59.916 -61.205  1.00  0.00     0.032 C 
HETATM   34  C   UNL     1     -44.924  57.843 -60.007  1.00  0.00     0.061 C 
BRANCH  28  35
HETATM   35  C   UNL     1     -43.852  55.552 -59.823  1.00  0.00     0.409 C 
HETATM   36  F   UNL     1     -44.115  54.341 -59.286  1.00  0.00    -0.169 F 
HETATM   37  F   UNL     1     -44.313  55.512 -61.102  1.00  0.00    -0.169 F 
HETATM   38  F   UNL     1     -42.511  55.688 -59.901  1.00  0.00    -0.169 F 
ENDBRANCH  28  35
ENDBRANCH   1  24
TORSDOF 8
ENDMDL
MODEL 2
REMARK VINA RESULT:      -8.8      1.703      2.296
REMARK  8 active torsions:
REMARK  status: ('A' for Active; 'I' for Inactive)
REMARK    1  A    between atoms: C_7  and  C_8 
REMARK       I    between atoms: C_8  and  N_9 
REMARK    2  A    between atoms: N_9  and  N_10 
REMARK    3  A    between atoms: N_10  and  C_11 
REMARK    4  A    between atoms: C_11  and  N_12 
REMARK    5  A    between atoms: N_12  and  C_13 
REMARK    6  A    between atoms: N_15  and  C_16 
REMARK    7  A    between atoms: C_16  and  C_17 
REMARK    8  A    between atoms: C_29  and  C_30 
ROOT
HETATM    1  C   UNL     1     -41.766  58.643 -54.720  1.00  0.00     0.290 C 
HETATM    2  N   UNL     1     -41.700  57.729 -53.687  1.00  0.00    -0.262 N 
HETATM    3  O   UNL     1     -41.374  59.805 -54.653  1.00  0.00    -0.264 OA
HETATM    4  H   UNL     1     -41.969  56.763 -53.875  1.00  0.00     0.190 HD
ENDROOT
BRANCH   2   5
HETATM    5  N   UNL     1     -41.047  58.022 -52.491  1.00  0.00    -0.273 N 
HETATM    6  H   UNL     1     -40.039  58.208 -52.527  1.00  0.00     0.189 HD
BRANCH   5   7
HETATM    7  C   UNL     1     -41.742  58.383 -51.369  1.00  0.00     0.192 C 
HETATM    8  S   UNL     1     -41.932  59.964 -50.832  1.00  0.00    -0.039 SA
BRANCH   7   9
HETATM    9  N   UNL     1     -42.311  57.389 -50.627  1.00  0.00    -0.315 N 
HETATM   10  H   UNL     1     -42.941  57.697 -49.900  1.00  0.00     0.170 HD
BRANCH   9  11
HETATM   11  C   UNL     1     -42.066  56.035 -50.700  1.00  0.00     0.151 A 
HETATM   12  N   UNL     1     -40.852  55.479 -50.636  1.00  0.00    -0.154 NA
HETATM   13  N   UNL     1     -41.088  54.152 -50.720  1.00  0.00    -0.275 N 
HETATM   14  C   UNL     1     -42.414  53.851 -50.847  1.00  0.00     0.116 A 
HETATM   15  C   UNL     1     -43.075  55.055 -50.843  1.00  0.00     0.071 A 
BRANCH  13  16
HETATM   16  C   UNL     1     -39.977  53.210 -50.752  1.00  0.00     0.192 C 
BRANCH  16  17
HETATM   17  C   UNL     1     -39.997  52.368 -51.996  1.00  0.00     0.000 A 
HETATM   18  C   UNL     1     -39.671  51.011 -51.936  1.00  0.00     0.124 A 
HETATM   19  F   UNL     1     -39.349  50.456 -50.758  1.00  0.00    -0.205 F 
HETATM   20  C   UNL     1     -39.681  50.211 -53.075  1.00  0.00     0.043 A 
HETATM   21  C   UNL     1     -40.020  50.771 -54.306  1.00  0.00     0.003 A 
HETATM   22  C   UNL     1     -40.339  52.127 -54.387  1.00  0.00     0.001 A 
HETATM   23  C   UNL     1     -40.323  52.925 -53.240  1.00  0.00     0.012 A 
ENDBRANCH  16  17
ENDBRANCH  13  16
ENDBRANCH   9  11
ENDBRANCH   7   9
ENDBRANCH   5   7
ENDBRANCH   2   5
BRANCH   1  24
HETATM   24  C   UNL     1     -42.372  58.061 -55.930  1.00  0.00     0.150 A 
HETATM   25  N   UNL     1     -42.343  58.710 -57.117  1.00  0.00    -0.165 NA
HETATM   26  N   UNL     1     -42.987  57.879 -57.950  1.00  0.00    -0.240 N 
HETATM   27  C   UNL     1     -43.398  56.712 -57.367  1.00  0.00     0.123 A 
HETATM   28  C   UNL     1     -43.165  58.195 -59.354  1.00  0.00     0.221 C 
HETATM   29  N   UNL     1     -44.005  55.740 -58.086  1.00  0.00    -0.371 N 
HETATM   30  C   UNL     1     -43.032  56.805 -56.049  1.00  0.00     0.089 A 
HETATM   31  C   UNL     1     -44.417  55.983 -59.467  1.00  0.00     0.081 C 
HETATM   32  H   UNL     1     -44.486  54.983 -57.602  1.00  0.00     0.161 HD
HETATM   33  C   UNL     1     -44.525  54.651 -60.203  1.00  0.00     0.032 C 
HETATM   34  C   UNL     1     -43.391  56.899 -60.156  1.00  0.00     0.061 C 
BRANCH  28  35
HETATM   35  C   UNL     1     -44.300  59.181 -59.524  1.00  0.00     0.409 C 
HETATM   36  F   UNL     1     -45.231  59.080 -58.551  1.00  0.00    -0.169 F 
HETATM   37  F   UNL     1     -43.816  60.451 -59.460  1.00  0.00    -0.169 F 
HETATM   38  F   UNL     1     -44.930  59.070 -60.713  1.00  0.00    -0.169 F 
ENDBRANCH  28  35
ENDBRANCH   1  24
TORSDOF 8
ENDMDL
MODEL 3
REMARK VINA RESULT:      -8.7      4.085      6.471
REMARK  8 active torsions:
REMARK  status: ('A' for Active; 'I' for Inactive)
REMARK    1  A    between atoms: C_7  and  C_8 
REMARK       I    between atoms: C_8  and  N_9 
REMARK    2  A    between atoms: N_9  and  N_10 
REMARK    3  A    between atoms: N_10  and  C_11 
REMARK    4  A    between atoms: C_11  and  N_12 
REMARK    5  A    between atoms: N_12  and  C_13 
REMARK    6  A    between atoms: N_15  and  C_16 
REMARK    7  A    between atoms: C_16  and  C_17 
REMARK    8  A    between atoms: C_29  and  C_30 
ROOT
HETATM    1  C   UNL     1     -42.134  59.186 -55.814  1.00  0.00     0.290 C 
HETATM    2  N   UNL     1     -42.368  57.845 -56.043  1.00  0.00    -0.262 N 
HETATM    3  O   UNL     1     -41.698  59.973 -56.650  1.00  0.00    -0.264 OA
HETATM    4  H   UNL     1     -42.817  57.297 -55.308  1.00  0.00     0.190 HD
ENDROOT
BRANCH   2   5
HETATM    5  N   UNL     1     -42.248  57.287 -57.315  1.00  0.00    -0.273 N 
HETATM    6  H   UNL     1     -41.345  57.372 -57.794  1.00  0.00     0.189 HD
BRANCH   5   7
HETATM    7  C   UNL     1     -43.157  56.378 -57.783  1.00  0.00     0.192 C 
HETATM    8  S   UNL     1     -44.267  56.683 -59.006  1.00  0.00    -0.039 SA
BRANCH   7   9
HETATM    9  N   UNL     1     -43.168  55.139 -57.211  1.00  0.00    -0.315 N 
HETATM   10  H   UNL     1     -43.552  54.400 -57.783  1.00  0.00     0.170 HD
BRANCH   9  11
HETATM   11  C   UNL     1     -42.797  54.798 -55.928  1.00  0.00     0.151 A 
HETATM   12  N   UNL     1     -41.533  54.658 -55.516  1.00  0.00    -0.154 NA
HETATM   13  N   UNL     1     -41.642  54.350 -54.206  1.00  0.00    -0.275 N 
HETATM   14  C   UNL     1     -42.937  54.280 -53.778  1.00  0.00     0.116 A 
HETATM   15  C   UNL     1     -43.712  54.560 -54.877  1.00  0.00     0.071 A 
BRANCH  13  16
HETATM   16  C   UNL     1     -40.451  54.054 -53.421  1.00  0.00     0.192 C 
BRANCH  16  17
HETATM   17  C   UNL     1     -40.204  52.576 -53.321  1.00  0.00     0.000 A 
HETATM   18  C   UNL     1     -39.717  52.020 -52.135  1.00  0.00     0.124 A 
HETATM   19  F   UNL     1     -39.479  52.811 -51.079  1.00  0.00    -0.205 F 
HETATM   20  C   UNL     1     -39.479  50.653 -52.019  1.00  0.00     0.043 A 
HETATM   21  C   UNL     1     -39.728  49.817 -53.106  1.00  0.00     0.003 A 
HETATM   22  C   UNL     1     -40.204  50.355 -54.302  1.00  0.00     0.001 A 
HETATM   23  C   UNL     1     -40.437  51.729 -54.412  1.00  0.00     0.012 A 
ENDBRANCH  16  17
ENDBRANCH  13  16
ENDBRANCH   9  11
ENDBRANCH   7   9
ENDBRANCH   5   7
ENDBRANCH   2   5
BRANCH   1  24
HETATM   24  C   UNL     1     -42.465  59.573 -54.432  1.00  0.00     0.150 A 
HETATM   25  N   UNL     1     -41.500  59.799 -53.511  1.00  0.00    -0.165 NA
HETATM   26  N   UNL     1     -42.186  60.115 -52.402  1.00  0.00    -0.240 N 
HETATM   27  C   UNL     1     -43.542  60.138 -52.573  1.00  0.00     0.123 A 
HETATM   28  C   UNL     1     -41.514  60.453 -51.162  1.00  0.00     0.221 C 
HETATM   29  N   UNL     1     -44.373  60.503 -51.569  1.00  0.00    -0.371 N 
HETATM   30  C   UNL     1     -43.760  59.772 -53.876  1.00  0.00     0.089 A 
HETATM   31  C   UNL     1     -43.863  60.693 -50.213  1.00  0.00     0.081 C 
HETATM   32  H   UNL     1     -45.372  60.312 -51.649  1.00  0.00     0.161 HD
HETATM   33  C   UNL     1     -44.806  61.615 -49.445  1.00  0.00     0.032 C 
HETATM   34  C   UNL     1     -42.450  61.298 -50.276  1.00  0.00     0.061 C 
BRANCH  28  35
HETATM   35  C   UNL     1     -41.047  59.193 -50.466  1.00  0.00     0.409 C 
HETATM   36  F   UNL     1     -40.946  59.342 -49.127  1.00  0.00    -0.169 F 
HETATM   37  F   UNL     1     -41.947  58.195 -50.673  1.00  0.00    -0.169 F 
HETATM   38  F   UNL     1     -39.859  58.741 -50.921  1.00  0.00    -0.169 F 
ENDBRANCH  28  35
ENDBRANCH   1  24
TORSDOF 8
ENDMDL
MODEL 4
REMARK VINA RESULT:      -8.5      2.229      2.933
REMARK  8 active torsions:
REMARK  status: ('A' for Active; 'I' for Inactive)
REMARK    1  A    between atoms: C_7  and  C_8 
REMARK       I    between atoms: C_8  and  N_9 
REMARK    2  A    between atoms: N_9  and  N_10 
REMARK    3  A    between atoms: N_10  and  C_11 
REMARK    4  A    between atoms: C_11  and  N_12 
REMARK    5  A    between atoms: N_12  and  C_13 
REMARK    6  A    between atoms: N_15  and  C_16 
REMARK    7  A    between atoms: C_16  and  C_17 
REMARK    8  A    between atoms: C_29  and  C_30 
ROOT
HETATM    1  C   UNL     1     -42.171  58.769 -54.340  1.00  0.00     0.290 C 
HETATM    2  N   UNL     1     -43.240  58.787 -53.467  1.00  0.00    -0.262 N 
HETATM    3  O   UNL     1     -41.049  59.196 -54.082  1.00  0.00    -0.264 OA
HETATM    4  H   UNL     1     -44.105  58.325 -53.747  1.00  0.00     0.190 HD
ENDROOT
BRANCH   2   5
HETATM    5  N   UNL     1     -43.094  59.183 -52.139  1.00  0.00    -0.273 N 
HETATM    6  H   UNL     1     -42.327  59.826 -51.910  1.00  0.00     0.189 HD
BRANCH   5   7
HETATM    7  C   UNL     1     -44.101  59.013 -51.228  1.00  0.00     0.192 C 
HETATM    8  S   UNL     1     -44.873  60.264 -50.415  1.00  0.00    -0.039 SA
BRANCH   7   9
HETATM    9  N   UNL     1     -44.499  57.737 -50.954  1.00  0.00    -0.315 N 
HETATM   10  H   UNL     1     -45.477  57.628 -50.723  1.00  0.00     0.170 HD
BRANCH   9  11
HETATM   11  C   UNL     1     -43.716  56.605 -50.875  1.00  0.00     0.151 A 
HETATM   12  N   UNL     1     -42.388  56.590 -51.025  1.00  0.00    -0.154 NA
HETATM   13  N   UNL     1     -42.047  55.296 -50.844  1.00  0.00    -0.275 N 
HETATM   14  C   UNL     1     -43.120  54.489 -50.596  1.00  0.00     0.116 A 
HETATM   15  C   UNL     1     -44.221  55.311 -50.615  1.00  0.00     0.071 A 
BRANCH  13  16
HETATM   16  C   UNL     1     -40.662  54.874 -51.001  1.00  0.00     0.192 C 
BRANCH  16  17
HETATM   17  C   UNL     1     -40.488  53.963 -52.183  1.00  0.00     0.000 A 
HETATM   18  C   UNL     1     -40.643  54.454 -53.481  1.00  0.00     0.124 A 
HETATM   19  F   UNL     1     -40.940  55.748 -53.672  1.00  0.00    -0.205 F 
HETATM   20  C   UNL     1     -40.488  53.629 -54.592  1.00  0.00     0.043 A 
HETATM   21  C   UNL     1     -40.174  52.283 -54.411  1.00  0.00     0.003 A 
HETATM   22  C   UNL     1     -40.025  51.773 -53.121  1.00  0.00     0.001 A 
HETATM   23  C   UNL     1     -40.186  52.606 -52.011  1.00  0.00     0.012 A 
ENDBRANCH  16  17
ENDBRANCH  13  16
ENDBRANCH   9  11
ENDBRANCH   7   9
ENDBRANCH   5   7
ENDBRANCH   2   5
BRANCH   1  24
HETATM   24  C   UNL     1     -42.534  58.176 -55.639  1.00  0.00     0.150 A 
HETATM   25  N   UNL     1     -41.904  58.539 -56.781  1.00  0.00    -0.165 NA
HETATM   26  N   UNL     1     -42.507  57.800 -57.725  1.00  0.00    -0.240 N 
HETATM   27  C   UNL     1     -43.468  56.955 -57.243  1.00  0.00     0.123 A 
HETATM   28  C   UNL     1     -42.111  57.874 -59.118  1.00  0.00     0.221 C 
HETATM   29  N   UNL     1     -44.123  56.095 -58.056  1.00  0.00    -0.371 N 
HETATM   30  C   UNL     1     -43.525  57.187 -55.893  1.00  0.00     0.089 A 
HETATM   31  C   UNL     1     -43.967  56.178 -59.507  1.00  0.00     0.081 C 
HETATM   32  H   UNL     1     -44.969  55.633 -57.723  1.00  0.00     0.161 HD
HETATM   33  C   UNL     1     -44.307  54.826 -60.128  1.00  0.00     0.032 C 
HETATM   34  C   UNL     1     -42.521  56.580 -59.846  1.00  0.00     0.061 C 
BRANCH  28  35
HETATM   35  C   UNL     1     -42.704  59.108 -59.761  1.00  0.00     0.409 C 
HETATM   36  F   UNL     1     -41.867  60.167 -59.734  1.00  0.00    -0.169 F 
HETATM   37  F   UNL     1     -42.963  58.859 -61.074  1.00  0.00    -0.169 F 
HETATM   38  F   UNL     1     -43.873  59.490 -59.204  1.00  0.00    -0.169 F 
ENDBRANCH  28  35
ENDBRANCH   1  24
TORSDOF 8
ENDMDL
MODEL 5
REMARK VINA RESULT:      -8.4      2.419      3.220
REMARK  8 active torsions:
REMARK  status: ('A' for Active; 'I' for Inactive)
REMARK    1  A    between atoms: C_7  and  C_8 
REMARK       I    between atoms: C_8  and  N_9 
REMARK    2  A    between atoms: N_9  and  N_10 
REMARK    3  A    between atoms: N_10  and  C_11 
REMARK    4  A    between atoms: C_11  and  N_12 
REMARK    5  A    between atoms: N_12  and  C_13 
REMARK    6  A    between atoms: N_15  and  C_16 
REMARK    7  A    between atoms: C_16  and  C_17 
REMARK    8  A    between atoms: C_29  and  C_30 
ROOT
HETATM    1  C   UNL     1     -41.906  59.458 -54.312  1.00  0.00     0.290 C 
HETATM    2  N   UNL     1     -41.325  58.609 -53.391  1.00  0.00    -0.262 N 
HETATM    3  O   UNL     1     -42.080  60.662 -54.142  1.00  0.00    -0.264 OA
HETATM    4  H   UNL     1     -41.144  57.644 -53.667  1.00  0.00     0.190 HD
ENDROOT
BRANCH   2   5
HETATM    5  N   UNL     1     -40.754  59.087 -52.213  1.00  0.00    -0.273 N 
HETATM    6  H   UNL     1     -39.909  59.665 -52.287  1.00  0.00     0.189 HD
BRANCH   5   7
HETATM    7  C   UNL     1     -41.449  59.089 -51.034  1.00  0.00     0.192 C 
HETATM    8  S   UNL     1     -42.605  60.232 -50.610  1.00  0.00    -0.039 SA
BRANCH   7   9
HETATM    9  N   UNL     1     -41.175  58.100 -50.135  1.00  0.00    -0.315 N 
HETATM   10  H   UNL     1     -40.623  58.380 -49.336  1.00  0.00     0.170 HD
BRANCH   9  11
HETATM   11  C   UNL     1     -41.491  56.761 -50.229  1.00  0.00     0.151 A 
HETATM   12  N   UNL     1     -42.004  56.178 -51.316  1.00  0.00    -0.154 NA
HETATM   13  N   UNL     1     -42.124  54.878 -50.972  1.00  0.00    -0.275 N 
HETATM   14  C   UNL     1     -41.714  54.622 -49.694  1.00  0.00     0.116 A 
HETATM   15  C   UNL     1     -41.301  55.829 -49.183  1.00  0.00     0.071 A 
BRANCH  13  16
HETATM   16  C   UNL     1     -42.722  53.926 -51.898  1.00  0.00     0.192 C 
BRANCH  16  17
HETATM   17  C   UNL     1     -41.968  53.862 -53.195  1.00  0.00     0.000 A 
HETATM   18  C   UNL     1     -42.550  54.334 -54.375  1.00  0.00     0.124 A 
HETATM   19  F   UNL     1     -43.786  54.855 -54.344  1.00  0.00    -0.205 F 
HETATM   20  C   UNL     1     -41.871  54.285 -55.589  1.00  0.00     0.043 A 
HETATM   21  C   UNL     1     -40.584  53.752 -55.636  1.00  0.00     0.003 A 
HETATM   22  C   UNL     1     -39.990  53.267 -54.471  1.00  0.00     0.001 A 
HETATM   23  C   UNL     1     -40.679  53.316 -53.256  1.00  0.00     0.012 A 
ENDBRANCH  16  17
ENDBRANCH  13  16
ENDBRANCH   9  11
ENDBRANCH   7   9
ENDBRANCH   5   7
ENDBRANCH   2   5
BRANCH   1  24
HETATM   24  C   UNL     1     -42.305  58.747 -55.539  1.00  0.00     0.150 A 
HETATM   25  N   UNL     1     -41.722  59.013 -56.731  1.00  0.00    -0.165 NA
HETATM   26  N   UNL     1     -42.347  58.186 -57.582  1.00  0.00    -0.240 N 
HETATM   27  C   UNL     1     -43.277  57.376 -56.992  1.00  0.00     0.123 A 
HETATM   28  C   UNL     1     -42.001  58.139 -58.990  1.00  0.00     0.221 C 
HETATM   29  N   UNL     1     -43.948  56.439 -57.701  1.00  0.00    -0.371 N 
HETATM   30  C   UNL     1     -43.290  57.728 -55.667  1.00  0.00     0.089 A 
HETATM   31  C   UNL     1     -43.844  56.393 -59.158  1.00  0.00     0.081 C 
HETATM   32  H   UNL     1     -44.774  55.999 -57.296  1.00  0.00     0.161 HD
HETATM   33  C   UNL     1     -44.186  54.987 -59.643  1.00  0.00     0.032 C 
HETATM   34  C   UNL     1     -42.418  56.780 -59.583  1.00  0.00     0.061 C 
BRANCH  28  35
HETATM   35  C   UNL     1     -42.636  59.303 -59.719  1.00  0.00     0.409 C 
HETATM   36  F   UNL     1     -43.720  59.793 -59.079  1.00  0.00    -0.169 F 
HETATM   37  F   UNL     1     -41.746  60.329 -59.804  1.00  0.00    -0.169 F 
HETATM   38  F   UNL     1     -43.002  59.005 -60.984  1.00  0.00    -0.169 F 
ENDBRANCH  28  35
ENDBRANCH   1  24
TORSDOF 8
ENDMDL
MODEL 6
REMARK VINA RESULT:      -8.4      3.505      7.747
REMARK  8 active torsions:
REMARK  status: ('A' for Active; 'I' for Inactive)
REMARK    1  A    between atoms: C_7  and  C_8 
REMARK       I    between atoms: C_8  and  N_9 
REMARK    2  A    between atoms: N_9  and  N_10 
REMARK    3  A    between atoms: N_10  and  C_11 
REMARK    4  A    between atoms: C_11  and  N_12 
REMARK    5  A    between atoms: N_12  and  C_13 
REMARK    6  A    between atoms: N_15  and  C_16 
REMARK    7  A    between atoms: C_16  and  C_17 
REMARK    8  A    between atoms: C_29  and  C_30 
ROOT
HETATM    1  C   UNL     1     -42.997  56.463 -57.192  1.00  0.00     0.290 C 
HETATM    2  N   UNL     1     -44.024  55.857 -57.888  1.00  0.00    -0.262 N 
HETATM    3  O   UNL     1     -42.302  57.378 -57.626  1.00  0.00    -0.264 OA
HETATM    4  H   UNL     1     -44.600  55.168 -57.403  1.00  0.00     0.190 HD
ENDROOT
BRANCH   2   5
HETATM    5  N   UNL     1     -44.451  56.334 -59.125  1.00  0.00    -0.273 N 
HETATM    6  H   UNL     1     -43.824  56.219 -59.929  1.00  0.00     0.189 HD
BRANCH   5   7
HETATM    7  C   UNL     1     -45.766  56.639 -59.358  1.00  0.00     0.192 C 
HETATM    8  S   UNL     1     -46.614  56.208 -60.742  1.00  0.00    -0.039 SA
BRANCH   7   9
HETATM    9  N   UNL     1     -46.430  57.351 -58.402  1.00  0.00    -0.315 N 
HETATM   10  H   UNL     1     -47.412  57.131 -58.302  1.00  0.00     0.170 HD
BRANCH   9  11
HETATM   11  C   UNL     1     -45.945  58.379 -57.623  1.00  0.00     0.151 A 
HETATM   12  N   UNL     1     -45.881  58.355 -56.288  1.00  0.00    -0.154 NA
HETATM   13  N   UNL     1     -45.323  59.539 -55.960  1.00  0.00    -0.275 N 
HETATM   14  C   UNL     1     -45.042  60.319 -57.045  1.00  0.00     0.116 A 
HETATM   15  C   UNL     1     -45.440  59.593 -58.142  1.00  0.00     0.071 A 
BRANCH  13  16
HETATM   16  C   UNL     1     -45.153  59.907 -54.560  1.00  0.00     0.192 C 
BRANCH  16  17
HETATM   17  C   UNL     1     -43.869  59.368 -53.996  1.00  0.00     0.000 A 
HETATM   18  C   UNL     1     -43.843  58.799 -52.720  1.00  0.00     0.124 A 
HETATM   19  F   UNL     1     -44.973  58.726 -52.001  1.00  0.00    -0.205 F 
HETATM   20  C   UNL     1     -42.666  58.295 -52.175  1.00  0.00     0.043 A 
HETATM   21  C   UNL     1     -41.484  58.358 -52.912  1.00  0.00     0.003 A 
HETATM   22  C   UNL     1     -41.489  58.931 -54.184  1.00  0.00     0.001 A 
HETATM   23  C   UNL     1     -42.674  59.439 -54.723  1.00  0.00     0.012 A 
ENDBRANCH  16  17
ENDBRANCH  13  16
ENDBRANCH   9  11
ENDBRANCH   7   9
ENDBRANCH   5   7
ENDBRANCH   2   5
BRANCH   1  24
HETATM   24  C   UNL     1     -42.822  55.878 -55.851  1.00  0.00     0.150 A 
HETATM   25  N   UNL     1     -41.624  55.405 -55.439  1.00  0.00    -0.165 NA
HETATM   26  N   UNL     1     -41.868  54.960 -54.196  1.00  0.00    -0.240 N 
HETATM   27  C   UNL     1     -43.154  55.157 -53.777  1.00  0.00     0.123 A 
HETATM   28  C   UNL     1     -40.823  54.380 -53.376  1.00  0.00     0.221 C 
HETATM   29  N   UNL     1     -43.546  54.825 -52.525  1.00  0.00    -0.371 N 
HETATM   30  C   UNL     1     -43.808  55.734 -54.835  1.00  0.00     0.089 A 
HETATM   31  C   UNL     1     -42.661  54.066 -51.645  1.00  0.00     0.081 C 
HETATM   32  H   UNL     1     -44.541  54.782 -52.304  1.00  0.00     0.161 HD
HETATM   33  C   UNL     1     -43.058  54.315 -50.193  1.00  0.00     0.032 C 
HETATM   34  C   UNL     1     -41.203  54.495 -51.888  1.00  0.00     0.061 C 
BRANCH  28  35
HETATM   35  C   UNL     1     -40.570  52.948 -53.795  1.00  0.00     0.409 C 
HETATM   36  F   UNL     1     -41.664  52.355 -54.318  1.00  0.00    -0.169 F 
HETATM   37  F   UNL     1     -39.617  52.918 -54.766  1.00  0.00    -0.169 F 
HETATM   38  F   UNL     1     -40.119  52.169 -52.789  1.00  0.00    -0.169 F 
ENDBRANCH  28  35
ENDBRANCH   1  24
TORSDOF 8
ENDMDL
MODEL 7
REMARK VINA RESULT:      -8.3      2.356      3.131
REMARK  8 active torsions:
REMARK  status: ('A' for Active; 'I' for Inactive)
REMARK    1  A    between atoms: C_7  and  C_8 
REMARK       I    between atoms: C_8  and  N_9 
REMARK    2  A    between atoms: N_9  and  N_10 
REMARK    3  A    between atoms: N_10  and  C_11 
REMARK    4  A    between atoms: C_11  and  N_12 
REMARK    5  A    between atoms: N_12  and  C_13 
REMARK    6  A    between atoms: N_15  and  C_16 
REMARK    7  A    between atoms: C_16  and  C_17 
REMARK    8  A    between atoms: C_29  and  C_30 
ROOT
HETATM    1  C   UNL     1     -45.095  59.179 -54.897  1.00  0.00     0.290 C 
HETATM    2  N   UNL     1     -44.727  58.415 -53.808  1.00  0.00    -0.262 N 
HETATM    3  O   UNL     1     -45.549  60.318 -54.831  1.00  0.00    -0.264 OA
HETATM    4  H   UNL     1     -44.275  57.516 -53.975  1.00  0.00     0.190 HD
ENDROOT
BRANCH   2   5
HETATM    5  N   UNL     1     -44.719  58.938 -52.516  1.00  0.00    -0.273 N 
HETATM    6  H   UNL     1     -45.384  58.552 -51.836  1.00  0.00     0.189 HD
BRANCH   5   7
HETATM    7  C   UNL     1     -43.668  59.684 -52.055  1.00  0.00     0.192 C 
HETATM    8  S   UNL     1     -43.785  61.279 -51.541  1.00  0.00    -0.039 SA
BRANCH   7   9
HETATM    9  N   UNL     1     -42.438  59.094 -52.020  1.00  0.00    -0.315 N 
HETATM   10  H   UNL     1     -41.699  59.604 -52.484  1.00  0.00     0.170 HD
BRANCH   9  11
HETATM   11  C   UNL     1     -42.107  57.860 -51.503  1.00  0.00     0.151 A 
HETATM   12  N   UNL     1     -42.706  56.713 -51.835  1.00  0.00    -0.154 NA
HETATM   13  N   UNL     1     -42.051  55.775 -51.119  1.00  0.00    -0.275 N 
HETATM   14  C   UNL     1     -41.062  56.295 -50.333  1.00  0.00     0.116 A 
HETATM   15  C   UNL     1     -41.077  57.650 -50.557  1.00  0.00     0.071 A 
BRANCH  13  16
HETATM   16  C   UNL     1     -42.476  54.382 -51.170  1.00  0.00     0.192 C 
BRANCH  16  17
HETATM   17  C   UNL     1     -41.559  53.551 -52.021  1.00  0.00     0.000 A 
HETATM   18  C   UNL     1     -41.730  53.505 -53.407  1.00  0.00     0.124 A 
HETATM   19  F   UNL     1     -42.714  54.215 -53.979  1.00  0.00    -0.205 F 
HETATM   20  C   UNL     1     -40.894  52.741 -54.216  1.00  0.00     0.043 A 
HETATM   21  C   UNL     1     -39.864  52.002 -53.637  1.00  0.00     0.003 A 
HETATM   22  C   UNL     1     -39.683  52.028 -52.254  1.00  0.00     0.001 A 
HETATM   23  C   UNL     1     -40.529  52.794 -51.447  1.00  0.00     0.012 A 
ENDBRANCH  16  17
ENDBRANCH  13  16
ENDBRANCH   9  11
ENDBRANCH   7   9
ENDBRANCH   5   7
ENDBRANCH   2   5
BRANCH   1  24
HETATM   24  C   UNL     1     -44.884  58.463 -56.167  1.00  0.00     0.150 A 
HETATM   25  N   UNL     1     -43.646  58.098 -56.575  1.00  0.00    -0.165 NA
HETATM   26  N   UNL     1     -43.865  57.490 -57.750  1.00  0.00    -0.240 N 
HETATM   27  C   UNL     1     -45.184  57.413 -58.102  1.00  0.00     0.123 A 
HETATM   28  C   UNL     1     -42.780  56.923 -58.527  1.00  0.00     0.221 C 
HETATM   29  N   UNL     1     -45.578  56.772 -59.226  1.00  0.00    -0.371 N 
HETATM   30  C   UNL     1     -45.873  58.054 -57.104  1.00  0.00     0.089 A 
HETATM   31  C   UNL     1     -44.594  56.310 -60.203  1.00  0.00     0.081 C 
HETATM   32  H   UNL     1     -46.527  56.908 -59.576  1.00  0.00     0.161 HD
HETATM   33  C   UNL     1     -45.196  55.174 -61.025  1.00  0.00     0.032 C 
HETATM   34  C   UNL     1     -43.328  55.835 -59.470  1.00  0.00     0.061 C 
BRANCH  28  35
HETATM   35  C   UNL     1     -42.050  58.017 -59.275  1.00  0.00     0.409 C 
HETATM   36  F   UNL     1     -42.882  58.967 -59.755  1.00  0.00    -0.169 F 
HETATM   37  F   UNL     1     -41.190  58.651 -58.433  1.00  0.00    -0.169 F 
HETATM   38  F   UNL     1     -41.310  57.557 -60.306  1.00  0.00    -0.169 F 
ENDBRANCH  28  35
ENDBRANCH   1  24
TORSDOF 8
ENDMDL
MODEL 8
REMARK VINA RESULT:      -8.3      2.012      2.604
REMARK  8 active torsions:
REMARK  status: ('A' for Active; 'I' for Inactive)
REMARK    1  A    between atoms: C_7  and  C_8 
REMARK       I    between atoms: C_8  and  N_9 
REMARK    2  A    between atoms: N_9  and  N_10 
REMARK    3  A    between atoms: N_10  and  C_11 
REMARK    4  A    between atoms: C_11  and  N_12 
REMARK    5  A    between atoms: N_12  and  C_13 
REMARK    6  A    between atoms: N_15  and  C_16 
REMARK    7  A    between atoms: C_16  and  C_17 
REMARK    8  A    between atoms: C_29  and  C_30 
ROOT
HETATM    1  C   UNL     1     -43.638  59.227 -54.255  1.00  0.00     0.290 C 
HETATM    2  N   UNL     1     -43.865  58.349 -53.214  1.00  0.00    -0.262 N 
HETATM    3  O   UNL     1     -43.172  60.356 -54.129  1.00  0.00    -0.264 OA
HETATM    4  H   UNL     1     -44.169  57.400 -53.436  1.00  0.00     0.190 HD
ENDROOT
BRANCH   2   5
HETATM    5  N   UNL     1     -43.452  58.632 -51.914  1.00  0.00    -0.273 N 
HETATM    6  H   UNL     1     -44.072  59.199 -51.324  1.00  0.00     0.189 HD
BRANCH   5   7
HETATM    7  C   UNL     1     -42.443  57.927 -51.316  1.00  0.00     0.192 C 
HETATM    8  S   UNL     1     -40.997  58.597 -50.784  1.00  0.00    -0.039 SA
BRANCH   7   9
HETATM    9  N   UNL     1     -42.619  56.584 -51.150  1.00  0.00    -0.315 N 
HETATM   10  H   UNL     1     -42.942  56.299 -50.236  1.00  0.00     0.170 HD
BRANCH   9  11
HETATM   11  C   UNL     1     -42.333  55.577 -52.046  1.00  0.00     0.151 A 
HETATM   12  N   UNL     1     -41.099  55.207 -52.402  1.00  0.00    -0.154 NA
HETATM   13  N   UNL     1     -41.293  54.185 -53.263  1.00  0.00    -0.275 N 
HETATM   14  C   UNL     1     -42.614  53.903 -53.471  1.00  0.00     0.116 A 
HETATM   15  C   UNL     1     -43.315  54.796 -52.697  1.00  0.00     0.071 A 
BRANCH  13  16
HETATM   16  C   UNL     1     -40.158  53.557 -53.925  1.00  0.00     0.192 C 
BRANCH  16  17
HETATM   17  C   UNL     1     -39.968  52.136 -53.477  1.00  0.00     0.000 A 
HETATM   18  C   UNL     1     -39.611  51.853 -52.157  1.00  0.00     0.124 A 
HETATM   19  F   UNL     1     -39.447  52.857 -51.283  1.00  0.00    -0.205 F 
HETATM   20  C   UNL     1     -39.429  50.545 -51.719  1.00  0.00     0.043 A 
HETATM   21  C   UNL     1     -39.602  49.490 -52.613  1.00  0.00     0.003 A 
HETATM   22  C   UNL     1     -39.948  49.753 -53.939  1.00  0.00     0.001 A 
HETATM   23  C   UNL     1     -40.126  51.069 -54.372  1.00  0.00     0.012 A 
ENDBRANCH  16  17
ENDBRANCH  13  16
ENDBRANCH   9  11
ENDBRANCH   7   9
ENDBRANCH   5   7
ENDBRANCH   2   5
BRANCH   1  24
HETATM   24  C   UNL     1     -44.026  58.651 -55.554  1.00  0.00     0.150 A 
HETATM   25  N   UNL     1     -43.126  58.024 -56.346  1.00  0.00    -0.165 NA
HETATM   26  N   UNL     1     -43.847  57.654 -57.415  1.00  0.00    -0.240 N 
HETATM   27  C   UNL     1     -45.172  57.980 -57.335  1.00  0.00     0.123 A 
HETATM   28  C   UNL     1     -43.253  56.923 -58.518  1.00  0.00     0.221 C 
HETATM   29  N   UNL     1     -46.048  57.619 -58.302  1.00  0.00    -0.371 N 
HETATM   30  C   UNL     1     -45.321  58.646 -56.146  1.00  0.00     0.089 A 
HETATM   31  C   UNL     1     -45.573  57.041 -59.557  1.00  0.00     0.081 C 
HETATM   32  H   UNL     1     -46.973  58.047 -58.328  1.00  0.00     0.161 HD
HETATM   33  C   UNL     1     -46.694  56.224 -60.192  1.00  0.00     0.032 C 
HETATM   34  C   UNL     1     -44.347  56.153 -59.282  1.00  0.00     0.061 C 
BRANCH  28  35
HETATM   35  C   UNL     1     -42.484  57.869 -59.414  1.00  0.00     0.409 C 
HETATM   36  F   UNL     1     -43.069  59.082 -59.518  1.00  0.00    -0.169 F 
HETATM   37  F   UNL     1     -41.246  58.085 -58.895  1.00  0.00    -0.169 F 
HETATM   38  F   UNL     1     -42.300  57.390 -60.662  1.00  0.00    -0.169 F 
ENDBRANCH  28  35
ENDBRANCH   1  24
TORSDOF 8
ENDMDL
MODEL 9
REMARK VINA RESULT:      -8.2      2.323      8.776
REMARK  8 active torsions:
REMARK  status: ('A' for Active; 'I' for Inactive)
REMARK    1  A    between atoms: C_7  and  C_8 
REMARK       I    between atoms: C_8  and  N_9 
REMARK    2  A    between atoms: N_9  and  N_10 
REMARK    3  A    between atoms: N_10  and  C_11 
REMARK    4  A    between atoms: C_11  and  N_12 
REMARK    5  A    between atoms: N_12  and  C_13 
REMARK    6  A    between atoms: N_15  and  C_16 
REMARK    7  A    between atoms: C_16  and  C_17 
REMARK    8  A    between atoms: C_29  and  C_30 
ROOT
HETATM    1  C   UNL     1     -42.814  55.356 -54.327  1.00  0.00     0.290 C 
HETATM    2  N   UNL     1     -44.101  55.522 -53.854  1.00  0.00    -0.262 N 
HETATM    3  O   UNL     1     -42.357  55.913 -55.321  1.00  0.00    -0.264 OA
HETATM    4  H   UNL     1     -44.352  55.083 -52.967  1.00  0.00     0.190 HD
ENDROOT
BRANCH   2   5
HETATM    5  N   UNL     1     -44.969  56.461 -54.406  1.00  0.00    -0.273 N 
HETATM    6  H   UNL     1     -45.752  56.118 -54.974  1.00  0.00     0.189 HD
BRANCH   5   7
HETATM    7  C   UNL     1     -45.002  57.754 -53.956  1.00  0.00     0.192 C 
HETATM    8  S   UNL     1     -44.527  58.241 -52.421  1.00  0.00    -0.039 SA
BRANCH   7   9
HETATM    9  N   UNL     1     -45.462  58.712 -54.812  1.00  0.00    -0.315 N 
HETATM   10  H   UNL     1     -46.316  59.171 -54.530  1.00  0.00     0.170 HD
BRANCH   9  11
HETATM   11  C   UNL     1     -44.948  59.064 -56.042  1.00  0.00     0.151 A 
HETATM   12  N   UNL     1     -44.498  58.196 -56.953  1.00  0.00    -0.154 NA
HETATM   13  N   UNL     1     -44.122  58.969 -57.993  1.00  0.00    -0.275 N 
HETATM   14  C   UNL     1     -44.309  60.303 -57.765  1.00  0.00     0.116 A 
HETATM   15  C   UNL     1     -44.840  60.397 -56.501  1.00  0.00     0.071 A 
BRANCH  13  16
HETATM   16  C   UNL     1     -43.507  58.369 -59.170  1.00  0.00     0.192 C 
BRANCH  16  17
HETATM   17  C   UNL     1     -44.202  57.100 -59.575  1.00  0.00     0.000 A 
HETATM   18  C   UNL     1     -43.598  55.861 -59.348  1.00  0.00     0.124 A 
HETATM   19  F   UNL     1     -42.395  55.805 -58.758  1.00  0.00    -0.205 F 
HETATM   20  C   UNL     1     -44.222  54.672 -59.716  1.00  0.00     0.043 A 
HETATM   21  C   UNL     1     -45.475  54.713 -60.325  1.00  0.00     0.003 A 
HETATM   22  C   UNL     1     -46.090  55.942 -60.568  1.00  0.00     0.001 A 
HETATM   23  C   UNL     1     -45.456  57.131 -60.200  1.00  0.00     0.012 A 
ENDBRANCH  16  17
ENDBRANCH  13  16
ENDBRANCH   9  11
ENDBRANCH   7   9
ENDBRANCH   5   7
ENDBRANCH   2   5
BRANCH   1  24
HETATM   24  C   UNL     1     -42.040  54.417 -53.497  1.00  0.00     0.150 A 
HETATM   25  N   UNL     1     -42.034  54.508 -52.146  1.00  0.00    -0.165 NA
HETATM   26  N   UNL     1     -41.229  53.506 -51.764  1.00  0.00    -0.240 N 
HETATM   27  C   UNL     1     -40.744  52.754 -52.797  1.00  0.00     0.123 A 
HETATM   28  C   UNL     1     -40.962  53.237 -50.364  1.00  0.00     0.221 C 
HETATM   29  N   UNL     1     -39.971  51.666 -52.576  1.00  0.00    -0.371 N 
HETATM   30  C   UNL     1     -41.236  53.330 -53.940  1.00  0.00     0.089 A 
HETATM   31  C   UNL     1     -39.465  51.373 -51.236  1.00  0.00     0.081 C 
HETATM   32  H   UNL     1     -39.453  51.251 -53.350  1.00  0.00     0.161 HD
HETATM   33  C   UNL     1     -39.143  49.885 -51.133  1.00  0.00     0.032 C 
HETATM   34  C   UNL     1     -40.521  51.771 -50.190  1.00  0.00     0.061 C 
BRANCH  28  35
HETATM   35  C   UNL     1     -39.934  54.212 -49.835  1.00  0.00     0.409 C 
HETATM   36  F   UNL     1     -40.343  55.497 -49.912  1.00  0.00    -0.169 F 
HETATM   37  F   UNL     1     -39.702  53.963 -48.517  1.00  0.00    -0.169 F 
HETATM   38  F   UNL     1     -38.740  54.120 -50.459  1.00  0.00    -0.169 F 
ENDBRANCH  28  35
ENDBRANCH   1  24
TORSDOF 8
ENDMDL
MODEL 10
REMARK VINA RESULT:      -8.2      3.336      7.592
REMARK  8 active torsions:
REMARK  status: ('A' for Active; 'I' for Inactive)
REMARK    1  A    between atoms: C_7  and  C_8 
REMARK       I    between atoms: C_8  and  N_9 
REMARK    2  A    between atoms: N_9  and  N_10 
REMARK    3  A    between atoms: N_10  and  C_11 
REMARK    4  A    between atoms: C_11  and  N_12 
REMARK    5  A    between atoms: N_12  and  C_13 
REMARK    6  A    between atoms: N_15  and  C_16 
REMARK    7  A    between atoms: C_16  and  C_17 
REMARK    8  A    between atoms: C_29  and  C_30 
ROOT
HETATM    1  C   UNL     1     -42.450  55.126 -56.204  1.00  0.00     0.290 C 
HETATM    2  N   UNL     1     -41.843  56.360 -56.335  1.00  0.00    -0.262 N 
HETATM    3  O   UNL     1     -43.316  54.689 -56.957  1.00  0.00    -0.264 OA
HETATM    4  H   UNL     1     -41.071  56.590 -55.710  1.00  0.00     0.190 HD
ENDROOT
BRANCH   2   5
HETATM    5  N   UNL     1     -42.077  57.176 -57.440  1.00  0.00    -0.273 N 
HETATM    6  H   UNL     1     -42.019  56.753 -58.373  1.00  0.00     0.189 HD
BRANCH   5   7
HETATM    7  C   UNL     1     -42.685  58.396 -57.310  1.00  0.00     0.192 C 
HETATM    8  S   UNL     1     -41.968  59.865 -57.697  1.00  0.00    -0.039 SA
BRANCH   7   9
HETATM    9  N   UNL     1     -43.959  58.420 -56.822  1.00  0.00    -0.315 N 
HETATM   10  H   UNL     1     -44.687  58.248 -57.501  1.00  0.00     0.170 HD
BRANCH   9  11
HETATM   11  C   UNL     1     -44.369  58.730 -55.543  1.00  0.00     0.151 A 
HETATM   12  N   UNL     1     -44.032  58.038 -54.450  1.00  0.00    -0.154 NA
HETATM   13  N   UNL     1     -44.625  58.705 -53.437  1.00  0.00    -0.275 N 
HETATM   14  C   UNL     1     -45.337  59.793 -53.856  1.00  0.00     0.116 A 
HETATM   15  C   UNL     1     -45.193  59.833 -55.222  1.00  0.00     0.071 A 
BRANCH  13  16
HETATM   16  C   UNL     1     -44.537  58.198 -52.074  1.00  0.00     0.192 C 
BRANCH  16  17
HETATM   17  C   UNL     1     -43.145  58.325 -51.522  1.00  0.00     0.000 A 
HETATM   18  C   UNL     1     -42.611  59.584 -51.237  1.00  0.00     0.124 A 
HETATM   19  F   UNL     1     -43.349  60.683 -51.450  1.00  0.00    -0.205 F 
HETATM   20  C   UNL     1     -41.323  59.727 -50.727  1.00  0.00     0.043 A 
HETATM   21  C   UNL     1     -40.546  58.594 -50.495  1.00  0.00     0.003 A 
HETATM   22  C   UNL     1     -41.059  57.329 -50.783  1.00  0.00     0.001 A 
HETATM   23  C   UNL     1     -42.350  57.193 -51.299  1.00  0.00     0.012 A 
ENDBRANCH  16  17
ENDBRANCH  13  16
ENDBRANCH   9  11
ENDBRANCH   7   9
ENDBRANCH   5   7
ENDBRANCH   2   5
BRANCH   1  24
HETATM   24  C   UNL     1     -41.940  54.384 -55.038  1.00  0.00     0.150 A 
HETATM   25  N   UNL     1     -40.900  53.526 -55.148  1.00  0.00    -0.165 NA
HETATM   26  N   UNL     1     -40.743  53.056 -53.901  1.00  0.00    -0.240 N 
HETATM   27  C   UNL     1     -41.605  53.596 -52.989  1.00  0.00     0.123 A 
HETATM   28  C   UNL     1     -39.700  52.102 -53.573  1.00  0.00     0.221 C 
HETATM   29  N   UNL     1     -41.534  53.276 -51.675  1.00  0.00    -0.371 N 
HETATM   30  C   UNL     1     -42.411  54.449 -53.697  1.00  0.00     0.089 A 
HETATM   31  C   UNL     1     -40.661  52.197 -51.219  1.00  0.00     0.081 C 
HETATM   32  H   UNL     1     -42.307  53.519 -51.056  1.00  0.00     0.161 HD
HETATM   33  C   UNL     1     -40.325  52.409 -49.746  1.00  0.00     0.032 C 
HETATM   34  C   UNL     1     -39.379  52.179 -52.069  1.00  0.00     0.061 C 
BRANCH  28  35
HETATM   35  C   UNL     1     -40.116  50.712 -54.002  1.00  0.00     0.409 C 
HETATM   36  F   UNL     1     -39.325  50.205 -54.972  1.00  0.00    -0.169 F 
HETATM   37  F   UNL     1     -40.019  49.860 -52.945  1.00  0.00    -0.169 F 
HETATM   38  F   UNL     1     -41.393  50.646 -54.433  1.00  0.00    -0.169 F 
ENDBRANCH  28  35
ENDBRANCH   1  24
TORSDOF 8
ENDMDL
