MODEL 1
REMARK VINA RESULT:      -8.3      0.000      0.000
REMARK  4 active torsions:
REMARK  status: ('A' for Active; 'I' for Inactive)
REMARK    1  A    between atoms: N_1  and  C_2 
REMARK    2  A    between atoms: C_2  and  C_3 
REMARK    3  A    between atoms: C_3  and  C_4 
REMARK    4  A    between atoms: N_13  and  C_16 
ROOT
HETATM    1  C   UNL     1     -41.844  54.553 -54.762  1.00  0.00     0.162 C 
HETATM    2  C   UNL     1     -41.434  56.044 -54.891  1.00  0.00     0.061 C 
HETATM    3  C   UNL     1     -42.499  57.028 -54.403  1.00  0.00     0.125 C 
HETATM    4  N   UNL     1     -42.893  56.666 -53.037  1.00  0.00    -0.380 N 
HETATM    5  C   UNL     1     -43.480  55.317 -52.936  1.00  0.00     0.125 C 
HETATM    6  C   UNL     1     -42.428  54.293 -53.355  1.00  0.00     0.061 C 
ENDROOT
BRANCH   1   7
HETATM    7  N   UNL     1     -42.857  54.232 -55.787  1.00  0.00     0.088 N 
HETATM    8  H   UNL     1     -43.017  55.037 -56.392  1.00  0.00     0.313 HD
HETATM    9  H   UNL     1     -43.754  53.988 -55.377  1.00  0.00     0.313 HD
ENDBRANCH   1   7
BRANCH   1  10
HETATM   10  C   UNL     1     -40.563  53.684 -55.000  1.00  0.00     0.079 C 
BRANCH  10  11
HETATM   11  C   UNL     1     -40.233  52.646 -53.948  1.00  0.00    -0.056 A 
HETATM   12  C   UNL     1     -40.153  51.286 -54.283  1.00  0.00     0.009 A 
HETATM   13  C   UNL     1     -39.838  50.334 -53.312  1.00  0.00     0.024 A 
HETATM   14  C   UNL     1     -39.604  50.734 -51.999  1.00  0.00     0.034 A 
HETATM   15 CL   UNL     1     -39.219  49.560 -50.801  1.00  0.00    -0.084 Cl
HETATM   16  C   UNL     1     -39.681  52.079 -51.649  1.00  0.00     0.024 A 
HETATM   17  C   UNL     1     -39.992  53.033 -52.621  1.00  0.00     0.009 A 
ENDBRANCH  10  11
ENDBRANCH   1  10
BRANCH   4  18
HETATM   18  C   UNL     1     -43.403  57.621 -52.169  1.00  0.00     0.045 A 
HETATM   19  C   UNL     1     -44.785  57.820 -51.980  1.00  0.00     0.047 A 
HETATM   20  C   UNL     1     -45.278  58.809 -51.135  1.00  0.00     0.092 A 
HETATM   21  N   UNL     1     -44.452  59.619 -50.467  1.00  0.00    -0.351 N 
HETATM   22  H   UNL     1     -44.821  60.344 -49.854  1.00  0.00     0.166 HD
HETATM   23  C   UNL     1     -43.115  59.466 -50.631  1.00  0.00     0.117 A 
HETATM   24  N   UNL     1     -42.118  60.205 -50.050  1.00  0.00    -0.352 N 
HETATM   25  C   UNL     1     -42.550  58.505 -51.457  1.00  0.00     0.036 A 
HETATM   26  H   UNL     1     -42.226  60.974 -49.399  1.00  0.00     0.166 HD
HETATM   27  C   UNL     1     -40.906  59.752 -50.505  1.00  0.00     0.090 A 
HETATM   28  C   UNL     1     -41.142  58.713 -51.381  1.00  0.00     0.034 A 
ENDBRANCH   4  18
TORSDOF 4
ENDMDL
MODEL 2
REMARK VINA RESULT:      -8.3      4.671      7.404
REMARK  4 active torsions:
REMARK  status: ('A' for Active; 'I' for Inactive)
REMARK    1  A    between atoms: N_1  and  C_2 
REMARK    2  A    between atoms: C_2  and  C_3 
REMARK    3  A    between atoms: C_3  and  C_4 
REMARK    4  A    between atoms: N_13  and  C_16 
ROOT
HETATM    1  C   UNL     1     -42.929  56.179 -56.029  1.00  0.00     0.162 C 
HETATM    2  C   UNL     1     -41.749  56.726 -55.182  1.00  0.00     0.061 C 
HETATM    3  C   UNL     1     -41.733  56.223 -53.736  1.00  0.00     0.125 C 
HETATM    4  N   UNL     1     -41.796  54.758 -53.741  1.00  0.00    -0.380 N 
HETATM    5  C   UNL     1     -43.022  54.227 -54.364  1.00  0.00     0.125 C 
HETATM    6  C   UNL     1     -43.050  54.651 -55.830  1.00  0.00     0.061 C 
ENDROOT
BRANCH   1   7
HETATM    7  N   UNL     1     -44.182  56.835 -55.605  1.00  0.00     0.088 N 
HETATM    8  H   UNL     1     -44.818  56.154 -55.192  1.00  0.00     0.313 HD
HETATM    9  H   UNL     1     -44.674  57.264 -56.383  1.00  0.00     0.313 HD
ENDBRANCH   1   7
BRANCH   1  10
HETATM   10  C   UNL     1     -42.638  56.522 -57.528  1.00  0.00     0.079 C 
BRANCH  10  11
HETATM   11  C   UNL     1     -43.808  56.452 -58.488  1.00  0.00    -0.056 A 
HETATM   12  C   UNL     1     -44.046  55.296 -59.244  1.00  0.00     0.009 A 
HETATM   13  C   UNL     1     -45.132  55.233 -60.120  1.00  0.00     0.024 A 
HETATM   14  C   UNL     1     -45.985  56.325 -60.247  1.00  0.00     0.034 A 
HETATM   15 CL   UNL     1     -47.322  56.249 -61.327  1.00  0.00    -0.084 Cl
HETATM   16  C   UNL     1     -45.762  57.482 -59.503  1.00  0.00     0.024 A 
HETATM   17  C   UNL     1     -44.678  57.544 -58.625  1.00  0.00     0.009 A 
ENDBRANCH  10  11
ENDBRANCH   1  10
BRANCH   4  18
HETATM   18  C   UNL     1     -41.280  54.023 -52.683  1.00  0.00     0.045 A 
HETATM   19  C   UNL     1     -41.396  54.434 -51.340  1.00  0.00     0.047 A 
HETATM   20  C   UNL     1     -40.838  53.703 -50.295  1.00  0.00     0.092 A 
HETATM   21  N   UNL     1     -40.161  52.576 -50.527  1.00  0.00    -0.351 N 
HETATM   22  H   UNL     1     -39.752  52.050 -49.757  1.00  0.00     0.166 HD
HETATM   23  C   UNL     1     -40.019  52.152 -51.807  1.00  0.00     0.117 A 
HETATM   24  N   UNL     1     -39.350  51.038 -52.243  1.00  0.00    -0.352 N 
HETATM   25  C   UNL     1     -40.545  52.827 -52.900  1.00  0.00     0.036 A 
HETATM   26  H   UNL     1     -38.868  50.354 -51.675  1.00  0.00     0.166 HD
HETATM   27  C   UNL     1     -39.414  50.990 -53.613  1.00  0.00     0.090 A 
HETATM   28  C   UNL     1     -40.132  52.085 -54.044  1.00  0.00     0.034 A 
ENDBRANCH   4  18
TORSDOF 4
ENDMDL
MODEL 3
REMARK VINA RESULT:      -8.1      3.604      6.060
REMARK  4 active torsions:
REMARK  status: ('A' for Active; 'I' for Inactive)
REMARK    1  A    between atoms: N_1  and  C_2 
REMARK    2  A    between atoms: C_2  and  C_3 
REMARK    3  A    between atoms: C_3  and  C_4 
REMARK    4  A    between atoms: N_13  and  C_16 
ROOT
HETATM    1  C   UNL     1     -42.249  55.452 -54.345  1.00  0.00     0.162 C 
HETATM    2  C   UNL     1     -41.829  54.826 -55.702  1.00  0.00     0.061 C 
HETATM    3  C   UNL     1     -42.841  55.045 -56.829  1.00  0.00     0.125 C 
HETATM    4  N   UNL     1     -43.135  56.478 -56.934  1.00  0.00    -0.380 N 
HETATM    5  C   UNL     1     -43.730  57.044 -55.710  1.00  0.00     0.125 C 
HETATM    6  C   UNL     1     -42.727  56.905 -54.567  1.00  0.00     0.061 C 
ENDROOT
BRANCH   1   7
HETATM    7  N   UNL     1     -43.341  54.654 -53.753  1.00  0.00     0.088 N 
HETATM    8  H   UNL     1     -44.162  55.238 -53.595  1.00  0.00     0.313 HD
HETATM    9  H   UNL     1     -43.083  54.258 -52.854  1.00  0.00     0.313 HD
ENDBRANCH   1   7
BRANCH   1  10
HETATM   10  C   UNL     1     -41.001  55.418 -53.400  1.00  0.00     0.079 C 
BRANCH  10  11
HETATM   11  C   UNL     1     -40.601  54.068 -52.841  1.00  0.00    -0.056 A 
HETATM   12  C   UNL     1     -40.215  53.024 -53.693  1.00  0.00     0.009 A 
HETATM   13  C   UNL     1     -39.837  51.786 -53.171  1.00  0.00     0.024 A 
HETATM   14  C   UNL     1     -39.843  51.582 -51.794  1.00  0.00     0.034 A 
HETATM   15 CL   UNL     1     -39.380  50.055 -51.151  1.00  0.00    -0.084 Cl
HETATM   16  C   UNL     1     -40.224  52.608 -50.933  1.00  0.00     0.024 A 
HETATM   17  C   UNL     1     -40.599  53.849 -51.454  1.00  0.00     0.009 A 
ENDBRANCH  10  11
ENDBRANCH   1  10
BRANCH   4  18
HETATM   18  C   UNL     1     -43.565  57.028 -58.133  1.00  0.00     0.045 A 
HETATM   19  C   UNL     1     -43.550  58.414 -58.386  1.00  0.00     0.047 A 
HETATM   20  C   UNL     1     -44.021  58.950 -59.581  1.00  0.00     0.092 A 
HETATM   21  N   UNL     1     -44.514  58.164 -60.542  1.00  0.00    -0.351 N 
HETATM   22  H   UNL     1     -44.861  58.565 -61.411  1.00  0.00     0.166 HD
HETATM   23  C   UNL     1     -44.555  56.825 -60.332  1.00  0.00     0.117 A 
HETATM   24  N   UNL     1     -45.036  55.866 -61.184  1.00  0.00    -0.352 N 
HETATM   25  C   UNL     1     -44.106  56.218 -59.168  1.00  0.00     0.036 A 
HETATM   26  H   UNL     1     -45.427  56.009 -62.108  1.00  0.00     0.166 HD
HETATM   27  C   UNL     1     -44.928  54.639 -60.580  1.00  0.00     0.090 A 
HETATM   28  C   UNL     1     -44.369  54.828 -59.333  1.00  0.00     0.034 A 
ENDBRANCH   4  18
TORSDOF 4
ENDMDL
MODEL 4
REMARK VINA RESULT:      -8.0      4.655      7.455
REMARK  4 active torsions:
REMARK  status: ('A' for Active; 'I' for Inactive)
REMARK    1  A    between atoms: N_1  and  C_2 
REMARK    2  A    between atoms: C_2  and  C_3 
REMARK    3  A    between atoms: C_3  and  C_4 
REMARK    4  A    between atoms: N_13  and  C_16 
ROOT
HETATM    1  C   UNL     1     -42.917  56.200 -55.976  1.00  0.00     0.162 C 
HETATM    2  C   UNL     1     -41.688  56.605 -55.119  1.00  0.00     0.061 C 
HETATM    3  C   UNL     1     -41.484  55.739 -53.874  1.00  0.00     0.125 C 
HETATM    4  N   UNL     1     -41.454  54.329 -54.274  1.00  0.00    -0.380 N 
HETATM    5  C   UNL     1     -42.705  53.874 -54.909  1.00  0.00     0.125 C 
HETATM    6  C   UNL     1     -42.919  54.670 -56.194  1.00  0.00     0.061 C 
ENDROOT
BRANCH   1   7
HETATM    7  N   UNL     1     -44.155  56.604 -55.280  1.00  0.00     0.088 N 
HETATM    8  H   UNL     1     -44.022  56.571 -54.270  1.00  0.00     0.313 HD
HETATM    9  H   UNL     1     -44.934  55.989 -55.494  1.00  0.00     0.313 HD
ENDBRANCH   1   7
BRANCH   1  10
HETATM   10  C   UNL     1     -42.814  56.955 -57.343  1.00  0.00     0.079 C 
BRANCH  10  11
HETATM   11  C   UNL     1     -43.968  56.788 -58.309  1.00  0.00    -0.056 A 
HETATM   12  C   UNL     1     -45.054  57.675 -58.289  1.00  0.00     0.009 A 
HETATM   13  C   UNL     1     -46.111  57.522 -59.189  1.00  0.00     0.024 A 
HETATM   14  C   UNL     1     -46.091  56.480 -60.112  1.00  0.00     0.034 A 
HETATM   15 CL   UNL     1     -47.394  56.290 -61.219  1.00  0.00    -0.084 Cl
HETATM   16  C   UNL     1     -45.021  55.590 -60.144  1.00  0.00     0.024 A 
HETATM   17  C   UNL     1     -43.961  55.745 -59.247  1.00  0.00     0.009 A 
ENDBRANCH  10  11
ENDBRANCH   1  10
BRANCH   4  18
HETATM   18  C   UNL     1     -40.781  53.388 -53.507  1.00  0.00     0.045 A 
HETATM   19  C   UNL     1     -40.106  52.286 -54.070  1.00  0.00     0.047 A 
HETATM   20  C   UNL     1     -39.469  51.332 -53.283  1.00  0.00     0.092 A 
HETATM   21  N   UNL     1     -39.477  51.421 -51.950  1.00  0.00    -0.351 N 
HETATM   22  H   UNL     1     -39.012  50.716 -51.381  1.00  0.00     0.166 HD
HETATM   23  C   UNL     1     -40.125  52.461 -51.370  1.00  0.00     0.117 A 
HETATM   24  N   UNL     1     -40.257  52.713 -50.030  1.00  0.00    -0.352 N 
HETATM   25  C   UNL     1     -40.783  53.450 -52.088  1.00  0.00     0.036 A 
HETATM   26  H   UNL     1     -39.882  52.166 -49.265  1.00  0.00     0.166 HD
HETATM   27  C   UNL     1     -41.015  53.844 -49.863  1.00  0.00     0.090 A 
HETATM   28  C   UNL     1     -41.362  54.312 -51.113  1.00  0.00     0.034 A 
ENDBRANCH   4  18
TORSDOF 4
ENDMDL
MODEL 5
REMARK VINA RESULT:      -8.0      2.280      4.253
REMARK  4 active torsions:
REMARK  status: ('A' for Active; 'I' for Inactive)
REMARK    1  A    between atoms: N_1  and  C_2 
REMARK    2  A    between atoms: C_2  and  C_3 
REMARK    3  A    between atoms: C_3  and  C_4 
REMARK    4  A    between atoms: N_13  and  C_16 
ROOT
HETATM    1  C   UNL     1     -41.326  54.829 -50.295  1.00  0.00     0.162 C 
HETATM    2  C   UNL     1     -42.728  54.362 -50.770  1.00  0.00     0.061 C 
HETATM    3  C   UNL     1     -43.594  55.482 -51.352  1.00  0.00     0.125 C 
HETATM    4  N   UNL     1     -42.839  56.169 -52.405  1.00  0.00    -0.380 N 
HETATM    5  C   UNL     1     -41.597  56.798 -51.920  1.00  0.00     0.125 C 
HETATM    6  C   UNL     1     -40.672  55.707 -51.385  1.00  0.00     0.061 C 
ENDROOT
BRANCH   1   7
HETATM    7  N   UNL     1     -41.464  55.606 -49.048  1.00  0.00     0.088 N 
HETATM    8  H   UNL     1     -40.843  55.236 -48.328  1.00  0.00     0.313 HD
HETATM    9  H   UNL     1     -42.407  55.566 -48.672  1.00  0.00     0.313 HD
ENDBRANCH   1   7
BRANCH   1  10
HETATM   10  C   UNL     1     -40.466  53.549 -50.024  1.00  0.00     0.079 C 
BRANCH  10  11
HETATM   11  C   UNL     1     -40.237  52.616 -51.195  1.00  0.00    -0.056 A 
HETATM   12  C   UNL     1     -40.425  53.057 -52.512  1.00  0.00     0.009 A 
HETATM   13  C   UNL     1     -40.203  52.195 -53.587  1.00  0.00     0.024 A 
HETATM   14  C   UNL     1     -39.794  50.885 -53.353  1.00  0.00     0.034 A 
HETATM   15 CL   UNL     1     -39.522  49.821 -54.678  1.00  0.00    -0.084 Cl
HETATM   16  C   UNL     1     -39.603  50.430 -52.051  1.00  0.00     0.024 A 
HETATM   17  C   UNL     1     -39.822  51.293 -50.975  1.00  0.00     0.009 A 
ENDBRANCH  10  11
ENDBRANCH   1  10
BRANCH   4  18
HETATM   18  C   UNL     1     -43.497  56.829 -53.434  1.00  0.00     0.045 A 
HETATM   19  C   UNL     1     -44.406  57.881 -53.207  1.00  0.00     0.047 A 
HETATM   20  C   UNL     1     -45.086  58.505 -54.249  1.00  0.00     0.092 A 
HETATM   21  N   UNL     1     -44.905  58.124 -55.516  1.00  0.00    -0.351 N 
HETATM   22  H   UNL     1     -45.410  58.582 -56.272  1.00  0.00     0.166 HD
HETATM   23  C   UNL     1     -44.045  57.107 -55.774  1.00  0.00     0.117 A 
HETATM   24  N   UNL     1     -43.741  56.568 -56.997  1.00  0.00    -0.352 N 
HETATM   25  C   UNL     1     -43.333  56.437 -54.789  1.00  0.00     0.036 A 
HETATM   26  H   UNL     1     -44.105  56.853 -57.898  1.00  0.00     0.166 HD
HETATM   27  C   UNL     1     -42.855  55.536 -56.820  1.00  0.00     0.090 A 
HETATM   28  C   UNL     1     -42.596  55.425 -55.470  1.00  0.00     0.034 A 
ENDBRANCH   4  18
TORSDOF 4
ENDMDL
MODEL 6
REMARK VINA RESULT:      -8.0      2.675      4.872
REMARK  4 active torsions:
REMARK  status: ('A' for Active; 'I' for Inactive)
REMARK    1  A    between atoms: N_1  and  C_2 
REMARK    2  A    between atoms: C_2  and  C_3 
REMARK    3  A    between atoms: C_3  and  C_4 
REMARK    4  A    between atoms: N_13  and  C_16 
ROOT
HETATM    1  C   UNL     1     -42.154  56.079 -51.748  1.00  0.00     0.162 C 
HETATM    2  C   UNL     1     -43.459  56.215 -52.578  1.00  0.00     0.061 C 
HETATM    3  C   UNL     1     -43.514  57.472 -53.450  1.00  0.00     0.125 C 
HETATM    4  N   UNL     1     -42.307  57.529 -54.281  1.00  0.00    -0.380 N 
HETATM    5  C   UNL     1     -41.061  57.608 -53.498  1.00  0.00     0.125 C 
HETATM    6  C   UNL     1     -40.930  56.342 -52.655  1.00  0.00     0.061 C 
ENDROOT
BRANCH   1   7
HETATM    7  N   UNL     1     -42.171  57.056 -50.642  1.00  0.00     0.088 N 
HETATM    8  H   UNL     1     -41.361  56.922 -50.037  1.00  0.00     0.313 HD
HETATM    9  H   UNL     1     -42.995  56.959 -50.057  1.00  0.00     0.313 HD
ENDBRANCH   1   7
BRANCH   1  10
HETATM   10  C   UNL     1     -42.110  54.626 -51.166  1.00  0.00     0.079 C 
BRANCH  10  11
HETATM   11  C   UNL     1     -41.388  53.579 -51.987  1.00  0.00    -0.056 A 
HETATM   12  C   UNL     1     -41.722  53.367 -53.333  1.00  0.00     0.009 A 
HETATM   13  C   UNL     1     -41.045  52.407 -54.088  1.00  0.00     0.024 A 
HETATM   14  C   UNL     1     -40.034  51.651 -53.503  1.00  0.00     0.034 A 
HETATM   15 CL   UNL     1     -39.202  50.466 -54.433  1.00  0.00    -0.084 Cl
HETATM   16  C   UNL     1     -39.691  51.848 -52.168  1.00  0.00     0.024 A 
HETATM   17  C   UNL     1     -40.364  52.811 -51.413  1.00  0.00     0.009 A 
ENDBRANCH  10  11
ENDBRANCH   1  10
BRANCH   4  18
HETATM   18  C   UNL     1     -42.312  58.205 -55.493  1.00  0.00     0.045 A 
HETATM   19  C   UNL     1     -42.121  59.598 -55.590  1.00  0.00     0.047 A 
HETATM   20  C   UNL     1     -42.168  60.264 -56.811  1.00  0.00     0.092 A 
HETATM   21  N   UNL     1     -42.402  59.604 -57.948  1.00  0.00    -0.351 N 
HETATM   22  H   UNL     1     -42.440  60.100 -58.836  1.00  0.00     0.166 HD
HETATM   23  C   UNL     1     -42.601  58.264 -57.894  1.00  0.00     0.117 A 
HETATM   24  N   UNL     1     -42.870  57.423 -58.942  1.00  0.00    -0.352 N 
HETATM   25  C   UNL     1     -42.571  57.532 -56.716  1.00  0.00     0.036 A 
HETATM   26  H   UNL     1     -42.950  57.671 -59.921  1.00  0.00     0.166 HD
HETATM   27  C   UNL     1     -43.038  56.150 -58.458  1.00  0.00     0.090 A 
HETATM   28  C   UNL     1     -42.872  56.190 -57.090  1.00  0.00     0.034 A 
ENDBRANCH   4  18
TORSDOF 4
ENDMDL
MODEL 7
REMARK VINA RESULT:      -7.9      3.616      5.457
REMARK  4 active torsions:
REMARK  status: ('A' for Active; 'I' for Inactive)
REMARK    1  A    between atoms: N_1  and  C_2 
REMARK    2  A    between atoms: C_2  and  C_3 
REMARK    3  A    between atoms: C_3  and  C_4 
REMARK    4  A    between atoms: N_13  and  C_16 
ROOT
HETATM    1  C   UNL     1     -42.221  55.485 -54.416  1.00  0.00     0.162 C 
HETATM    2  C   UNL     1     -41.829  54.861 -55.782  1.00  0.00     0.061 C 
HETATM    3  C   UNL     1     -42.852  55.104 -56.894  1.00  0.00     0.125 C 
HETATM    4  N   UNL     1     -43.124  56.542 -56.986  1.00  0.00    -0.380 N 
HETATM    5  C   UNL     1     -43.694  57.109 -55.751  1.00  0.00     0.125 C 
HETATM    6  C   UNL     1     -42.679  56.946 -54.622  1.00  0.00     0.061 C 
ENDROOT
BRANCH   1   7
HETATM    7  N   UNL     1     -43.318  54.701 -53.815  1.00  0.00     0.088 N 
HETATM    8  H   UNL     1     -43.443  54.956 -52.835  1.00  0.00     0.313 HD
HETATM    9  H   UNL     1     -43.135  53.702 -53.838  1.00  0.00     0.313 HD
ENDBRANCH   1   7
BRANCH   1  10
HETATM   10  C   UNL     1     -40.963  55.424 -53.487  1.00  0.00     0.079 C 
BRANCH  10  11
HETATM   11  C   UNL     1     -40.586  54.067 -52.929  1.00  0.00    -0.056 A 
HETATM   12  C   UNL     1     -40.214  53.019 -53.783  1.00  0.00     0.009 A 
HETATM   13  C   UNL     1     -39.857  51.773 -53.263  1.00  0.00     0.024 A 
HETATM   14  C   UNL     1     -39.872  51.567 -51.886  1.00  0.00     0.034 A 
HETATM   15 CL   UNL     1     -39.435  50.031 -51.244  1.00  0.00    -0.084 Cl
HETATM   16  C   UNL     1     -40.240  52.597 -51.024  1.00  0.00     0.024 A 
HETATM   17  C   UNL     1     -40.593  53.844 -51.544  1.00  0.00     0.009 A 
ENDBRANCH  10  11
ENDBRANCH   1  10
BRANCH   4  18
HETATM   18  C   UNL     1     -43.560  57.107 -58.177  1.00  0.00     0.045 A 
HETATM   19  C   UNL     1     -44.515  56.490 -59.009  1.00  0.00     0.047 A 
HETATM   20  C   UNL     1     -44.911  57.052 -60.219  1.00  0.00     0.092 A 
HETATM   21  N   UNL     1     -44.393  58.208 -60.643  1.00  0.00    -0.351 N 
HETATM   22  H   UNL     1     -44.685  58.610 -61.532  1.00  0.00     0.166 HD
HETATM   23  C   UNL     1     -43.463  58.827 -59.875  1.00  0.00     0.117 A 
HETATM   24  N   UNL     1     -42.810  60.001 -60.147  1.00  0.00    -0.352 N 
HETATM   25  C   UNL     1     -43.018  58.327 -58.660  1.00  0.00     0.036 A 
HETATM   26  H   UNL     1     -42.929  60.592 -60.960  1.00  0.00     0.166 HD
HETATM   27  C   UNL     1     -41.924  60.262 -59.132  1.00  0.00     0.090 A 
HETATM   28  C   UNL     1     -42.023  59.243 -58.209  1.00  0.00     0.034 A 
ENDBRANCH   4  18
TORSDOF 4
ENDMDL
MODEL 8
REMARK VINA RESULT:      -7.9      3.892      6.409
REMARK  4 active torsions:
REMARK  status: ('A' for Active; 'I' for Inactive)
REMARK    1  A    between atoms: N_1  and  C_2 
REMARK    2  A    between atoms: C_2  and  C_3 
REMARK    3  A    between atoms: C_3  and  C_4 
REMARK    4  A    between atoms: N_13  and  C_16 
ROOT
HETATM    1  C   UNL     1     -42.741  55.498 -54.200  1.00  0.00     0.162 C 
HETATM    2  C   UNL     1     -44.085  56.234 -54.447  1.00  0.00     0.061 C 
HETATM    3  C   UNL     1     -44.028  57.276 -55.566  1.00  0.00     0.125 C 
HETATM    4  N   UNL     1     -43.497  56.646 -56.779  1.00  0.00    -0.380 N 
HETATM    5  C   UNL     1     -42.129  56.122 -56.615  1.00  0.00     0.125 C 
HETATM    6  C   UNL     1     -42.147  55.029 -55.548  1.00  0.00     0.061 C 
ENDROOT
BRANCH   1   7
HETATM    7  N   UNL     1     -41.795  56.415 -53.534  1.00  0.00     0.088 N 
HETATM    8  H   UNL     1     -40.954  55.913 -53.250  1.00  0.00     0.313 HD
HETATM    9  H   UNL     1     -42.188  56.829 -52.694  1.00  0.00     0.313 HD
ENDBRANCH   1   7
BRANCH   1  10
HETATM   10  C   UNL     1     -43.032  54.275 -53.268  1.00  0.00     0.079 C 
BRANCH  10  11
HETATM   11  C   UNL     1     -42.246  54.194 -51.976  1.00  0.00    -0.056 A 
HETATM   12  C   UNL     1     -41.001  53.551 -51.933  1.00  0.00     0.009 A 
HETATM   13  C   UNL     1     -40.275  53.489 -50.741  1.00  0.00     0.024 A 
HETATM   14  C   UNL     1     -40.791  54.067 -49.584  1.00  0.00     0.034 A 
HETATM   15 CL   UNL     1     -39.899  53.988 -48.115  1.00  0.00    -0.084 Cl
HETATM   16  C   UNL     1     -42.027  54.708 -49.609  1.00  0.00     0.024 A 
HETATM   17  C   UNL     1     -42.751  54.774 -50.802  1.00  0.00     0.009 A 
ENDBRANCH  10  11
ENDBRANCH   1  10
BRANCH   4  18
HETATM   18  C   UNL     1     -43.814  57.145 -58.035  1.00  0.00     0.045 A 
HETATM   19  C   UNL     1     -43.832  58.523 -58.326  1.00  0.00     0.047 A 
HETATM   20  C   UNL     1     -44.191  59.006 -59.581  1.00  0.00     0.092 A 
HETATM   21  N   UNL     1     -44.540  58.175 -60.566  1.00  0.00    -0.351 N 
HETATM   22  H   UNL     1     -44.805  58.537 -61.480  1.00  0.00     0.166 HD
HETATM   23  C   UNL     1     -44.545  56.841 -60.321  1.00  0.00     0.117 A 
HETATM   24  N   UNL     1     -44.886  55.839 -61.192  1.00  0.00    -0.352 N 
HETATM   25  C   UNL     1     -44.202  56.285 -59.097  1.00  0.00     0.036 A 
HETATM   26  H   UNL     1     -45.178  55.941 -62.157  1.00  0.00     0.166 HD
HETATM   27  C   UNL     1     -44.792  54.634 -60.542  1.00  0.00     0.090 A 
HETATM   28  C   UNL     1     -44.384  54.880 -59.249  1.00  0.00     0.034 A 
ENDBRANCH   4  18
TORSDOF 4
ENDMDL
MODEL 9
REMARK VINA RESULT:      -7.8      2.735      4.874
REMARK  4 active torsions:
REMARK  status: ('A' for Active; 'I' for Inactive)
REMARK    1  A    between atoms: N_1  and  C_2 
REMARK    2  A    between atoms: C_2  and  C_3 
REMARK    3  A    between atoms: C_3  and  C_4 
REMARK    4  A    between atoms: N_13  and  C_16 
ROOT
HETATM    1  C   UNL     1     -41.849  55.835 -52.357  1.00  0.00     0.162 C 
HETATM    2  C   UNL     1     -43.071  55.071 -52.934  1.00  0.00     0.061 C 
HETATM    3  C   UNL     1     -43.854  55.854 -53.991  1.00  0.00     0.125 C 
HETATM    4  N   UNL     1     -42.927  56.306 -55.033  1.00  0.00    -0.380 N 
HETATM    5  C   UNL     1     -41.874  57.206 -54.528  1.00  0.00     0.125 C 
HETATM    6  C   UNL     1     -41.024  56.446 -53.513  1.00  0.00     0.061 C 
ENDROOT
BRANCH   1   7
HETATM    7  N   UNL     1     -42.320  56.910 -51.462  1.00  0.00     0.088 N 
HETATM    8  H   UNL     1     -41.920  56.797 -50.531  1.00  0.00     0.313 HD
HETATM    9  H   UNL     1     -43.330  56.903 -51.352  1.00  0.00     0.313 HD
ENDBRANCH   1   7
BRANCH   1  10
HETATM   10  C   UNL     1     -40.989  54.812 -51.543  1.00  0.00     0.079 C 
BRANCH  10  11
HETATM   11  C   UNL     1     -40.554  53.553 -52.264  1.00  0.00    -0.056 A 
HETATM   12  C   UNL     1     -40.743  53.417 -53.647  1.00  0.00     0.009 A 
HETATM   13  C   UNL     1     -40.330  52.259 -54.308  1.00  0.00     0.024 A 
HETATM   14  C   UNL     1     -39.728  51.228 -53.592  1.00  0.00     0.034 A 
HETATM   15 CL   UNL     1     -39.221  49.800 -54.406  1.00  0.00    -0.084 Cl
HETATM   16  C   UNL     1     -39.533  51.347 -52.218  1.00  0.00     0.024 A 
HETATM   17  C   UNL     1     -39.942  52.507 -51.557  1.00  0.00     0.009 A 
ENDBRANCH  10  11
ENDBRANCH   1  10
BRANCH   4  18
HETATM   18  C   UNL     1     -43.375  56.552 -56.323  1.00  0.00     0.045 A 
HETATM   19  C   UNL     1     -42.965  55.786 -57.433  1.00  0.00     0.047 A 
HETATM   20  C   UNL     1     -43.396  56.073 -58.724  1.00  0.00     0.092 A 
HETATM   21  N   UNL     1     -44.218  57.096 -58.966  1.00  0.00    -0.351 N 
HETATM   22  H   UNL     1     -44.525  57.302 -59.915  1.00  0.00     0.166 HD
HETATM   23  C   UNL     1     -44.627  57.864 -57.925  1.00  0.00     0.117 A 
HETATM   24  N   UNL     1     -45.450  58.958 -57.974  1.00  0.00    -0.352 N 
HETATM   25  C   UNL     1     -44.240  57.641 -56.611  1.00  0.00     0.036 A 
HETATM   26  H   UNL     1     -45.888  59.357 -58.795  1.00  0.00     0.166 HD
HETATM   27  C   UNL     1     -45.587  59.469 -56.708  1.00  0.00     0.090 A 
HETATM   28  C   UNL     1     -44.843  58.685 -55.851  1.00  0.00     0.034 A 
ENDBRANCH   4  18
TORSDOF 4
ENDMDL
MODEL 10
REMARK VINA RESULT:      -7.8     15.202     17.361
REMARK  4 active torsions:
REMARK  status: ('A' for Active; 'I' for Inactive)
REMARK    1  A    between atoms: N_1  and  C_2 
REMARK    2  A    between atoms: C_2  and  C_3 
REMARK    3  A    between atoms: C_3  and  C_4 
REMARK    4  A    between atoms: N_13  and  C_16 
ROOT
HETATM    1  C   UNL     1     -36.267  41.762 -55.331  1.00  0.00     0.162 C 
HETATM    2  C   UNL     1     -35.522  42.541 -54.216  1.00  0.00     0.061 C 
HETATM    3  C   UNL     1     -35.847  42.065 -52.798  1.00  0.00     0.125 C 
HETATM    4  N   UNL     1     -35.627  40.617 -52.720  1.00  0.00    -0.380 N 
HETATM    5  C   UNL     1     -36.485  39.845 -53.637  1.00  0.00     0.125 C 
HETATM    6  C   UNL     1     -36.150  40.242 -55.072  1.00  0.00     0.061 C 
ENDROOT
BRANCH   1   7
HETATM    7  N   UNL     1     -37.690  42.156 -55.339  1.00  0.00     0.088 N 
HETATM    8  H   UNL     1     -38.219  41.589 -54.677  1.00  0.00     0.313 HD
HETATM    9  H   UNL     1     -38.120  42.025 -56.250  1.00  0.00     0.313 HD
ENDBRANCH   1   7
BRANCH   1  10
HETATM   10  C   UNL     1     -35.609  42.143 -56.699  1.00  0.00     0.079 C 
BRANCH  10  11
HETATM   11  C   UNL     1     -36.155  41.462 -57.937  1.00  0.00    -0.056 A 
HETATM   12  C   UNL     1     -36.963  42.163 -58.844  1.00  0.00     0.009 A 
HETATM   13  C   UNL     1     -37.455  41.533 -59.988  1.00  0.00     0.024 A 
HETATM   14  C   UNL     1     -37.144  40.198 -60.234  1.00  0.00     0.034 A 
HETATM   15 CL   UNL     1     -37.752  39.421 -61.643  1.00  0.00    -0.084 Cl
HETATM   16  C   UNL     1     -36.343  39.488 -59.343  1.00  0.00     0.024 A 
HETATM   17  C   UNL     1     -35.848  40.118 -58.200  1.00  0.00     0.009 A 
ENDBRANCH  10  11
ENDBRANCH   1  10
BRANCH   4  18
HETATM   18  C   UNL     1     -35.324  40.010 -51.509  1.00  0.00     0.045 A 
HETATM   19  C   UNL     1     -36.313  39.513 -50.636  1.00  0.00     0.047 A 
HETATM   20  C   UNL     1     -35.992  38.942 -49.408  1.00  0.00     0.092 A 
HETATM   21  N   UNL     1     -34.723  38.847 -49.003  1.00  0.00    -0.351 N 
HETATM   22  H   UNL     1     -34.497  38.432 -48.101  1.00  0.00     0.166 HD
HETATM   23  C   UNL     1     -33.743  39.324 -49.811  1.00  0.00     0.117 A 
HETATM   24  N   UNL     1     -32.395  39.331 -49.565  1.00  0.00    -0.352 N 
HETATM   25  C   UNL     1     -33.986  39.906 -51.047  1.00  0.00     0.036 A 
HETATM   26  H   UNL     1     -31.922  38.971 -48.745  1.00  0.00     0.166 HD
HETATM   27  C   UNL     1     -31.755  39.934 -50.617  1.00  0.00     0.090 A 
HETATM   28  C   UNL     1     -32.710  40.308 -51.538  1.00  0.00     0.034 A 
ENDBRANCH   4  18
TORSDOF 4
ENDMDL
