MODEL 1
REMARK VINA RESULT:      -9.5      0.000      0.000
REMARK  9 active torsions:
REMARK  status: ('A' for Active; 'I' for Inactive)
REMARK    1  A    between atoms: C_2  and  N_3 
REMARK    2  A    between atoms: C_2  and  C_11 
REMARK    3  A    between atoms: N_3  and  C_4 
REMARK    4  A    between atoms: N_12  and  C_13 
REMARK    5  A    between atoms: C_19  and  S_20 
REMARK    6  A    between atoms: S_20  and  C_21 
REMARK    7  A    between atoms: C_21  and  C_22 
REMARK       I    between atoms: C_22  and  N_23 
REMARK    8  A    between atoms: N_23  and  C_24 
REMARK    9  A    between atoms: C_26  and  N_27 
REMARK       I    between atoms: N_27  and  C_28 
ROOT
HETATM    1  C   UNL     1     -43.097  56.131 -50.793  1.00  0.00     0.158 A 
HETATM    2  N   UNL     1     -42.850  57.474 -51.076  1.00  0.00    -0.274 N 
HETATM    3  C   UNL     1     -44.101  58.063 -50.985  1.00  0.00     0.196 A 
HETATM    4  N   UNL     1     -45.022  57.146 -50.784  1.00  0.00    -0.122 NA
HETATM    5  N   UNL     1     -44.399  55.940 -50.672  1.00  0.00    -0.131 NA
ENDROOT
BRANCH   3   6
HETATM    6  S   UNL     1     -44.462  59.732 -51.292  1.00  0.00    -0.080 SA
BRANCH   6   7
HETATM    7  C   UNL     1     -45.298  59.635 -52.902  1.00  0.00     0.185 C 
BRANCH   7   8
HETATM    8  C   UNL     1     -44.429  58.895 -53.907  1.00  0.00     0.231 C 
HETATM    9  N   UNL     1     -44.715  57.541 -53.986  1.00  0.00    -0.326 N 
HETATM   10  H   UNL     1     -45.412  57.190 -53.329  1.00  0.00     0.169 HD
HETATM   11  O   UNL     1     -43.572  59.494 -54.552  1.00  0.00    -0.272 OA
BRANCH   9  12
HETATM   12  C   UNL     1     -44.078  56.569 -54.785  1.00  0.00     0.036 A 
HETATM   13  C   UNL     1     -43.624  56.982 -56.051  1.00  0.00     0.059 A 
HETATM   14  C   UNL     1     -42.990  56.090 -56.920  1.00  0.00     0.036 A 
HETATM   15  C   UNL     1     -42.834  54.760 -56.511  1.00  0.00     0.029 A 
HETATM   16  C   UNL     1     -43.275  54.340 -55.256  1.00  0.00     0.004 A 
HETATM   17  C   UNL     1     -43.891  55.244 -54.393  1.00  0.00     0.029 A 
BRANCH  14  18
HETATM   18  N   UNL     1     -42.513  56.399 -58.207  1.00  0.00    -0.327 N 
HETATM   19  C   UNL     1     -42.855  56.008 -59.465  1.00  0.00     0.218 C 
HETATM   20  C   UNL     1     -44.060  55.157 -59.733  1.00  0.00     0.117 C 
HETATM   21  O   UNL     1     -42.151  56.399 -60.403  1.00  0.00    -0.274 OA
HETATM   22  H   UNL     1     -41.744  57.059 -58.246  1.00  0.00     0.169 HD
ENDBRANCH  14  18
ENDBRANCH   9  12
ENDBRANCH   7   8
ENDBRANCH   6   7
ENDBRANCH   3   6
BRANCH   2  23
HETATM   23  C   UNL     1     -41.607  58.075 -51.407  1.00  0.00     0.043 A 
HETATM   24  C   UNL     1     -40.846  58.694 -50.405  1.00  0.00     0.030 A 
HETATM   25  C   UNL     1     -39.612  59.266 -50.718  1.00  0.00     0.002 A 
HETATM   26  C   UNL     1     -39.132  59.221 -52.025  1.00  0.00     0.000 A 
HETATM   27  C   UNL     1     -39.884  58.604 -53.023  1.00  0.00     0.002 A 
HETATM   28  C   UNL     1     -41.120  58.028 -52.718  1.00  0.00     0.030 A 
ENDBRANCH   2  23
BRANCH   1  29
HETATM   29  C   UNL     1     -42.026  55.118 -50.457  1.00  0.00     0.150 C 
HETATM   30  C   UNL     1     -41.363  55.465 -49.116  1.00  0.00     0.040 C 
BRANCH  29  31
HETATM   31  N   UNL     1     -40.995  55.066 -51.502  1.00  0.00    -0.379 N 
HETATM   32  H   UNL     1     -40.166  55.593 -51.234  1.00  0.00     0.160 HD
BRANCH  31  33
HETATM   33  C   UNL     1     -40.678  53.900 -52.196  1.00  0.00     0.028 A 
HETATM   34  C   UNL     1     -40.564  53.824 -53.589  1.00  0.00     0.030 A 
HETATM   35  C   UNL     1     -40.175  52.637 -54.224  1.00  0.00     0.021 A 
HETATM   36  C   UNL     1     -39.865  51.514 -53.465  1.00  0.00     0.011 A 
HETATM   37 BR   UNL     1     -39.341  49.913 -54.318  1.00  0.00    -0.051 Br
HETATM   38  C   UNL     1     -39.926  51.573 -52.078  1.00  0.00     0.021 A 
HETATM   39  C   UNL     1     -40.316  52.764 -51.455  1.00  0.00     0.030 A 
ENDBRANCH  31  33
ENDBRANCH  29  31
ENDBRANCH   1  29
TORSDOF 9
ENDMDL
MODEL 2
REMARK VINA RESULT:      -8.9      1.856      2.862
REMARK  9 active torsions:
REMARK  status: ('A' for Active; 'I' for Inactive)
REMARK    1  A    between atoms: C_2  and  N_3 
REMARK    2  A    between atoms: C_2  and  C_11 
REMARK    3  A    between atoms: N_3  and  C_4 
REMARK    4  A    between atoms: N_12  and  C_13 
REMARK    5  A    between atoms: C_19  and  S_20 
REMARK    6  A    between atoms: S_20  and  C_21 
REMARK    7  A    between atoms: C_21  and  C_22 
REMARK       I    between atoms: C_22  and  N_23 
REMARK    8  A    between atoms: N_23  and  C_24 
REMARK    9  A    between atoms: C_26  and  N_27 
REMARK       I    between atoms: N_27  and  C_28 
ROOT
HETATM    1  C   UNL     1     -43.559  57.178 -53.270  1.00  0.00     0.158 A 
HETATM    2  N   UNL     1     -43.000  58.432 -53.025  1.00  0.00    -0.274 N 
HETATM    3  C   UNL     1     -43.893  59.309 -53.618  1.00  0.00     0.196 A 
HETATM    4  N   UNL     1     -44.832  58.643 -54.254  1.00  0.00    -0.122 NA
HETATM    5  N   UNL     1     -44.621  57.314 -54.046  1.00  0.00    -0.131 NA
ENDROOT
BRANCH   3   6
HETATM    6  S   UNL     1     -43.718  61.034 -53.703  1.00  0.00    -0.080 SA
BRANCH   6   7
HETATM    7  C   UNL     1     -43.909  61.333 -55.484  1.00  0.00     0.185 C 
BRANCH   7   8
HETATM    8  C   UNL     1     -43.036  60.376 -56.280  1.00  0.00     0.231 C 
HETATM    9  N   UNL     1     -43.735  59.670 -57.246  1.00  0.00    -0.326 N 
HETATM   10  H   UNL     1     -44.745  59.819 -57.268  1.00  0.00     0.169 HD
HETATM   11  O   UNL     1     -41.835  60.281 -56.039  1.00  0.00    -0.272 OA
BRANCH   9  12
HETATM   12  C   UNL     1     -43.239  58.686 -58.126  1.00  0.00     0.036 A 
HETATM   13  C   UNL     1     -43.794  57.398 -58.021  1.00  0.00     0.059 A 
HETATM   14  C   UNL     1     -43.361  56.353 -58.842  1.00  0.00     0.036 A 
HETATM   15  C   UNL     1     -42.338  56.611 -59.763  1.00  0.00     0.029 A 
HETATM   16  C   UNL     1     -41.784  57.885 -59.880  1.00  0.00     0.004 A 
HETATM   17  C   UNL     1     -42.237  58.922 -59.067  1.00  0.00     0.029 A 
BRANCH  14  18
HETATM   18  N   UNL     1     -43.841  55.031 -58.807  1.00  0.00    -0.327 N 
HETATM   19  C   UNL     1     -44.615  54.280 -59.637  1.00  0.00     0.218 C 
HETATM   20  C   UNL     1     -45.038  54.770 -60.989  1.00  0.00     0.117 C 
HETATM   21  O   UNL     1     -44.947  53.152 -59.255  1.00  0.00    -0.274 OA
HETATM   22  H   UNL     1     -43.569  54.484 -57.998  1.00  0.00     0.169 HD
ENDBRANCH  14  18
ENDBRANCH   9  12
ENDBRANCH   7   8
ENDBRANCH   6   7
ENDBRANCH   3   6
BRANCH   2  23
HETATM   23  C   UNL     1     -41.785  58.721 -52.351  1.00  0.00     0.043 A 
HETATM   24  C   UNL     1     -41.801  58.993 -50.976  1.00  0.00     0.030 A 
HETATM   25  C   UNL     1     -40.607  59.255 -50.301  1.00  0.00     0.002 A 
HETATM   26  C   UNL     1     -39.397  59.244 -50.992  1.00  0.00     0.000 A 
HETATM   27  C   UNL     1     -39.377  58.970 -52.358  1.00  0.00     0.002 A 
HETATM   28  C   UNL     1     -40.567  58.706 -53.040  1.00  0.00     0.030 A 
ENDBRANCH   2  23
BRANCH   1  29
HETATM   29  C   UNL     1     -43.144  55.904 -52.569  1.00  0.00     0.150 C 
HETATM   30  C   UNL     1     -43.523  55.963 -51.081  1.00  0.00     0.040 C 
BRANCH  29  31
HETATM   31  N   UNL     1     -41.696  55.681 -52.685  1.00  0.00    -0.379 N 
HETATM   32  H   UNL     1     -41.183  56.179 -51.960  1.00  0.00     0.160 HD
BRANCH  31  33
HETATM   33  C   UNL     1     -41.142  54.434 -52.962  1.00  0.00     0.028 A 
HETATM   34  C   UNL     1     -40.488  53.638 -52.014  1.00  0.00     0.030 A 
HETATM   35  C   UNL     1     -40.011  52.361 -52.339  1.00  0.00     0.021 A 
HETATM   36  C   UNL     1     -40.212  51.850 -53.617  1.00  0.00     0.011 A 
HETATM   37 BR   UNL     1     -39.570  50.130 -54.057  1.00  0.00    -0.051 Br
HETATM   38  C   UNL     1     -40.898  52.599 -54.565  1.00  0.00     0.021 A 
HETATM   39  C   UNL     1     -41.369  53.873 -54.230  1.00  0.00     0.030 A 
ENDBRANCH  31  33
ENDBRANCH  29  31
ENDBRANCH   1  29
TORSDOF 9
ENDMDL
MODEL 3
REMARK VINA RESULT:      -8.8      3.851      7.204
REMARK  9 active torsions:
REMARK  status: ('A' for Active; 'I' for Inactive)
REMARK    1  A    between atoms: C_2  and  N_3 
REMARK    2  A    between atoms: C_2  and  C_11 
REMARK    3  A    between atoms: N_3  and  C_4 
REMARK    4  A    between atoms: N_12  and  C_13 
REMARK    5  A    between atoms: C_19  and  S_20 
REMARK    6  A    between atoms: S_20  and  C_21 
REMARK    7  A    between atoms: C_21  and  C_22 
REMARK       I    between atoms: C_22  and  N_23 
REMARK    8  A    between atoms: N_23  and  C_24 
REMARK    9  A    between atoms: C_26  and  N_27 
REMARK       I    between atoms: N_27  and  C_28 
ROOT
HETATM    1  C   UNL     1     -43.533  57.138 -52.912  1.00  0.00     0.158 A 
HETATM    2  N   UNL     1     -43.015  58.410 -52.670  1.00  0.00    -0.274 N 
HETATM    3  C   UNL     1     -43.929  59.256 -53.279  1.00  0.00     0.196 A 
HETATM    4  N   UNL     1     -44.839  58.557 -53.922  1.00  0.00    -0.122 NA
HETATM    5  N   UNL     1     -44.589  57.236 -53.702  1.00  0.00    -0.131 NA
ENDROOT
BRANCH   3   6
HETATM    6  S   UNL     1     -43.805  60.984 -53.375  1.00  0.00    -0.080 SA
BRANCH   6   7
HETATM    7  C   UNL     1     -45.178  61.508 -52.307  1.00  0.00     0.185 C 
BRANCH   7   8
HETATM    8  C   UNL     1     -44.666  61.858 -50.918  1.00  0.00     0.231 C 
HETATM    9  N   UNL     1     -45.613  61.674 -49.923  1.00  0.00    -0.326 N 
HETATM   10  H   UNL     1     -46.544  61.397 -50.235  1.00  0.00     0.169 HD
HETATM   11  O   UNL     1     -43.517  62.261 -50.761  1.00  0.00    -0.272 OA
BRANCH   9  12
HETATM   12  C   UNL     1     -45.477  61.934 -48.543  1.00  0.00     0.036 A 
HETATM   13  C   UNL     1     -45.501  60.823 -47.680  1.00  0.00     0.059 A 
HETATM   14  C   UNL     1     -45.384  60.979 -46.296  1.00  0.00     0.036 A 
HETATM   15  C   UNL     1     -45.264  62.275 -45.780  1.00  0.00     0.029 A 
HETATM   16  C   UNL     1     -45.234  63.383 -46.626  1.00  0.00     0.004 A 
HETATM   17  C   UNL     1     -45.334  63.212 -48.005  1.00  0.00     0.029 A 
BRANCH  14  18
HETATM   18  N   UNL     1     -45.409  59.938 -45.350  1.00  0.00    -0.327 N 
HETATM   19  C   UNL     1     -46.362  59.061 -44.928  1.00  0.00     0.218 C 
HETATM   20  C   UNL     1     -47.701  58.961 -45.596  1.00  0.00     0.117 C 
HETATM   21  O   UNL     1     -46.084  58.317 -43.982  1.00  0.00    -0.274 OA
HETATM   22  H   UNL     1     -44.542  59.773 -44.852  1.00  0.00     0.169 HD
ENDBRANCH  14  18
ENDBRANCH   9  12
ENDBRANCH   7   8
ENDBRANCH   6   7
ENDBRANCH   3   6
BRANCH   2  23
HETATM   23  C   UNL     1     -41.818  58.741 -51.985  1.00  0.00     0.043 A 
HETATM   24  C   UNL     1     -40.597  58.735 -52.675  1.00  0.00     0.030 A 
HETATM   25  C   UNL     1     -39.418  59.082 -52.014  1.00  0.00     0.002 A 
HETATM   26  C   UNL     1     -39.451  59.439 -50.668  1.00  0.00     0.000 A 
HETATM   27  C   UNL     1     -40.663  59.450 -49.979  1.00  0.00     0.002 A 
HETATM   28  C   UNL     1     -41.847  59.105 -50.634  1.00  0.00     0.030 A 
ENDBRANCH   2  23
BRANCH   1  29
HETATM   29  C   UNL     1     -43.086  55.883 -52.198  1.00  0.00     0.150 C 
HETATM   30  C   UNL     1     -43.361  55.998 -50.691  1.00  0.00     0.040 C 
BRANCH  29  31
HETATM   31  N   UNL     1     -41.653  55.635 -52.404  1.00  0.00    -0.379 N 
HETATM   32  H   UNL     1     -41.090  56.067 -51.674  1.00  0.00     0.160 HD
BRANCH  31  33
HETATM   33  C   UNL     1     -41.148  54.397 -52.797  1.00  0.00     0.028 A 
HETATM   34  C   UNL     1     -40.400  53.556 -51.964  1.00  0.00     0.030 A 
HETATM   35  C   UNL     1     -39.977  52.292 -52.396  1.00  0.00     0.021 A 
HETATM   36  C   UNL     1     -40.326  51.840 -53.664  1.00  0.00     0.011 A 
HETATM   37 BR   UNL     1     -39.757  50.137 -54.248  1.00  0.00    -0.051 Br
HETATM   38  C   UNL     1     -41.106  52.634 -54.495  1.00  0.00     0.021 A 
HETATM   39  C   UNL     1     -41.522  53.895 -54.053  1.00  0.00     0.030 A 
ENDBRANCH  31  33
ENDBRANCH  29  31
ENDBRANCH   1  29
TORSDOF 9
ENDMDL
MODEL 4
REMARK VINA RESULT:      -8.6      1.985      3.490
REMARK  9 active torsions:
REMARK  status: ('A' for Active; 'I' for Inactive)
REMARK    1  A    between atoms: C_2  and  N_3 
REMARK    2  A    between atoms: C_2  and  C_11 
REMARK    3  A    between atoms: N_3  and  C_4 
REMARK    4  A    between atoms: N_12  and  C_13 
REMARK    5  A    between atoms: C_19  and  S_20 
REMARK    6  A    between atoms: S_20  and  C_21 
REMARK    7  A    between atoms: C_21  and  C_22 
REMARK       I    between atoms: C_22  and  N_23 
REMARK    8  A    between atoms: N_23  and  C_24 
REMARK    9  A    between atoms: C_26  and  N_27 
REMARK       I    between atoms: N_27  and  C_28 
ROOT
HETATM    1  C   UNL     1     -41.468  56.543 -51.076  1.00  0.00     0.158 A 
HETATM    2  N   UNL     1     -41.666  56.963 -52.391  1.00  0.00    -0.274 N 
HETATM    3  C   UNL     1     -41.309  58.301 -52.363  1.00  0.00     0.196 A 
HETATM    4  N   UNL     1     -41.036  58.675 -51.132  1.00  0.00    -0.122 NA
HETATM    5  N   UNL     1     -41.143  57.582 -50.326  1.00  0.00    -0.131 NA
ENDROOT
BRANCH   3   6
HETATM    6  S   UNL     1     -41.396  59.404 -53.701  1.00  0.00    -0.080 SA
BRANCH   6   7
HETATM    7  C   UNL     1     -43.191  59.598 -53.898  1.00  0.00     0.185 C 
BRANCH   7   8
HETATM    8  C   UNL     1     -43.591  59.392 -55.352  1.00  0.00     0.231 C 
HETATM    9  N   UNL     1     -42.512  59.157 -56.189  1.00  0.00    -0.326 N 
HETATM   10  H   UNL     1     -41.588  59.214 -55.758  1.00  0.00     0.169 HD
HETATM   11  O   UNL     1     -44.771  59.446 -55.687  1.00  0.00    -0.272 OA
BRANCH   9  12
HETATM   12  C   UNL     1     -42.529  58.961 -57.585  1.00  0.00     0.036 A 
HETATM   13  C   UNL     1     -43.010  57.723 -58.049  1.00  0.00     0.059 A 
HETATM   14  C   UNL     1     -43.057  57.430 -59.415  1.00  0.00     0.036 A 
HETATM   15  C   UNL     1     -42.589  58.392 -60.318  1.00  0.00     0.029 A 
HETATM   16  C   UNL     1     -42.115  59.624 -59.870  1.00  0.00     0.004 A 
HETATM   17  C   UNL     1     -42.090  59.910 -58.507  1.00  0.00     0.029 A 
BRANCH  14  18
HETATM   18  N   UNL     1     -43.507  56.222 -59.978  1.00  0.00    -0.327 N 
HETATM   19  C   UNL     1     -44.724  55.750 -60.366  1.00  0.00     0.218 C 
HETATM   20  C   UNL     1     -45.945  56.618 -60.378  1.00  0.00     0.117 C 
HETATM   21  O   UNL     1     -44.795  54.574 -60.739  1.00  0.00    -0.274 OA
HETATM   22  H   UNL     1     -42.793  55.522 -60.150  1.00  0.00     0.169 HD
ENDBRANCH  14  18
ENDBRANCH   9  12
ENDBRANCH   7   8
ENDBRANCH   6   7
ENDBRANCH   3   6
BRANCH   2  23
HETATM   23  C   UNL     1     -42.149  56.195 -53.482  1.00  0.00     0.043 A 
HETATM   24  C   UNL     1     -41.373  56.071 -54.643  1.00  0.00     0.030 A 
HETATM   25  C   UNL     1     -41.831  55.298 -55.711  1.00  0.00     0.002 A 
HETATM   26  C   UNL     1     -43.059  54.645 -55.625  1.00  0.00     0.000 A 
HETATM   27  C   UNL     1     -43.832  54.763 -54.472  1.00  0.00     0.002 A 
HETATM   28  C   UNL     1     -43.380  55.534 -53.398  1.00  0.00     0.030 A 
ENDBRANCH   2  23
BRANCH   1  29
HETATM   29  C   UNL     1     -41.414  55.096 -50.640  1.00  0.00     0.150 C 
HETATM   30  C   UNL     1     -41.564  54.990 -49.115  1.00  0.00     0.040 C 
BRANCH  29  31
HETATM   31  N   UNL     1     -40.149  54.466 -51.041  1.00  0.00    -0.379 N 
HETATM   32  H   UNL     1     -39.501  54.399 -50.259  1.00  0.00     0.160 HD
BRANCH  31  33
HETATM   33  C   UNL     1     -40.089  53.351 -51.874  1.00  0.00     0.028 A 
HETATM   34  C   UNL     1     -40.332  53.387 -53.252  1.00  0.00     0.030 A 
HETATM   35  C   UNL     1     -40.189  52.242 -54.047  1.00  0.00     0.021 A 
HETATM   36  C   UNL     1     -39.769  51.048 -53.473  1.00  0.00     0.011 A 
HETATM   37 BR   UNL     1     -39.576  49.503 -54.543  1.00  0.00    -0.051 Br
HETATM   38  C   UNL     1     -39.476  50.993 -52.116  1.00  0.00     0.021 A 
HETATM   39  C   UNL     1     -39.624  52.142 -51.332  1.00  0.00     0.030 A 
ENDBRANCH  31  33
ENDBRANCH  29  31
ENDBRANCH   1  29
TORSDOF 9
ENDMDL
MODEL 5
REMARK VINA RESULT:      -8.5      3.568      7.054
REMARK  9 active torsions:
REMARK  status: ('A' for Active; 'I' for Inactive)
REMARK    1  A    between atoms: C_2  and  N_3 
REMARK    2  A    between atoms: C_2  and  C_11 
REMARK    3  A    between atoms: N_3  and  C_4 
REMARK    4  A    between atoms: N_12  and  C_13 
REMARK    5  A    between atoms: C_19  and  S_20 
REMARK    6  A    between atoms: S_20  and  C_21 
REMARK    7  A    between atoms: C_21  and  C_22 
REMARK       I    between atoms: C_22  and  N_23 
REMARK    8  A    between atoms: N_23  and  C_24 
REMARK    9  A    between atoms: C_26  and  N_27 
REMARK       I    between atoms: N_27  and  C_28 
ROOT
HETATM    1  C   UNL     1     -42.103  56.299 -55.466  1.00  0.00     0.158 A 
HETATM    2  N   UNL     1     -42.542  57.025 -54.359  1.00  0.00    -0.274 N 
HETATM    3  C   UNL     1     -43.108  58.160 -54.917  1.00  0.00     0.196 A 
HETATM    4  N   UNL     1     -42.922  58.169 -56.219  1.00  0.00    -0.122 NA
HETATM    5  N   UNL     1     -42.288  57.014 -56.563  1.00  0.00    -0.131 NA
ENDROOT
BRANCH   3   6
HETATM    6  S   UNL     1     -43.787  59.494 -54.037  1.00  0.00    -0.080 SA
BRANCH   6   7
HETATM    7  C   UNL     1     -42.292  60.354 -53.467  1.00  0.00     0.185 C 
BRANCH   7   8
HETATM    8  C   UNL     1     -42.448  60.783 -52.015  1.00  0.00     0.231 C 
HETATM    9  N   UNL     1     -43.388  61.785 -51.838  1.00  0.00    -0.326 N 
HETATM   10  H   UNL     1     -43.810  62.160 -52.688  1.00  0.00     0.169 HD
HETATM   11  O   UNL     1     -41.774  60.255 -51.134  1.00  0.00    -0.272 OA
BRANCH   9  12
HETATM   12  C   UNL     1     -43.748  62.428 -50.635  1.00  0.00     0.036 A 
HETATM   13  C   UNL     1     -44.779  61.838 -49.881  1.00  0.00     0.059 A 
HETATM   14  C   UNL     1     -45.213  62.405 -48.680  1.00  0.00     0.036 A 
HETATM   15  C   UNL     1     -44.614  63.595 -48.251  1.00  0.00     0.029 A 
HETATM   16  C   UNL     1     -43.588  64.187 -48.988  1.00  0.00     0.004 A 
HETATM   17  C   UNL     1     -43.153  63.601 -50.175  1.00  0.00     0.029 A 
BRANCH  14  18
HETATM   18  N   UNL     1     -46.241  61.902 -47.862  1.00  0.00    -0.327 N 
HETATM   19  C   UNL     1     -46.268  61.182 -46.706  1.00  0.00     0.218 C 
HETATM   20  C   UNL     1     -45.022  60.873 -45.933  1.00  0.00     0.117 C 
HETATM   21  O   UNL     1     -47.368  60.803 -46.287  1.00  0.00    -0.274 OA
HETATM   22  H   UNL     1     -47.187  62.102 -48.167  1.00  0.00     0.169 HD
ENDBRANCH  14  18
ENDBRANCH   9  12
ENDBRANCH   7   8
ENDBRANCH   6   7
ENDBRANCH   3   6
BRANCH   2  23
HETATM   23  C   UNL     1     -42.407  56.681 -52.989  1.00  0.00     0.043 A 
HETATM   24  C   UNL     1     -41.274  57.100 -52.276  1.00  0.00     0.030 A 
HETATM   25  C   UNL     1     -41.145  56.785 -50.922  1.00  0.00     0.002 A 
HETATM   26  C   UNL     1     -42.142  56.058 -50.275  1.00  0.00     0.000 A 
HETATM   27  C   UNL     1     -43.271  55.643 -50.979  1.00  0.00     0.002 A 
HETATM   28  C   UNL     1     -43.408  55.955 -52.334  1.00  0.00     0.030 A 
ENDBRANCH   2  23
BRANCH   1  29
HETATM   29  C   UNL     1     -41.695  54.843 -55.426  1.00  0.00     0.150 C 
HETATM   30  C   UNL     1     -42.856  53.976 -54.915  1.00  0.00     0.040 C 
BRANCH  29  31
HETATM   31  N   UNL     1     -40.528  54.641 -54.557  1.00  0.00    -0.379 N 
HETATM   32  H   UNL     1     -40.300  55.485 -54.036  1.00  0.00     0.160 HD
BRANCH  31  33
HETATM   33  C   UNL     1     -40.338  53.486 -53.802  1.00  0.00     0.028 A 
HETATM   34  C   UNL     1     -39.966  52.249 -54.341  1.00  0.00     0.030 A 
HETATM   35  C   UNL     1     -39.724  51.140 -53.519  1.00  0.00     0.021 A 
HETATM   36  C   UNL     1     -39.823  51.265 -52.138  1.00  0.00     0.011 A 
HETATM   37 BR   UNL     1     -39.497  49.772 -51.029  1.00  0.00    -0.051 Br
HETATM   38  C   UNL     1     -40.146  52.492 -51.572  1.00  0.00     0.021 A 
HETATM   39  C   UNL     1     -40.386  53.593 -52.402  1.00  0.00     0.030 A 
ENDBRANCH  31  33
ENDBRANCH  29  31
ENDBRANCH   1  29
TORSDOF 9
ENDMDL
MODEL 6
REMARK VINA RESULT:      -8.5      2.883      4.638
REMARK  9 active torsions:
REMARK  status: ('A' for Active; 'I' for Inactive)
REMARK    1  A    between atoms: C_2  and  N_3 
REMARK    2  A    between atoms: C_2  and  C_11 
REMARK    3  A    between atoms: N_3  and  C_4 
REMARK    4  A    between atoms: N_12  and  C_13 
REMARK    5  A    between atoms: C_19  and  S_20 
REMARK    6  A    between atoms: S_20  and  C_21 
REMARK    7  A    between atoms: C_21  and  C_22 
REMARK       I    between atoms: C_22  and  N_23 
REMARK    8  A    between atoms: N_23  and  C_24 
REMARK    9  A    between atoms: C_26  and  N_27 
REMARK       I    between atoms: N_27  and  C_28 
ROOT
HETATM    1  C   UNL     1     -44.134  58.701 -53.023  1.00  0.00     0.158 A 
HETATM    2  N   UNL     1     -43.293  58.373 -54.087  1.00  0.00    -0.274 N 
HETATM    3  C   UNL     1     -43.101  59.583 -54.735  1.00  0.00     0.196 A 
HETATM    4  N   UNL     1     -43.843  60.518 -54.185  1.00  0.00    -0.122 NA
HETATM    5  N   UNL     1     -44.495  59.969 -53.123  1.00  0.00    -0.131 NA
ENDROOT
BRANCH   3   6
HETATM    6  S   UNL     1     -42.182  59.821 -56.188  1.00  0.00    -0.080 SA
BRANCH   6   7
HETATM    7  C   UNL     1     -43.448  60.468 -57.319  1.00  0.00     0.185 C 
BRANCH   7   8
HETATM    8  C   UNL     1     -43.664  59.508 -58.479  1.00  0.00     0.231 C 
HETATM    9  N   UNL     1     -44.181  58.283 -58.088  1.00  0.00    -0.326 N 
HETATM   10  H   UNL     1     -44.292  58.143 -57.083  1.00  0.00     0.169 HD
HETATM   11  O   UNL     1     -43.384  59.844 -59.627  1.00  0.00    -0.272 OA
BRANCH   9  12
HETATM   12  C   UNL     1     -44.465  57.166 -58.901  1.00  0.00     0.036 A 
HETATM   13  C   UNL     1     -45.629  57.231 -59.689  1.00  0.00     0.059 A 
HETATM   14  C   UNL     1     -46.000  56.171 -60.520  1.00  0.00     0.036 A 
HETATM   15  C   UNL     1     -45.198  55.023 -60.534  1.00  0.00     0.029 A 
HETATM   16  C   UNL     1     -44.040  54.950 -59.760  1.00  0.00     0.004 A 
HETATM   17  C   UNL     1     -43.672  56.021 -58.950  1.00  0.00     0.029 A 
BRANCH  14  18
HETATM   18  N   UNL     1     -47.146  56.132 -61.334  1.00  0.00    -0.327 N 
HETATM   19  C   UNL     1     -48.036  57.067 -61.768  1.00  0.00     0.218 C 
HETATM   20  C   UNL     1     -47.833  58.531 -61.518  1.00  0.00     0.117 C 
HETATM   21  O   UNL     1     -49.019  56.677 -62.408  1.00  0.00    -0.274 OA
HETATM   22  H   UNL     1     -47.397  55.220 -61.700  1.00  0.00     0.169 HD
ENDBRANCH  14  18
ENDBRANCH   9  12
ENDBRANCH   7   8
ENDBRANCH   6   7
ENDBRANCH   3   6
BRANCH   2  23
HETATM   23  C   UNL     1     -42.788  57.092 -54.428  1.00  0.00     0.043 A 
HETATM   24  C   UNL     1     -41.440  56.790 -54.189  1.00  0.00     0.030 A 
HETATM   25  C   UNL     1     -40.941  55.524 -54.500  1.00  0.00     0.002 A 
HETATM   26  C   UNL     1     -41.782  54.556 -55.046  1.00  0.00     0.000 A 
HETATM   27  C   UNL     1     -43.124  54.851 -55.282  1.00  0.00     0.002 A 
HETATM   28  C   UNL     1     -43.630  56.116 -54.973  1.00  0.00     0.030 A 
ENDBRANCH   2  23
BRANCH   1  29
HETATM   29  C   UNL     1     -44.396  57.805 -51.834  1.00  0.00     0.150 C 
HETATM   30  C   UNL     1     -45.469  58.422 -50.924  1.00  0.00     0.040 C 
BRANCH  29  31
HETATM   31  N   UNL     1     -43.172  57.588 -51.051  1.00  0.00    -0.379 N 
HETATM   32  H   UNL     1     -43.191  58.110 -50.177  1.00  0.00     0.160 HD
BRANCH  31  33
HETATM   33  C   UNL     1     -42.578  56.337 -50.906  1.00  0.00     0.028 A 
HETATM   34  C   UNL     1     -43.161  55.137 -51.332  1.00  0.00     0.030 A 
HETATM   35  C   UNL     1     -42.483  53.917 -51.219  1.00  0.00     0.021 A 
HETATM   36  C   UNL     1     -41.191  53.886 -50.704  1.00  0.00     0.011 A 
HETATM   37 BR   UNL     1     -40.275  52.242 -50.551  1.00  0.00    -0.051 Br
HETATM   38  C   UNL     1     -40.570  55.066 -50.316  1.00  0.00     0.021 A 
HETATM   39  C   UNL     1     -41.257  56.279 -50.432  1.00  0.00     0.030 A 
ENDBRANCH  31  33
ENDBRANCH  29  31
ENDBRANCH   1  29
TORSDOF 9
ENDMDL
MODEL 7
REMARK VINA RESULT:      -8.4      2.681      3.926
REMARK  9 active torsions:
REMARK  status: ('A' for Active; 'I' for Inactive)
REMARK    1  A    between atoms: C_2  and  N_3 
REMARK    2  A    between atoms: C_2  and  C_11 
REMARK    3  A    between atoms: N_3  and  C_4 
REMARK    4  A    between atoms: N_12  and  C_13 
REMARK    5  A    between atoms: C_19  and  S_20 
REMARK    6  A    between atoms: S_20  and  C_21 
REMARK    7  A    between atoms: C_21  and  C_22 
REMARK       I    between atoms: C_22  and  N_23 
REMARK    8  A    between atoms: N_23  and  C_24 
REMARK    9  A    between atoms: C_26  and  N_27 
REMARK       I    between atoms: N_27  and  C_28 
ROOT
HETATM    1  C   UNL     1     -43.484  57.159 -54.553  1.00  0.00     0.158 A 
HETATM    2  N   UNL     1     -43.315  58.122 -53.558  1.00  0.00    -0.274 N 
HETATM    3  C   UNL     1     -44.498  58.843 -53.596  1.00  0.00     0.196 A 
HETATM    4  N   UNL     1     -45.251  58.430 -54.592  1.00  0.00    -0.122 NA
HETATM    5  N   UNL     1     -44.618  57.385 -55.195  1.00  0.00    -0.131 NA
ENDROOT
BRANCH   3   6
HETATM    6  S   UNL     1     -44.874  60.229 -52.622  1.00  0.00    -0.080 SA
BRANCH   6   7
HETATM    7  C   UNL     1     -43.785  61.491 -53.346  1.00  0.00     0.185 C 
BRANCH   7   8
HETATM    8  C   UNL     1     -43.809  61.405 -54.864  1.00  0.00     0.231 C 
HETATM    9  N   UNL     1     -42.610  60.974 -55.409  1.00  0.00    -0.326 N 
HETATM   10  H   UNL     1     -41.843  60.833 -54.750  1.00  0.00     0.169 HD
HETATM   11  O   UNL     1     -44.823  61.705 -55.489  1.00  0.00    -0.272 OA
BRANCH   9  12
HETATM   12  C   UNL     1     -42.287  60.819 -56.773  1.00  0.00     0.036 A 
HETATM   13  C   UNL     1     -42.193  59.502 -57.259  1.00  0.00     0.059 A 
HETATM   14  C   UNL     1     -41.869  59.245 -58.594  1.00  0.00     0.036 A 
HETATM   15  C   UNL     1     -41.613  60.332 -59.438  1.00  0.00     0.029 A 
HETATM   16  C   UNL     1     -41.708  61.642 -58.968  1.00  0.00     0.004 A 
HETATM   17  C   UNL     1     -42.049  61.884 -57.639  1.00  0.00     0.029 A 
BRANCH  14  18
HETATM   18  N   UNL     1     -41.738  57.970 -59.174  1.00  0.00    -0.327 N 
HETATM   19  C   UNL     1     -42.589  57.133 -59.829  1.00  0.00     0.218 C 
HETATM   20  C   UNL     1     -43.977  57.551 -60.211  1.00  0.00     0.117 C 
HETATM   21  O   UNL     1     -42.175  56.008 -60.131  1.00  0.00    -0.274 OA
HETATM   22  H   UNL     1     -40.818  57.548 -59.111  1.00  0.00     0.169 HD
ENDBRANCH  14  18
ENDBRANCH   9  12
ENDBRANCH   7   8
ENDBRANCH   6   7
ENDBRANCH   3   6
BRANCH   2  23
HETATM   23  C   UNL     1     -42.180  58.320 -52.730  1.00  0.00     0.043 A 
HETATM   24  C   UNL     1     -42.255  58.018 -51.363  1.00  0.00     0.030 A 
HETATM   25  C   UNL     1     -41.136  58.188 -50.547  1.00  0.00     0.002 A 
HETATM   26  C   UNL     1     -39.940  58.655 -51.089  1.00  0.00     0.000 A 
HETATM   27  C   UNL     1     -39.860  58.954 -52.448  1.00  0.00     0.002 A 
HETATM   28  C   UNL     1     -40.976  58.785 -53.271  1.00  0.00     0.030 A 
ENDBRANCH   2  23
BRANCH   1  29
HETATM   29  C   UNL     1     -42.618  55.930 -54.710  1.00  0.00     0.150 C 
HETATM   30  C   UNL     1     -42.684  55.409 -56.154  1.00  0.00     0.040 C 
BRANCH  29  31
HETATM   31  N   UNL     1     -43.041  54.861 -53.796  1.00  0.00    -0.379 N 
HETATM   32  H   UNL     1     -43.263  54.005 -54.300  1.00  0.00     0.160 HD
BRANCH  31  33
HETATM   33  C   UNL     1     -42.408  54.609 -52.581  1.00  0.00     0.028 A 
HETATM   34  C   UNL     1     -41.020  54.515 -52.425  1.00  0.00     0.030 A 
HETATM   35  C   UNL     1     -40.440  54.327 -51.163  1.00  0.00     0.021 A 
HETATM   36  C   UNL     1     -41.246  54.261 -50.032  1.00  0.00     0.011 A 
HETATM   37 BR   UNL     1     -40.466  54.008 -48.331  1.00  0.00    -0.051 Br
HETATM   38  C   UNL     1     -42.623  54.397 -50.151  1.00  0.00     0.021 A 
HETATM   39  C   UNL     1     -43.192  54.583 -51.416  1.00  0.00     0.030 A 
ENDBRANCH  31  33
ENDBRANCH  29  31
ENDBRANCH   1  29
TORSDOF 9
ENDMDL
MODEL 8
REMARK VINA RESULT:      -8.4      3.818      7.878
REMARK  9 active torsions:
REMARK  status: ('A' for Active; 'I' for Inactive)
REMARK    1  A    between atoms: C_2  and  N_3 
REMARK    2  A    between atoms: C_2  and  C_11 
REMARK    3  A    between atoms: N_3  and  C_4 
REMARK    4  A    between atoms: N_12  and  C_13 
REMARK    5  A    between atoms: C_19  and  S_20 
REMARK    6  A    between atoms: S_20  and  C_21 
REMARK    7  A    between atoms: C_21  and  C_22 
REMARK       I    between atoms: C_22  and  N_23 
REMARK    8  A    between atoms: N_23  and  C_24 
REMARK    9  A    between atoms: C_26  and  N_27 
REMARK       I    between atoms: N_27  and  C_28 
ROOT
HETATM    1  C   UNL     1     -42.506  58.199 -56.948  1.00  0.00     0.158 A 
HETATM    2  N   UNL     1     -42.219  57.672 -55.689  1.00  0.00    -0.274 N 
HETATM    3  C   UNL     1     -41.881  58.786 -54.938  1.00  0.00     0.196 A 
HETATM    4  N   UNL     1     -41.855  59.858 -55.698  1.00  0.00    -0.122 NA
HETATM    5  N   UNL     1     -42.236  59.494 -56.954  1.00  0.00    -0.131 NA
ENDROOT
BRANCH   3   6
HETATM    6  S   UNL     1     -41.362  58.775 -53.281  1.00  0.00    -0.080 SA
BRANCH   6   7
HETATM    7  C   UNL     1     -42.933  58.509 -52.408  1.00  0.00     0.185 C 
BRANCH   7   8
HETATM    8  C   UNL     1     -42.871  57.234 -51.580  1.00  0.00     0.231 C 
HETATM    9  N   UNL     1     -41.579  56.777 -51.374  1.00  0.00    -0.326 N 
HETATM   10  H   UNL     1     -40.838  57.297 -51.846  1.00  0.00     0.169 HD
HETATM   11  O   UNL     1     -43.901  56.708 -51.168  1.00  0.00    -0.272 OA
BRANCH   9  12
HETATM   12  C   UNL     1     -41.173  55.615 -50.685  1.00  0.00     0.036 A 
HETATM   13  C   UNL     1     -40.723  54.535 -51.466  1.00  0.00     0.059 A 
HETATM   14  C   UNL     1     -40.309  53.338 -50.877  1.00  0.00     0.036 A 
HETATM   15  C   UNL     1     -40.375  53.225 -49.482  1.00  0.00     0.029 A 
HETATM   16  C   UNL     1     -40.815  54.290 -48.698  1.00  0.00     0.004 A 
HETATM   17  C   UNL     1     -41.208  55.485 -49.298  1.00  0.00     0.029 A 
BRANCH  14  18
HETATM   18  N   UNL     1     -39.856  52.199 -51.567  1.00  0.00    -0.327 N 
HETATM   19  C   UNL     1     -39.763  50.876 -51.258  1.00  0.00     0.218 C 
HETATM   20  C   UNL     1     -40.334  50.314 -49.991  1.00  0.00     0.117 C 
HETATM   21  O   UNL     1     -39.209  50.130 -52.073  1.00  0.00    -0.274 OA
HETATM   22  H   UNL     1     -39.517  52.359 -52.509  1.00  0.00     0.169 HD
ENDBRANCH  14  18
ENDBRANCH   9  12
ENDBRANCH   7   8
ENDBRANCH   6   7
ENDBRANCH   3   6
BRANCH   2  23
HETATM   23  C   UNL     1     -42.243  56.309 -55.296  1.00  0.00     0.043 A 
HETATM   24  C   UNL     1     -41.071  55.543 -55.371  1.00  0.00     0.030 A 
HETATM   25  C   UNL     1     -41.081  54.207 -54.965  1.00  0.00     0.002 A 
HETATM   26  C   UNL     1     -42.254  53.634 -54.479  1.00  0.00     0.000 A 
HETATM   27  C   UNL     1     -43.420  54.393 -54.399  1.00  0.00     0.002 A 
HETATM   28  C   UNL     1     -43.418  55.730 -54.803  1.00  0.00     0.030 A 
ENDBRANCH   2  23
BRANCH   1  29
HETATM   29  C   UNL     1     -43.224  57.448 -58.046  1.00  0.00     0.150 C 
HETATM   30  C   UNL     1     -42.967  58.113 -59.407  1.00  0.00     0.040 C 
BRANCH  29  31
HETATM   31  N   UNL     1     -44.671  57.403 -57.801  1.00  0.00    -0.379 N 
HETATM   32  H   UNL     1     -44.947  58.059 -57.073  1.00  0.00     0.160 HD
BRANCH  31  33
HETATM   33  C   UNL     1     -45.611  57.327 -58.827  1.00  0.00     0.028 A 
HETATM   34  C   UNL     1     -46.403  58.403 -59.245  1.00  0.00     0.030 A 
HETATM   35  C   UNL     1     -47.282  58.282 -60.329  1.00  0.00     0.021 A 
HETATM   36  C   UNL     1     -47.357  57.084 -61.031  1.00  0.00     0.011 A 
HETATM   37 BR   UNL     1     -48.542  56.919 -62.493  1.00  0.00    -0.051 Br
HETATM   38  C   UNL     1     -46.550  56.014 -60.668  1.00  0.00     0.021 A 
HETATM   39  C   UNL     1     -45.676  56.146 -59.583  1.00  0.00     0.030 A 
ENDBRANCH  31  33
ENDBRANCH  29  31
ENDBRANCH   1  29
TORSDOF 9
ENDMDL
MODEL 9
REMARK VINA RESULT:      -8.2      3.639      7.099
REMARK  9 active torsions:
REMARK  status: ('A' for Active; 'I' for Inactive)
REMARK    1  A    between atoms: C_2  and  N_3 
REMARK    2  A    between atoms: C_2  and  C_11 
REMARK    3  A    between atoms: N_3  and  C_4 
REMARK    4  A    between atoms: N_12  and  C_13 
REMARK    5  A    between atoms: C_19  and  S_20 
REMARK    6  A    between atoms: S_20  and  C_21 
REMARK    7  A    between atoms: C_21  and  C_22 
REMARK       I    between atoms: C_22  and  N_23 
REMARK    8  A    between atoms: N_23  and  C_24 
REMARK    9  A    between atoms: C_26  and  N_27 
REMARK       I    between atoms: N_27  and  C_28 
ROOT
HETATM    1  C   UNL     1     -42.883  60.390 -56.694  1.00  0.00     0.158 A 
HETATM    2  N   UNL     1     -43.605  59.742 -57.696  1.00  0.00    -0.274 N 
HETATM    3  C   UNL     1     -42.625  59.287 -58.563  1.00  0.00     0.196 A 
HETATM    4  N   UNL     1     -41.443  59.718 -58.181  1.00  0.00    -0.122 NA
HETATM    5  N   UNL     1     -41.602  60.413 -57.020  1.00  0.00    -0.131 NA
ENDROOT
BRANCH   3   6
HETATM    6  S   UNL     1     -42.900  58.445 -60.055  1.00  0.00    -0.080 SA
BRANCH   6   7
HETATM    7  C   UNL     1     -42.181  56.816 -59.693  1.00  0.00     0.185 C 
BRANCH   7   8
HETATM    8  C   UNL     1     -42.815  56.222 -58.445  1.00  0.00     0.231 C 
HETATM    9  N   UNL     1     -42.145  56.556 -57.278  1.00  0.00    -0.326 N 
HETATM   10  H   UNL     1     -41.285  57.093 -57.393  1.00  0.00     0.169 HD
HETATM   11  O   UNL     1     -43.819  55.520 -58.529  1.00  0.00    -0.272 OA
BRANCH   9  12
HETATM   12  C   UNL     1     -42.446  56.146 -55.962  1.00  0.00     0.036 A 
HETATM   13  C   UNL     1     -41.482  55.363 -55.303  1.00  0.00     0.059 A 
HETATM   14  C   UNL     1     -41.691  54.901 -54.001  1.00  0.00     0.036 A 
HETATM   15  C   UNL     1     -42.901  55.216 -53.370  1.00  0.00     0.029 A 
HETATM   16  C   UNL     1     -43.862  55.996 -54.012  1.00  0.00     0.004 A 
HETATM   17  C   UNL     1     -43.632  56.465 -55.303  1.00  0.00     0.029 A 
BRANCH  14  18
HETATM   18  N   UNL     1     -40.799  54.103 -53.261  1.00  0.00    -0.327 N 
HETATM   19  C   UNL     1     -40.442  52.790 -53.302  1.00  0.00     0.218 C 
HETATM   20  C   UNL     1     -40.915  51.872 -54.388  1.00  0.00     0.117 C 
HETATM   21  O   UNL     1     -39.684  52.370 -52.421  1.00  0.00    -0.274 OA
HETATM   22  H   UNL     1     -40.289  54.578 -52.525  1.00  0.00     0.169 HD
ENDBRANCH  14  18
ENDBRANCH   9  12
ENDBRANCH   7   8
ENDBRANCH   6   7
ENDBRANCH   3   6
BRANCH   2  23
HETATM   23  C   UNL     1     -45.014  59.615 -57.803  1.00  0.00     0.043 A 
HETATM   24  C   UNL     1     -45.766  60.656 -58.366  1.00  0.00     0.030 A 
HETATM   25  C   UNL     1     -47.150  60.529 -58.495  1.00  0.00     0.002 A 
HETATM   26  C   UNL     1     -47.788  59.366 -58.069  1.00  0.00     0.000 A 
HETATM   27  C   UNL     1     -47.044  58.327 -57.512  1.00  0.00     0.002 A 
HETATM   28  C   UNL     1     -45.658  58.447 -57.379  1.00  0.00     0.030 A 
ENDBRANCH   2  23
BRANCH   1  29
HETATM   29  C   UNL     1     -43.454  60.791 -55.352  1.00  0.00     0.150 C 
HETATM   30  C   UNL     1     -44.228  62.112 -55.473  1.00  0.00     0.040 C 
BRANCH  29  31
HETATM   31  N   UNL     1     -42.393  60.948 -54.348  1.00  0.00    -0.379 N 
HETATM   32  H   UNL     1     -42.368  61.896 -53.977  1.00  0.00     0.160 HD
BRANCH  31  33
HETATM   33  C   UNL     1     -42.126  59.992 -53.372  1.00  0.00     0.028 A 
HETATM   34  C   UNL     1     -42.971  59.721 -52.289  1.00  0.00     0.030 A 
HETATM   35  C   UNL     1     -42.680  58.698 -51.376  1.00  0.00     0.021 A 
HETATM   36  C   UNL     1     -41.549  57.909 -51.556  1.00  0.00     0.011 A 
HETATM   37 BR   UNL     1     -41.155  56.531 -50.327  1.00  0.00    -0.051 Br
HETATM   38  C   UNL     1     -40.717  58.126 -52.647  1.00  0.00     0.021 A 
HETATM   39  C   UNL     1     -41.016  59.150 -53.551  1.00  0.00     0.030 A 
ENDBRANCH  31  33
ENDBRANCH  29  31
ENDBRANCH   1  29
TORSDOF 9
ENDMDL
MODEL 10
REMARK VINA RESULT:      -8.2      2.269      3.535
REMARK  9 active torsions:
REMARK  status: ('A' for Active; 'I' for Inactive)
REMARK    1  A    between atoms: C_2  and  N_3 
REMARK    2  A    between atoms: C_2  and  C_11 
REMARK    3  A    between atoms: N_3  and  C_4 
REMARK    4  A    between atoms: N_12  and  C_13 
REMARK    5  A    between atoms: C_19  and  S_20 
REMARK    6  A    between atoms: S_20  and  C_21 
REMARK    7  A    between atoms: C_21  and  C_22 
REMARK       I    between atoms: C_22  and  N_23 
REMARK    8  A    between atoms: N_23  and  C_24 
REMARK    9  A    between atoms: C_26  and  N_27 
REMARK       I    between atoms: N_27  and  C_28 
ROOT
HETATM    1  C   UNL     1     -43.929  57.541 -52.731  1.00  0.00     0.158 A 
HETATM    2  N   UNL     1     -44.260  58.895 -52.787  1.00  0.00    -0.274 N 
HETATM    3  C   UNL     1     -44.769  59.055 -54.065  1.00  0.00     0.196 A 
HETATM    4  N   UNL     1     -44.647  57.937 -54.747  1.00  0.00    -0.122 NA
HETATM    5  N   UNL     1     -44.116  56.994 -53.920  1.00  0.00    -0.131 NA
ENDROOT
BRANCH   3   6
HETATM    6  S   UNL     1     -45.306  60.550 -54.765  1.00  0.00    -0.080 SA
BRANCH   6   7
HETATM    7  C   UNL     1     -43.736  61.281 -55.314  1.00  0.00     0.185 C 
BRANCH   7   8
HETATM    8  C   UNL     1     -42.924  60.265 -56.103  1.00  0.00     0.231 C 
HETATM    9  N   UNL     1     -43.597  59.764 -57.206  1.00  0.00    -0.326 N 
HETATM   10  H   UNL     1     -44.562  60.075 -57.323  1.00  0.00     0.169 HD
HETATM   11  O   UNL     1     -41.791  59.958 -55.743  1.00  0.00    -0.272 OA
BRANCH   9  12
HETATM   12  C   UNL     1     -43.148  58.790 -58.122  1.00  0.00     0.036 A 
HETATM   13  C   UNL     1     -43.703  57.502 -58.006  1.00  0.00     0.059 A 
HETATM   14  C   UNL     1     -43.316  56.467 -58.860  1.00  0.00     0.036 A 
HETATM   15  C   UNL     1     -42.339  56.732 -59.827  1.00  0.00     0.029 A 
HETATM   16  C   UNL     1     -41.785  58.006 -59.955  1.00  0.00     0.004 A 
HETATM   17  C   UNL     1     -42.194  59.034 -59.108  1.00  0.00     0.029 A 
BRANCH  14  18
HETATM   18  N   UNL     1     -43.799  55.146 -58.819  1.00  0.00    -0.327 N 
HETATM   19  C   UNL     1     -44.588  54.397 -59.638  1.00  0.00     0.218 C 
HETATM   20  C   UNL     1     -45.029  54.889 -60.984  1.00  0.00     0.117 C 
HETATM   21  O   UNL     1     -44.917  53.270 -59.251  1.00  0.00    -0.274 OA
HETATM   22  H   UNL     1     -43.517  54.598 -58.014  1.00  0.00     0.169 HD
ENDBRANCH  14  18
ENDBRANCH   9  12
ENDBRANCH   7   8
ENDBRANCH   6   7
ENDBRANCH   3   6
BRANCH   2  23
HETATM   23  C   UNL     1     -44.083  59.871 -51.772  1.00  0.00     0.043 A 
HETATM   24  C   UNL     1     -45.093  60.077 -50.821  1.00  0.00     0.030 A 
HETATM   25  C   UNL     1     -44.916  61.019 -49.807  1.00  0.00     0.002 A 
HETATM   26  C   UNL     1     -43.735  61.755 -49.734  1.00  0.00     0.000 A 
HETATM   27  C   UNL     1     -42.728  61.552 -50.676  1.00  0.00     0.002 A 
HETATM   28  C   UNL     1     -42.897  60.610 -51.694  1.00  0.00     0.030 A 
ENDBRANCH   2  23
BRANCH   1  29
HETATM   29  C   UNL     1     -43.627  56.787 -51.457  1.00  0.00     0.150 C 
HETATM   30  C   UNL     1     -42.191  57.074 -50.992  1.00  0.00     0.040 C 
BRANCH  29  31
HETATM   31  N   UNL     1     -43.788  55.339 -51.644  1.00  0.00    -0.379 N 
HETATM   32  H   UNL     1     -44.641  55.122 -52.155  1.00  0.00     0.160 HD
BRANCH  31  33
HETATM   33  C   UNL     1     -42.734  54.499 -51.995  1.00  0.00     0.028 A 
HETATM   34  C   UNL     1     -41.896  53.864 -51.071  1.00  0.00     0.030 A 
HETATM   35  C   UNL     1     -40.894  52.976 -51.486  1.00  0.00     0.021 A 
HETATM   36  C   UNL     1     -40.739  52.688 -52.837  1.00  0.00     0.011 A 
HETATM   37 BR   UNL     1     -39.390  51.491 -53.398  1.00  0.00    -0.051 Br
HETATM   38  C   UNL     1     -41.586  53.267 -53.773  1.00  0.00     0.021 A 
HETATM   39  C   UNL     1     -42.582  54.153 -53.348  1.00  0.00     0.030 A 
ENDBRANCH  31  33
ENDBRANCH  29  31
ENDBRANCH   1  29
TORSDOF 9
ENDMDL
