MODEL 1
REMARK VINA RESULT:      -8.8      0.000      0.000
REMARK  6 active torsions:
REMARK  status: ('A' for Active; 'I' for Inactive)
REMARK    1  A    between atoms: C_4  and  O_5 
REMARK    2  A    between atoms: O_5  and  C_6 
REMARK    3  A    between atoms: C_6  and  C_7 
REMARK       I    between atoms: C_7  and  N_8 
REMARK    4  A    between atoms: N_8  and  N_9 
REMARK    5  A    between atoms: C_10  and  C_11 
REMARK    6  A    between atoms: C_23  and  C_24 
ROOT
HETATM    1  C   UNL     1     -42.199  54.776 -55.798  1.00  0.00     0.261 C 
HETATM    2  N   UNL     1     -42.183  55.727 -56.814  1.00  0.00    -0.246 N 
HETATM    3  O   UNL     1     -43.177  54.126 -55.431  1.00  0.00    -0.269 OA
HETATM    4  H   UNL     1     -41.273  55.986 -57.191  1.00  0.00     0.192 HD
ENDROOT
BRANCH   2   5
HETATM    5  N   UNL     1     -43.251  56.131 -57.588  1.00  0.00    -0.184 NA
HETATM    6  C   UNL     1     -43.416  55.600 -58.756  1.00  0.00     0.152 C 
BRANCH   6   7
HETATM    7  C   UNL     1     -44.526  56.005 -59.599  1.00  0.00     0.011 A 
HETATM    8  C   UNL     1     -45.407  57.133 -59.507  1.00  0.00     0.005 A 
HETATM    9  C   UNL     1     -46.319  57.039 -60.563  1.00  0.00     0.043 A 
HETATM   10  C   UNL     1     -45.532  58.222 -58.617  1.00  0.00     0.033 A 
HETATM   11  C   UNL     1     -47.341  57.972 -60.777  1.00  0.00     0.031 A 
HETATM   12  N   UNL     1     -46.000  55.908 -61.276  1.00  0.00    -0.364 N 
HETATM   13  C   UNL     1     -47.444  59.037 -59.880  1.00  0.00     0.021 A 
HETATM   14  C   UNL     1     -46.551  59.157 -58.817  1.00  0.00     0.012 A 
HETATM   15 BR   UNL     1     -46.728  60.610 -57.617  1.00  0.00    -0.051 Br
HETATM   16  H   UNL     1     -46.492  55.593 -62.101  1.00  0.00     0.165 HD
HETATM   17  C   UNL     1     -44.935  55.272 -60.701  1.00  0.00     0.102 A 
ENDBRANCH   6   7
ENDBRANCH   2   5
BRANCH   1  18
HETATM   18  C   UNL     1     -40.869  54.680 -55.059  1.00  0.00     0.280 C 
BRANCH  18  19
HETATM   19  O   UNL     1     -41.049  54.519 -53.656  1.00  0.00    -0.341 OA
BRANCH  19  20
HETATM   20  C   UNL     1     -40.575  53.315 -53.184  1.00  0.00     0.076 A 
HETATM   21  C   UNL     1     -40.323  52.232 -54.040  1.00  0.00     0.044 A 
HETATM   22  C   UNL     1     -39.819  51.024 -53.545  1.00  0.00    -0.059 A 
HETATM   23  C   UNL     1     -39.498  49.888 -54.469  1.00  0.00     0.048 C 
HETATM   24  C   UNL     1     -39.566  50.911 -52.178  1.00  0.00     0.007 A 
HETATM   25  C   UNL     1     -39.845  51.974 -51.315  1.00  0.00     0.011 A 
HETATM   26  C   UNL     1     -40.374  53.185 -51.797  1.00  0.00    -0.021 A 
BRANCH  26  27
HETATM   27  C   UNL     1     -40.650  54.342 -50.846  1.00  0.00     0.013 C 
HETATM   28  C   UNL     1     -42.103  54.388 -50.351  1.00  0.00     0.015 C 
HETATM   29  C   UNL     1     -39.683  54.297 -49.660  1.00  0.00     0.015 C 
ENDBRANCH  26  27
ENDBRANCH  19  20
ENDBRANCH  18  19
ENDBRANCH   1  18
TORSDOF 6
ENDMDL
MODEL 2
REMARK VINA RESULT:      -8.6      2.484      2.722
REMARK  6 active torsions:
REMARK  status: ('A' for Active; 'I' for Inactive)
REMARK    1  A    between atoms: C_4  and  O_5 
REMARK    2  A    between atoms: O_5  and  C_6 
REMARK    3  A    between atoms: C_6  and  C_7 
REMARK       I    between atoms: C_7  and  N_8 
REMARK    4  A    between atoms: N_8  and  N_9 
REMARK    5  A    between atoms: C_10  and  C_11 
REMARK    6  A    between atoms: C_23  and  C_24 
ROOT
HETATM    1  C   UNL     1     -43.541  55.232 -54.638  1.00  0.00     0.261 C 
HETATM    2  N   UNL     1     -43.139  54.801 -55.899  1.00  0.00    -0.246 N 
HETATM    3  O   UNL     1     -44.202  56.241 -54.396  1.00  0.00    -0.269 OA
HETATM    4  H   UNL     1     -42.838  53.831 -55.982  1.00  0.00     0.192 HD
ENDROOT
BRANCH   2   5
HETATM    5  N   UNL     1     -43.387  55.422 -57.105  1.00  0.00    -0.184 NA
HETATM    6  C   UNL     1     -42.829  56.563 -57.350  1.00  0.00     0.152 C 
BRANCH   6   7
HETATM    7  C   UNL     1     -43.072  57.247 -58.607  1.00  0.00     0.011 A 
HETATM    8  C   UNL     1     -42.646  58.538 -59.065  1.00  0.00     0.005 A 
HETATM    9  C   UNL     1     -43.174  58.721 -60.347  1.00  0.00     0.043 A 
HETATM   10  C   UNL     1     -41.875  59.582 -58.509  1.00  0.00     0.033 A 
HETATM   11  C   UNL     1     -42.970  59.884 -61.100  1.00  0.00     0.031 A 
HETATM   12  N   UNL     1     -43.881  57.585 -60.662  1.00  0.00    -0.364 N 
HETATM   13  C   UNL     1     -42.207  60.903 -60.525  1.00  0.00     0.021 A 
HETATM   14  C   UNL     1     -41.669  60.750 -59.249  1.00  0.00     0.012 A 
HETATM   15 BR   UNL     1     -40.647  62.156 -58.499  1.00  0.00    -0.051 Br
HETATM   16  H   UNL     1     -44.367  57.437 -61.536  1.00  0.00     0.165 HD
HETATM   17  C   UNL     1     -43.837  56.699 -59.622  1.00  0.00     0.102 A 
ENDBRANCH   6   7
ENDBRANCH   2   5
BRANCH   1  18
HETATM   18  C   UNL     1     -42.972  54.375 -53.512  1.00  0.00     0.280 C 
BRANCH  18  19
HETATM   19  O   UNL     1     -41.569  54.563 -53.357  1.00  0.00    -0.341 OA
BRANCH  19  20
HETATM   20  C   UNL     1     -40.904  53.410 -53.006  1.00  0.00     0.076 A 
HETATM   21  C   UNL     1     -40.713  52.359 -53.916  1.00  0.00     0.044 A 
HETATM   22  C   UNL     1     -40.014  51.204 -53.548  1.00  0.00    -0.059 A 
HETATM   23  C   UNL     1     -39.764  50.108 -54.540  1.00  0.00     0.048 C 
HETATM   24  C   UNL     1     -39.502  51.112 -52.254  1.00  0.00     0.007 A 
HETATM   25  C   UNL     1     -39.715  52.141 -51.333  1.00  0.00     0.011 A 
HETATM   26  C   UNL     1     -40.436  53.296 -51.683  1.00  0.00    -0.021 A 
BRANCH  26  27
HETATM   27  C   UNL     1     -40.640  54.418 -50.674  1.00  0.00     0.013 C 
HETATM   28  C   UNL     1     -42.020  54.389 -50.003  1.00  0.00     0.015 C 
HETATM   29  C   UNL     1     -39.532  54.389 -49.617  1.00  0.00     0.015 C 
ENDBRANCH  26  27
ENDBRANCH  19  20
ENDBRANCH  18  19
ENDBRANCH   1  18
TORSDOF 6
ENDMDL
MODEL 3
REMARK VINA RESULT:      -8.4      2.615      3.902
REMARK  6 active torsions:
REMARK  status: ('A' for Active; 'I' for Inactive)
REMARK    1  A    between atoms: C_4  and  O_5 
REMARK    2  A    between atoms: O_5  and  C_6 
REMARK    3  A    between atoms: C_6  and  C_7 
REMARK       I    between atoms: C_7  and  N_8 
REMARK    4  A    between atoms: N_8  and  N_9 
REMARK    5  A    between atoms: C_10  and  C_11 
REMARK    6  A    between atoms: C_23  and  C_24 
ROOT
HETATM    1  C   UNL     1     -43.748  56.708 -53.453  1.00  0.00     0.261 C 
HETATM    2  N   UNL     1     -43.455  56.058 -54.648  1.00  0.00    -0.246 N 
HETATM    3  O   UNL     1     -44.117  57.875 -53.337  1.00  0.00    -0.269 OA
HETATM    4  H   UNL     1     -43.426  55.040 -54.627  1.00  0.00     0.192 HD
ENDROOT
BRANCH   2   5
HETATM    5  N   UNL     1     -43.505  56.595 -55.917  1.00  0.00    -0.184 NA
HETATM    6  C   UNL     1     -42.865  56.005 -56.874  1.00  0.00     0.152 C 
BRANCH   6   7
HETATM    7  C   UNL     1     -42.891  56.545 -58.222  1.00  0.00     0.011 A 
HETATM    8  C   UNL     1     -42.535  57.844 -58.715  1.00  0.00     0.005 A 
HETATM    9  C   UNL     1     -42.768  57.846 -60.094  1.00  0.00     0.043 A 
HETATM   10  C   UNL     1     -42.050  59.030 -58.121  1.00  0.00     0.033 A 
HETATM   11  C   UNL     1     -42.540  58.963 -60.907  1.00  0.00     0.031 A 
HETATM   12  N   UNL     1     -43.235  56.597 -60.429  1.00  0.00    -0.364 N 
HETATM   13  C   UNL     1     -42.065  60.125 -60.294  1.00  0.00     0.021 A 
HETATM   14  C   UNL     1     -41.825  60.154 -58.922  1.00  0.00     0.012 A 
HETATM   15 BR   UNL     1     -41.189  61.749 -58.126  1.00  0.00    -0.051 Br
HETATM   16  H   UNL     1     -43.482  56.310 -61.366  1.00  0.00     0.165 HD
HETATM   17  C   UNL     1     -43.325  55.813 -59.313  1.00  0.00     0.102 A 
ENDBRANCH   6   7
ENDBRANCH   2   5
BRANCH   1  18
HETATM   18  C   UNL     1     -43.452  55.850 -52.228  1.00  0.00     0.280 C 
BRANCH  18  19
HETATM   19  O   UNL     1     -43.005  54.547 -52.586  1.00  0.00    -0.341 OA
BRANCH  19  20
HETATM   20  C   UNL     1     -41.926  54.121 -51.843  1.00  0.00     0.076 A 
HETATM   21  C   UNL     1     -41.800  54.426 -50.479  1.00  0.00     0.044 A 
HETATM   22  C   UNL     1     -40.708  53.964 -49.736  1.00  0.00    -0.059 A 
HETATM   23  C   UNL     1     -40.605  54.245 -48.266  1.00  0.00     0.048 C 
HETATM   24  C   UNL     1     -39.741  53.187 -50.373  1.00  0.00     0.007 A 
HETATM   25  C   UNL     1     -39.844  52.906 -51.737  1.00  0.00     0.011 A 
HETATM   26  C   UNL     1     -40.924  53.383 -52.501  1.00  0.00    -0.021 A 
BRANCH  26  27
HETATM   27  C   UNL     1     -41.033  53.048 -53.983  1.00  0.00     0.013 C 
HETATM   28  C   UNL     1     -40.334  54.071 -54.890  1.00  0.00     0.015 C 
HETATM   29  C   UNL     1     -40.493  51.641 -54.250  1.00  0.00     0.015 C 
ENDBRANCH  26  27
ENDBRANCH  19  20
ENDBRANCH  18  19
ENDBRANCH   1  18
TORSDOF 6
ENDMDL
MODEL 4
REMARK VINA RESULT:      -8.2      5.041      6.230
REMARK  6 active torsions:
REMARK  status: ('A' for Active; 'I' for Inactive)
REMARK    1  A    between atoms: C_4  and  O_5 
REMARK    2  A    between atoms: O_5  and  C_6 
REMARK    3  A    between atoms: C_6  and  C_7 
REMARK       I    between atoms: C_7  and  N_8 
REMARK    4  A    between atoms: N_8  and  N_9 
REMARK    5  A    between atoms: C_10  and  C_11 
REMARK    6  A    between atoms: C_23  and  C_24 
ROOT
HETATM    1  C   UNL     1     -43.412  55.729 -54.235  1.00  0.00     0.261 C 
HETATM    2  N   UNL     1     -43.955  56.257 -53.068  1.00  0.00    -0.246 N 
HETATM    3  O   UNL     1     -43.533  56.198 -55.365  1.00  0.00    -0.269 OA
HETATM    4  H   UNL     1     -43.562  55.932 -52.186  1.00  0.00     0.192 HD
ENDROOT
BRANCH   2   5
HETATM    5  N   UNL     1     -44.739  57.386 -52.956  1.00  0.00    -0.184 NA
HETATM    6  C   UNL     1     -44.184  58.505 -52.619  1.00  0.00     0.152 C 
BRANCH   6   7
HETATM    7  C   UNL     1     -44.979  59.712 -52.486  1.00  0.00     0.011 A 
HETATM    8  C   UNL     1     -45.345  60.466 -51.323  1.00  0.00     0.005 A 
HETATM    9  C   UNL     1     -46.141  61.534 -51.751  1.00  0.00     0.043 A 
HETATM   10  C   UNL     1     -45.094  60.337 -49.940  1.00  0.00     0.033 A 
HETATM   11  C   UNL     1     -46.691  62.477 -50.874  1.00  0.00     0.031 A 
HETATM   12  N   UNL     1     -46.244  61.442 -53.118  1.00  0.00    -0.364 N 
HETATM   13  C   UNL     1     -46.431  62.324 -49.511  1.00  0.00     0.021 A 
HETATM   14  C   UNL     1     -45.643  61.270 -49.054  1.00  0.00     0.012 A 
HETATM   15 BR   UNL     1     -45.318  61.091 -47.198  1.00  0.00    -0.051 Br
HETATM   16  H   UNL     1     -46.759  62.090 -53.699  1.00  0.00     0.165 HD
HETATM   17  C   UNL     1     -45.562  60.347 -53.570  1.00  0.00     0.102 A 
ENDBRANCH   6   7
ENDBRANCH   2   5
BRANCH   1  18
HETATM   18  C   UNL     1     -42.714  54.392 -54.008  1.00  0.00     0.280 C 
BRANCH  18  19
HETATM   19  O   UNL     1     -41.372  54.561 -53.562  1.00  0.00    -0.341 OA
BRANCH  19  20
HETATM   20  C   UNL     1     -40.788  53.386 -53.144  1.00  0.00     0.076 A 
HETATM   21  C   UNL     1     -40.567  52.315 -54.023  1.00  0.00     0.044 A 
HETATM   22  C   UNL     1     -39.951  51.138 -53.584  1.00  0.00    -0.059 A 
HETATM   23  C   UNL     1     -39.665  50.018 -54.539  1.00  0.00     0.048 C 
HETATM   24  C   UNL     1     -39.554  51.044 -52.251  1.00  0.00     0.007 A 
HETATM   25  C   UNL     1     -39.799  52.093 -51.362  1.00  0.00     0.011 A 
HETATM   26  C   UNL     1     -40.439  53.272 -51.784  1.00  0.00    -0.021 A 
BRANCH  26  27
HETATM   27  C   UNL     1     -40.679  54.416 -50.808  1.00  0.00     0.013 C 
HETATM   28  C   UNL     1     -42.113  54.459 -50.263  1.00  0.00     0.015 C 
HETATM   29  C   UNL     1     -39.672  54.352 -49.657  1.00  0.00     0.015 C 
ENDBRANCH  26  27
ENDBRANCH  19  20
ENDBRANCH  18  19
ENDBRANCH   1  18
TORSDOF 6
ENDMDL
MODEL 5
REMARK VINA RESULT:      -8.2      4.601      9.926
REMARK  6 active torsions:
REMARK  status: ('A' for Active; 'I' for Inactive)
REMARK    1  A    between atoms: C_4  and  O_5 
REMARK    2  A    between atoms: O_5  and  C_6 
REMARK    3  A    between atoms: C_6  and  C_7 
REMARK       I    between atoms: C_7  and  N_8 
REMARK    4  A    between atoms: N_8  and  N_9 
REMARK    5  A    between atoms: C_10  and  C_11 
REMARK    6  A    between atoms: C_23  and  C_24 
ROOT
HETATM    1  C   UNL     1     -41.848  59.400 -54.534  1.00  0.00     0.261 C 
HETATM    2  N   UNL     1     -41.827  58.008 -54.503  1.00  0.00    -0.246 N 
HETATM    3  O   UNL     1     -41.556  60.148 -53.603  1.00  0.00    -0.269 OA
HETATM    4  H   UNL     1     -41.828  57.525 -55.399  1.00  0.00     0.192 HD
ENDROOT
BRANCH   2   5
HETATM    5  N   UNL     1     -41.494  57.209 -53.430  1.00  0.00    -0.184 NA
HETATM    6  C   UNL     1     -41.393  55.931 -53.606  1.00  0.00     0.152 C 
BRANCH   6   7
HETATM    7  C   UNL     1     -41.049  55.059 -52.499  1.00  0.00     0.011 A 
HETATM    8  C   UNL     1     -40.601  53.696 -52.487  1.00  0.00     0.005 A 
HETATM    9  C   UNL     1     -40.432  53.323 -51.150  1.00  0.00     0.043 A 
HETATM   10  C   UNL     1     -40.337  52.732 -53.484  1.00  0.00     0.033 A 
HETATM   11  C   UNL     1     -40.013  52.046 -50.759  1.00  0.00     0.031 A 
HETATM   12  N   UNL     1     -40.752  54.416 -50.379  1.00  0.00    -0.364 N 
HETATM   13  C   UNL     1     -39.762  51.110 -51.765  1.00  0.00     0.021 A 
HETATM   14  C   UNL     1     -39.922  51.451 -53.106  1.00  0.00     0.012 A 
HETATM   15 BR   UNL     1     -39.580  50.154 -54.440  1.00  0.00    -0.051 Br
HETATM   16  H   UNL     1     -40.715  54.435 -49.369  1.00  0.00     0.165 HD
HETATM   17  C   UNL     1     -41.136  55.458 -51.176  1.00  0.00     0.102 A 
ENDBRANCH   6   7
ENDBRANCH   2   5
BRANCH   1  18
HETATM   18  C   UNL     1     -42.400  59.951 -55.844  1.00  0.00     0.280 C 
BRANCH  18  19
HETATM   19  O   UNL     1     -41.368  60.205 -56.792  1.00  0.00    -0.341 OA
BRANCH  19  20
HETATM   20  C   UNL     1     -41.651  59.711 -58.046  1.00  0.00     0.076 A 
HETATM   21  C   UNL     1     -41.922  58.351 -58.263  1.00  0.00     0.044 A 
HETATM   22  C   UNL     1     -42.231  57.873 -59.540  1.00  0.00    -0.059 A 
HETATM   23  C   UNL     1     -42.576  56.430 -59.759  1.00  0.00     0.048 C 
HETATM   24  C   UNL     1     -42.268  58.773 -60.605  1.00  0.00     0.007 A 
HETATM   25  C   UNL     1     -41.968  60.122 -60.403  1.00  0.00     0.011 A 
HETATM   26  C   UNL     1     -41.633  60.612 -59.128  1.00  0.00    -0.021 A 
BRANCH  26  27
HETATM   27  C   UNL     1     -41.330  62.090 -58.920  1.00  0.00     0.013 C 
HETATM   28  C   UNL     1     -40.383  62.671 -59.979  1.00  0.00     0.015 C 
HETATM   29  C   UNL     1     -42.631  62.896 -58.868  1.00  0.00     0.015 C 
ENDBRANCH  26  27
ENDBRANCH  19  20
ENDBRANCH  18  19
ENDBRANCH   1  18
TORSDOF 6
ENDMDL
MODEL 6
REMARK VINA RESULT:      -7.9      3.311      9.844
REMARK  6 active torsions:
REMARK  status: ('A' for Active; 'I' for Inactive)
REMARK    1  A    between atoms: C_4  and  O_5 
REMARK    2  A    between atoms: O_5  and  C_6 
REMARK    3  A    between atoms: C_6  and  C_7 
REMARK       I    between atoms: C_7  and  N_8 
REMARK    4  A    between atoms: N_8  and  N_9 
REMARK    5  A    between atoms: C_10  and  C_11 
REMARK    6  A    between atoms: C_23  and  C_24 
ROOT
HETATM    1  C   UNL     1     -42.480  58.191 -55.934  1.00  0.00     0.261 C 
HETATM    2  N   UNL     1     -42.354  56.818 -55.741  1.00  0.00    -0.246 N 
HETATM    3  O   UNL     1     -41.938  59.067 -55.263  1.00  0.00    -0.269 OA
HETATM    4  H   UNL     1     -42.628  56.215 -56.515  1.00  0.00     0.192 HD
ENDROOT
BRANCH   2   5
HETATM    5  N   UNL     1     -41.619  56.183 -54.763  1.00  0.00    -0.184 NA
HETATM    6  C   UNL     1     -42.237  55.652 -53.758  1.00  0.00     0.152 C 
BRANCH   6   7
HETATM    7  C   UNL     1     -41.495  54.980 -52.707  1.00  0.00     0.011 A 
HETATM    8  C   UNL     1     -40.847  53.700 -52.692  1.00  0.00     0.005 A 
HETATM    9  C   UNL     1     -40.296  53.525 -51.419  1.00  0.00     0.043 A 
HETATM   10  C   UNL     1     -40.688  52.660 -53.634  1.00  0.00     0.033 A 
HETATM   11  C   UNL     1     -39.595  52.374 -51.040  1.00  0.00     0.031 A 
HETATM   12  N   UNL     1     -40.584  54.656 -50.692  1.00  0.00    -0.364 N 
HETATM   13  C   UNL     1     -39.455  51.359 -51.989  1.00  0.00     0.021 A 
HETATM   14  C   UNL     1     -39.994  51.503 -53.266  1.00  0.00     0.012 A 
HETATM   15 BR   UNL     1     -39.791  50.103 -54.522  1.00  0.00    -0.051 Br
HETATM   16  H   UNL     1     -40.302  54.808 -49.733  1.00  0.00     0.165 HD
HETATM   17  C   UNL     1     -41.314  55.530 -51.449  1.00  0.00     0.102 A 
ENDBRANCH   6   7
ENDBRANCH   2   5
BRANCH   1  18
HETATM   18  C   UNL     1     -43.484  58.543 -57.026  1.00  0.00     0.280 C 
BRANCH  18  19
HETATM   19  O   UNL     1     -44.554  57.605 -57.088  1.00  0.00    -0.341 OA
BRANCH  19  20
HETATM   20  C   UNL     1     -45.326  57.738 -58.221  1.00  0.00     0.076 A 
HETATM   21  C   UNL     1     -46.303  58.738 -58.337  1.00  0.00     0.044 A 
HETATM   22  C   UNL     1     -47.061  58.872 -59.505  1.00  0.00    -0.059 A 
HETATM   23  C   UNL     1     -48.065  59.977 -59.648  1.00  0.00     0.048 C 
HETATM   24  C   UNL     1     -46.829  57.993 -60.563  1.00  0.00     0.007 A 
HETATM   25  C   UNL     1     -45.880  56.975 -60.442  1.00  0.00     0.011 A 
HETATM   26  C   UNL     1     -45.128  56.814 -59.265  1.00  0.00    -0.021 A 
BRANCH  26  27
HETATM   27  C   UNL     1     -44.081  55.713 -59.158  1.00  0.00     0.013 C 
HETATM   28  C   UNL     1     -44.543  54.375 -59.752  1.00  0.00     0.015 C 
HETATM   29  C   UNL     1     -42.770  56.162 -59.809  1.00  0.00     0.015 C 
ENDBRANCH  26  27
ENDBRANCH  19  20
ENDBRANCH  18  19
ENDBRANCH   1  18
TORSDOF 6
ENDMDL
MODEL 7
REMARK VINA RESULT:      -7.8      5.029      6.574
REMARK  6 active torsions:
REMARK  status: ('A' for Active; 'I' for Inactive)
REMARK    1  A    between atoms: C_4  and  O_5 
REMARK    2  A    between atoms: O_5  and  C_6 
REMARK    3  A    between atoms: C_6  and  C_7 
REMARK       I    between atoms: C_7  and  N_8 
REMARK    4  A    between atoms: N_8  and  N_9 
REMARK    5  A    between atoms: C_10  and  C_11 
REMARK    6  A    between atoms: C_23  and  C_24 
ROOT
HETATM    1  C   UNL     1     -41.224  56.661 -50.560  1.00  0.00     0.261 C 
HETATM    2  N   UNL     1     -42.562  56.803 -50.917  1.00  0.00    -0.246 N 
HETATM    3  O   UNL     1     -40.391  57.564 -50.504  1.00  0.00    -0.269 OA
HETATM    4  H   UNL     1     -43.191  56.043 -50.664  1.00  0.00     0.192 HD
ENDROOT
BRANCH   2   5
HETATM    5  N   UNL     1     -43.201  57.967 -51.288  1.00  0.00    -0.184 NA
HETATM    6  C   UNL     1     -44.348  57.892 -51.881  1.00  0.00     0.152 C 
BRANCH   6   7
HETATM    7  C   UNL     1     -45.047  59.096 -52.290  1.00  0.00     0.011 A 
HETATM    8  C   UNL     1     -45.537  60.200 -51.517  1.00  0.00     0.005 A 
HETATM    9  C   UNL     1     -46.156  61.089 -52.403  1.00  0.00     0.043 A 
HETATM   10  C   UNL     1     -45.531  60.528 -50.144  1.00  0.00     0.033 A 
HETATM   11  C   UNL     1     -46.762  62.282 -51.991  1.00  0.00     0.031 A 
HETATM   12  N   UNL     1     -46.037  60.555 -53.664  1.00  0.00    -0.364 N 
HETATM   13  C   UNL     1     -46.746  62.580 -50.627  1.00  0.00     0.021 A 
HETATM   14  C   UNL     1     -46.139  61.714 -49.720  1.00  0.00     0.012 A 
HETATM   15 BR   UNL     1     -46.144  62.148 -47.878  1.00  0.00    -0.051 Br
HETATM   16  H   UNL     1     -46.390  60.989 -54.506  1.00  0.00     0.165 HD
HETATM   17  C   UNL     1     -45.386  59.354 -53.608  1.00  0.00     0.102 A 
ENDBRANCH   6   7
ENDBRANCH   2   5
BRANCH   1  18
HETATM   18  C   UNL     1     -40.823  55.206 -50.343  1.00  0.00     0.280 C 
BRANCH  18  19
HETATM   19  O   UNL     1     -41.683  54.308 -51.038  1.00  0.00    -0.341 OA
BRANCH  19  20
HETATM   20  C   UNL     1     -41.003  53.303 -51.691  1.00  0.00     0.076 A 
HETATM   21  C   UNL     1     -40.441  52.219 -50.999  1.00  0.00     0.044 A 
HETATM   22  C   UNL     1     -39.775  51.196 -51.683  1.00  0.00    -0.059 A 
HETATM   23  C   UNL     1     -39.225  50.011 -50.947  1.00  0.00     0.048 C 
HETATM   24  C   UNL     1     -39.678  51.267 -53.072  1.00  0.00     0.007 A 
HETATM   25  C   UNL     1     -40.207  52.360 -53.764  1.00  0.00     0.011 A 
HETATM   26  C   UNL     1     -40.859  53.406 -53.087  1.00  0.00    -0.021 A 
BRANCH  26  27
HETATM   27  C   UNL     1     -41.450  54.578 -53.859  1.00  0.00     0.013 C 
HETATM   28  C   UNL     1     -40.394  55.420 -54.589  1.00  0.00     0.015 C 
HETATM   29  C   UNL     1     -42.513  54.084 -54.843  1.00  0.00     0.015 C 
ENDBRANCH  26  27
ENDBRANCH  19  20
ENDBRANCH  18  19
ENDBRANCH   1  18
TORSDOF 6
ENDMDL
MODEL 8
REMARK VINA RESULT:      -7.7      2.046      2.532
REMARK  6 active torsions:
REMARK  status: ('A' for Active; 'I' for Inactive)
REMARK    1  A    between atoms: C_4  and  O_5 
REMARK    2  A    between atoms: O_5  and  C_6 
REMARK    3  A    between atoms: C_6  and  C_7 
REMARK       I    between atoms: C_7  and  N_8 
REMARK    4  A    between atoms: N_8  and  N_9 
REMARK    5  A    between atoms: C_10  and  C_11 
REMARK    6  A    between atoms: C_23  and  C_24 
ROOT
HETATM    1  C   UNL     1     -42.110  55.748 -55.786  1.00  0.00     0.261 C 
HETATM    2  N   UNL     1     -42.121  57.137 -55.710  1.00  0.00    -0.246 N 
HETATM    3  O   UNL     1     -42.838  55.057 -56.496  1.00  0.00    -0.269 OA
HETATM    4  H   UNL     1     -41.304  57.585 -55.299  1.00  0.00     0.192 HD
ENDROOT
BRANCH   2   5
HETATM    5  N   UNL     1     -42.952  57.997 -56.396  1.00  0.00    -0.184 NA
HETATM    6  C   UNL     1     -42.586  58.428 -57.560  1.00  0.00     0.152 C 
BRANCH   6   7
HETATM    7  C   UNL     1     -43.433  59.339 -58.309  1.00  0.00     0.011 A 
HETATM    8  C   UNL     1     -44.577  59.085 -59.136  1.00  0.00     0.005 A 
HETATM    9  C   UNL     1     -45.009  60.315 -59.641  1.00  0.00     0.043 A 
HETATM   10  C   UNL     1     -45.283  57.924 -59.520  1.00  0.00     0.033 A 
HETATM   11  C   UNL     1     -46.105  60.446 -60.503  1.00  0.00     0.031 A 
HETATM   12  N   UNL     1     -44.171  61.280 -59.134  1.00  0.00    -0.364 N 
HETATM   13  C   UNL     1     -46.782  59.282 -60.871  1.00  0.00     0.021 A 
HETATM   14  C   UNL     1     -46.375  58.042 -60.385  1.00  0.00     0.012 A 
HETATM   15 BR   UNL     1     -47.314  56.485 -60.913  1.00  0.00    -0.051 Br
HETATM   16  H   UNL     1     -44.252  62.269 -59.329  1.00  0.00     0.165 HD
HETATM   17  C   UNL     1     -43.215  60.706 -58.344  1.00  0.00     0.102 A 
ENDBRANCH   6   7
ENDBRANCH   2   5
BRANCH   1  18
HETATM   18  C   UNL     1     -41.154  55.110 -54.784  1.00  0.00     0.280 C 
BRANCH  18  19
HETATM   19  O   UNL     1     -41.844  54.336 -53.808  1.00  0.00    -0.341 OA
BRANCH  19  20
HETATM   20  C   UNL     1     -41.087  53.302 -53.303  1.00  0.00     0.076 A 
HETATM   21  C   UNL     1     -40.719  52.200 -54.091  1.00  0.00     0.044 A 
HETATM   22  C   UNL     1     -39.930  51.171 -53.567  1.00  0.00    -0.059 A 
HETATM   23  C   UNL     1     -39.492  50.024 -54.428  1.00  0.00     0.048 C 
HETATM   24  C   UNL     1     -39.508  51.255 -52.240  1.00  0.00     0.007 A 
HETATM   25  C   UNL     1     -39.897  52.332 -51.441  1.00  0.00     0.011 A 
HETATM   26  C   UNL     1     -40.710  53.362 -51.948  1.00  0.00    -0.021 A 
BRANCH  26  27
HETATM   27  C   UNL     1     -41.106  54.541 -51.069  1.00  0.00     0.013 C 
HETATM   28  C   UNL     1     -42.553  54.464 -50.565  1.00  0.00     0.015 C 
HETATM   29  C   UNL     1     -40.136  54.675 -49.892  1.00  0.00     0.015 C 
ENDBRANCH  26  27
ENDBRANCH  19  20
ENDBRANCH  18  19
ENDBRANCH   1  18
TORSDOF 6
ENDMDL
MODEL 9
REMARK VINA RESULT:      -7.6      6.285      8.619
REMARK  6 active torsions:
REMARK  status: ('A' for Active; 'I' for Inactive)
REMARK    1  A    between atoms: C_4  and  O_5 
REMARK    2  A    between atoms: O_5  and  C_6 
REMARK    3  A    between atoms: C_6  and  C_7 
REMARK       I    between atoms: C_7  and  N_8 
REMARK    4  A    between atoms: N_8  and  N_9 
REMARK    5  A    between atoms: C_10  and  C_11 
REMARK    6  A    between atoms: C_23  and  C_24 
ROOT
HETATM    1  C   UNL     1     -43.017  57.720 -52.384  1.00  0.00     0.261 C 
HETATM    2  N   UNL     1     -42.475  58.874 -51.825  1.00  0.00    -0.246 N 
HETATM    3  O   UNL     1     -44.211  57.427 -52.419  1.00  0.00    -0.269 OA
HETATM    4  H   UNL     1     -41.524  59.117 -52.099  1.00  0.00     0.192 HD
ENDROOT
BRANCH   2   5
HETATM    5  N   UNL     1     -43.160  59.891 -51.196  1.00  0.00    -0.184 NA
HETATM    6  C   UNL     1     -42.530  60.980 -50.895  1.00  0.00     0.152 C 
BRANCH   6   7
HETATM    7  C   UNL     1     -43.218  62.070 -50.228  1.00  0.00     0.011 A 
HETATM    8  C   UNL     1     -44.116  62.062 -49.109  1.00  0.00     0.005 A 
HETATM    9  C   UNL     1     -44.512  63.385 -48.882  1.00  0.00     0.043 A 
HETATM   10  C   UNL     1     -44.648  61.057 -48.274  1.00  0.00     0.033 A 
HETATM   11  C   UNL     1     -45.403  63.753 -47.867  1.00  0.00     0.031 A 
HETATM   12  N   UNL     1     -43.873  64.166 -49.814  1.00  0.00    -0.364 N 
HETATM   13  C   UNL     1     -45.918  62.738 -47.057  1.00  0.00     0.021 A 
HETATM   14  C   UNL     1     -45.544  61.411 -47.260  1.00  0.00     0.012 A 
HETATM   15 BR   UNL     1     -46.269  60.063 -46.147  1.00  0.00    -0.051 Br
HETATM   16  H   UNL     1     -43.968  65.170 -49.883  1.00  0.00     0.165 HD
HETATM   17  C   UNL     1     -43.104  63.388 -50.635  1.00  0.00     0.102 A 
ENDBRANCH   6   7
ENDBRANCH   2   5
BRANCH   1  18
HETATM   18  C   UNL     1     -41.952  56.745 -52.874  1.00  0.00     0.280 C 
BRANCH  18  19
HETATM   19  O   UNL     1     -42.387  55.392 -52.782  1.00  0.00    -0.341 OA
BRANCH  19  20
HETATM   20  C   UNL     1     -41.584  54.619 -51.974  1.00  0.00     0.076 A 
HETATM   21  C   UNL     1     -41.450  54.874 -50.600  1.00  0.00     0.044 A 
HETATM   22  C   UNL     1     -40.648  54.062 -49.791  1.00  0.00    -0.059 A 
HETATM   23  C   UNL     1     -40.552  54.304 -48.314  1.00  0.00     0.048 C 
HETATM   24  C   UNL     1     -39.979  52.985 -50.371  1.00  0.00     0.007 A 
HETATM   25  C   UNL     1     -40.081  52.744 -51.743  1.00  0.00     0.011 A 
HETATM   26  C   UNL     1     -40.866  53.566 -52.573  1.00  0.00    -0.021 A 
BRANCH  26  27
HETATM   27  C   UNL     1     -40.985  53.275 -54.063  1.00  0.00     0.013 C 
HETATM   28  C   UNL     1     -40.120  54.198 -54.933  1.00  0.00     0.015 C 
HETATM   29  C   UNL     1     -40.652  51.808 -54.346  1.00  0.00     0.015 C 
ENDBRANCH  26  27
ENDBRANCH  19  20
ENDBRANCH  18  19
ENDBRANCH   1  18
TORSDOF 6
ENDMDL
MODEL 10
REMARK VINA RESULT:      -7.5      4.277      5.707
REMARK  6 active torsions:
REMARK  status: ('A' for Active; 'I' for Inactive)
REMARK    1  A    between atoms: C_4  and  O_5 
REMARK    2  A    between atoms: O_5  and  C_6 
REMARK    3  A    between atoms: C_6  and  C_7 
REMARK       I    between atoms: C_7  and  N_8 
REMARK    4  A    between atoms: N_8  and  N_9 
REMARK    5  A    between atoms: C_10  and  C_11 
REMARK    6  A    between atoms: C_23  and  C_24 
ROOT
HETATM    1  C   UNL     1     -41.380  56.482 -50.419  1.00  0.00     0.261 C 
HETATM    2  N   UNL     1     -42.744  56.623 -50.656  1.00  0.00    -0.246 N 
HETATM    3  O   UNL     1     -40.550  57.389 -50.408  1.00  0.00    -0.269 OA
HETATM    4  H   UNL     1     -43.345  55.851 -50.373  1.00  0.00     0.192 HD
ENDROOT
BRANCH   2   5
HETATM    5  N   UNL     1     -43.419  57.792 -50.935  1.00  0.00    -0.184 NA
HETATM    6  C   UNL     1     -44.406  57.763 -51.771  1.00  0.00     0.152 C 
BRANCH   6   7
HETATM    7  C   UNL     1     -45.136  58.975 -52.093  1.00  0.00     0.011 A 
HETATM    8  C   UNL     1     -45.305  59.661 -53.341  1.00  0.00     0.005 A 
HETATM    9  C   UNL     1     -46.086  60.794 -53.094  1.00  0.00     0.043 A 
HETATM   10  C   UNL     1     -44.854  59.440 -54.661  1.00  0.00     0.033 A 
HETATM   11  C   UNL     1     -46.443  61.711 -54.090  1.00  0.00     0.031 A 
HETATM   12  N   UNL     1     -46.392  60.792 -51.753  1.00  0.00    -0.364 N 
HETATM   13  C   UNL     1     -45.981  61.471 -55.386  1.00  0.00     0.021 A 
HETATM   14  C   UNL     1     -45.199  60.352 -55.664  1.00  0.00     0.012 A 
HETATM   15 BR   UNL     1     -44.585  60.064 -57.431  1.00  0.00    -0.051 Br
HETATM   16  H   UNL     1     -46.954  61.495 -51.293  1.00  0.00     0.165 HD
HETATM   17  C   UNL     1     -45.818  59.714 -51.140  1.00  0.00     0.102 A 
ENDBRANCH   6   7
ENDBRANCH   2   5
BRANCH   1  18
HETATM   18  C   UNL     1     -40.953  55.024 -50.282  1.00  0.00     0.280 C 
BRANCH  18  19
HETATM   19  O   UNL     1     -41.739  54.160 -51.097  1.00  0.00    -0.341 OA
BRANCH  19  20
HETATM   20  C   UNL     1     -40.999  53.174 -51.711  1.00  0.00     0.076 A 
HETATM   21  C   UNL     1     -40.483  52.082 -50.997  1.00  0.00     0.044 A 
HETATM   22  C   UNL     1     -39.754  51.078 -51.643  1.00  0.00    -0.059 A 
HETATM   23  C   UNL     1     -39.252  49.884 -50.887  1.00  0.00     0.048 C 
HETATM   24  C   UNL     1     -39.547  51.176 -53.019  1.00  0.00     0.007 A 
HETATM   25  C   UNL     1     -40.031  52.276 -53.731  1.00  0.00     0.011 A 
HETATM   26  C   UNL     1     -40.745  53.304 -53.090  1.00  0.00    -0.021 A 
BRANCH  26  27
HETATM   27  C   UNL     1     -41.285  54.485 -53.885  1.00  0.00     0.013 C 
HETATM   28  C   UNL     1     -40.295  55.016 -54.932  1.00  0.00     0.015 C 
HETATM   29  C   UNL     1     -42.615  54.117 -54.547  1.00  0.00     0.015 C 
ENDBRANCH  26  27
ENDBRANCH  19  20
ENDBRANCH  18  19
ENDBRANCH   1  18
TORSDOF 6
ENDMDL
