MODEL 1
REMARK VINA RESULT:      -7.2      0.000      0.000
REMARK  4 active torsions:
REMARK  status: ('A' for Active; 'I' for Inactive)
REMARK    1  A    between atoms: O_2  and  C_3 
REMARK    2  A    between atoms: C_4  and  O_5 
REMARK    3  A    between atoms: C_9  and  N_10 
REMARK    4  A    between atoms: N_10  and  C_11 
ROOT
HETATM    1  C   UNL     1     -40.007  52.260 -52.165  1.00  0.00     0.102 A 
HETATM    2  C   UNL     1     -40.798  53.093 -51.354  1.00  0.00     0.118 A 
HETATM    3  C   UNL     1     -41.698  53.930 -52.007  1.00  0.00     0.086 A 
HETATM    4  C   UNL     1     -41.809  53.961 -53.393  1.00  0.00     0.010 A 
HETATM    5  C   UNL     1     -42.812  54.971 -53.795  1.00  0.00     0.267 C 
HETATM    6  O   UNL     1     -43.324  55.442 -52.544  1.00  0.00    -0.287 OA
HETATM    7  C   UNL     1     -42.621  54.937 -51.483  1.00  0.00     0.299 C 
HETATM    8  O   UNL     1     -42.792  55.333 -50.352  1.00  0.00    -0.259 OA
HETATM    9  C   UNL     1     -41.026  53.144 -54.193  1.00  0.00     0.015 A 
HETATM   10  C   UNL     1     -40.116  52.296 -53.567  1.00  0.00     0.040 A 
ENDROOT
BRANCH   5  11
HETATM   11  N   UNL     1     -42.193  56.069 -54.517  1.00  0.00    -0.346 N 
HETATM   12  H   UNL     1     -41.184  56.083 -54.366  1.00  0.00     0.164 HD
BRANCH  11  13
HETATM   13  C   UNL     1     -42.536  56.385 -55.825  1.00  0.00     0.102 A 
HETATM   14  N   UNL     1     -42.417  57.636 -56.310  1.00  0.00    -0.351 N 
HETATM   15  H   UNL     1     -42.084  58.361 -55.671  1.00  0.00     0.166 HD
HETATM   16  C   UNL     1     -42.656  57.972 -57.586  1.00  0.00     0.109 A 
HETATM   17  C   UNL     1     -43.028  56.995 -58.497  1.00  0.00     0.026 A 
HETATM   18 BR   UNL     1     -43.365  57.455 -60.293  1.00  0.00    -0.050 Br
HETATM   19  C   UNL     1     -43.127  55.679 -58.074  1.00  0.00     0.024 A 
HETATM   20  C   UNL     1     -42.864  55.371 -56.737  1.00  0.00     0.050 A 
ENDBRANCH  11  13
ENDBRANCH   5  11
BRANCH   2  21
HETATM   21  O   UNL     1     -40.525  53.127 -50.019  1.00  0.00    -0.352 OA
HETATM   22  C   UNL     1     -39.613  54.133 -49.586  1.00  0.00     0.210 C 
ENDBRANCH   2  21
BRANCH   1  23
HETATM   23  O   UNL     1     -39.037  51.414 -51.692  1.00  0.00    -0.353 OA
HETATM   24  C   UNL     1     -39.516  50.103 -51.398  1.00  0.00     0.210 C 
ENDBRANCH   1  23
TORSDOF 4
ENDMDL
MODEL 2
REMARK VINA RESULT:      -7.2      3.452      4.418
REMARK  4 active torsions:
REMARK  status: ('A' for Active; 'I' for Inactive)
REMARK    1  A    between atoms: O_2  and  C_3 
REMARK    2  A    between atoms: C_4  and  O_5 
REMARK    3  A    between atoms: C_9  and  N_10 
REMARK    4  A    between atoms: N_10  and  C_11 
ROOT
HETATM    1  C   UNL     1     -40.624  52.821 -53.367  1.00  0.00     0.102 A 
HETATM    2  C   UNL     1     -40.818  53.172 -52.020  1.00  0.00     0.118 A 
HETATM    3  C   UNL     1     -41.839  54.078 -51.750  1.00  0.00     0.086 A 
HETATM    4  C   UNL     1     -42.628  54.625 -52.756  1.00  0.00     0.010 A 
HETATM    5  C   UNL     1     -43.597  55.579 -52.173  1.00  0.00     0.267 C 
HETATM    6  O   UNL     1     -43.364  55.465 -50.766  1.00  0.00    -0.287 OA
HETATM    7  C   UNL     1     -42.274  54.683 -50.491  1.00  0.00     0.299 C 
HETATM    8  O   UNL     1     -41.816  54.589 -49.374  1.00  0.00    -0.259 OA
HETATM    9  C   UNL     1     -42.435  54.282 -54.085  1.00  0.00     0.015 A 
HETATM   10  C   UNL     1     -41.418  53.379 -54.384  1.00  0.00     0.040 A 
ENDROOT
BRANCH   5  11
HETATM   11  N   UNL     1     -43.323  56.938 -52.608  1.00  0.00    -0.346 N 
HETATM   12  H   UNL     1     -44.185  57.479 -52.683  1.00  0.00     0.164 HD
BRANCH  11  13
HETATM   13  C   UNL     1     -42.274  57.687 -52.088  1.00  0.00     0.102 A 
HETATM   14  N   UNL     1     -42.221  58.030 -50.787  1.00  0.00    -0.351 N 
HETATM   15  H   UNL     1     -42.999  57.740 -50.190  1.00  0.00     0.166 HD
HETATM   16  C   UNL     1     -41.192  58.678 -50.223  1.00  0.00     0.109 A 
HETATM   17  C   UNL     1     -40.086  59.012 -50.988  1.00  0.00     0.026 A 
HETATM   18 BR   UNL     1     -38.633  59.922 -50.207  1.00  0.00    -0.050 Br
HETATM   19  C   UNL     1     -40.056  58.649 -52.326  1.00  0.00     0.024 A 
HETATM   20  C   UNL     1     -41.147  57.970 -52.873  1.00  0.00     0.050 A 
ENDBRANCH  11  13
ENDBRANCH   5  11
BRANCH   2  21
HETATM   21  O   UNL     1     -39.909  52.724 -51.108  1.00  0.00    -0.352 OA
HETATM   22  C   UNL     1     -40.254  51.534 -50.403  1.00  0.00     0.210 C 
ENDBRANCH   2  21
BRANCH   1  23
HETATM   23  O   UNL     1     -39.633  51.985 -53.814  1.00  0.00    -0.353 OA
HETATM   24  C   UNL     1     -40.114  50.726 -54.282  1.00  0.00     0.210 C 
ENDBRANCH   1  23
TORSDOF 4
ENDMDL
MODEL 3
REMARK VINA RESULT:      -7.1      3.626      4.693
REMARK  4 active torsions:
REMARK  status: ('A' for Active; 'I' for Inactive)
REMARK    1  A    between atoms: O_2  and  C_3 
REMARK    2  A    between atoms: C_4  and  O_5 
REMARK    3  A    between atoms: C_9  and  N_10 
REMARK    4  A    between atoms: N_10  and  C_11 
ROOT
HETATM    1  C   UNL     1     -39.825  51.792 -53.421  1.00  0.00     0.102 A 
HETATM    2  C   UNL     1     -39.886  52.009 -52.034  1.00  0.00     0.118 A 
HETATM    3  C   UNL     1     -40.570  53.144 -51.608  1.00  0.00     0.086 A 
HETATM    4  C   UNL     1     -41.156  54.034 -52.502  1.00  0.00     0.010 A 
HETATM    5  C   UNL     1     -41.772  55.158 -51.762  1.00  0.00     0.267 C 
HETATM    6  O   UNL     1     -41.574  54.797 -50.392  1.00  0.00    -0.287 OA
HETATM    7  C   UNL     1     -40.782  53.687 -50.266  1.00  0.00     0.299 C 
HETATM    8  O   UNL     1     -40.366  53.313 -49.192  1.00  0.00    -0.259 OA
HETATM    9  C   UNL     1     -41.092  53.822 -53.870  1.00  0.00     0.015 A 
HETATM   10  C   UNL     1     -40.412  52.695 -54.324  1.00  0.00     0.040 A 
ENDROOT
BRANCH   5  11
HETATM   11  N   UNL     1     -41.089  56.409 -52.044  1.00  0.00    -0.346 N 
HETATM   12  H   UNL     1     -40.724  56.420 -52.996  1.00  0.00     0.164 HD
BRANCH  11  13
HETATM   13  C   UNL     1     -41.610  57.640 -51.664  1.00  0.00     0.102 A 
HETATM   14  N   UNL     1     -42.899  57.964 -51.878  1.00  0.00    -0.351 N 
HETATM   15  H   UNL     1     -43.486  57.277 -52.356  1.00  0.00     0.166 HD
HETATM   16  C   UNL     1     -43.466  59.103 -51.456  1.00  0.00     0.109 A 
HETATM   17  C   UNL     1     -42.718  60.018 -50.732  1.00  0.00     0.026 A 
HETATM   18 BR   UNL     1     -43.504  61.622 -50.133  1.00  0.00    -0.050 Br
HETATM   19  C   UNL     1     -41.395  59.727 -50.439  1.00  0.00     0.024 A 
HETATM   20  C   UNL     1     -40.844  58.527 -50.893  1.00  0.00     0.050 A 
ENDBRANCH  11  13
ENDBRANCH   5  11
BRANCH   2  21
HETATM   21  O   UNL     1     -39.156  51.188 -51.228  1.00  0.00    -0.352 OA
HETATM   22  C   UNL     1     -39.827  50.038 -50.721  1.00  0.00     0.210 C 
ENDBRANCH   2  21
BRANCH   1  23
HETATM   23  O   UNL     1     -39.149  50.755 -54.013  1.00  0.00    -0.353 OA
HETATM   24  C   UNL     1     -40.005  49.779 -54.605  1.00  0.00     0.210 C 
ENDBRANCH   1  23
TORSDOF 4
ENDMDL
MODEL 4
REMARK VINA RESULT:      -7.0     14.100     15.448
REMARK  4 active torsions:
REMARK  status: ('A' for Active; 'I' for Inactive)
REMARK    1  A    between atoms: O_2  and  C_3 
REMARK    2  A    between atoms: C_4  and  O_5 
REMARK    3  A    between atoms: C_9  and  N_10 
REMARK    4  A    between atoms: N_10  and  C_11 
ROOT
HETATM    1  C   UNL     1     -34.846  40.152 -52.195  1.00  0.00     0.102 A 
HETATM    2  C   UNL     1     -34.201  40.149 -53.444  1.00  0.00     0.118 A 
HETATM    3  C   UNL     1     -34.680  41.042 -54.397  1.00  0.00     0.086 A 
HETATM    4  C   UNL     1     -35.752  41.891 -54.144  1.00  0.00     0.010 A 
HETATM    5  C   UNL     1     -36.057  42.690 -55.351  1.00  0.00     0.267 C 
HETATM    6  O   UNL     1     -35.032  42.301 -56.270  1.00  0.00    -0.287 OA
HETATM    7  C   UNL     1     -34.280  41.264 -55.787  1.00  0.00     0.299 C 
HETATM    8  O   UNL     1     -33.467  40.686 -56.473  1.00  0.00    -0.259 OA
HETATM    9  C   UNL     1     -36.391  41.891 -52.914  1.00  0.00     0.015 A 
HETATM   10  C   UNL     1     -35.934  41.006 -51.941  1.00  0.00     0.040 A 
ENDROOT
BRANCH   5  11
HETATM   11  N   UNL     1     -37.360  42.345 -55.894  1.00  0.00    -0.346 N 
HETATM   12  H   UNL     1     -38.011  43.125 -55.806  1.00  0.00     0.164 HD
BRANCH  11  13
HETATM   13  C   UNL     1     -37.507  41.669 -57.099  1.00  0.00     0.102 A 
HETATM   14  N   UNL     1     -37.109  42.205 -58.269  1.00  0.00    -0.351 N 
HETATM   15  H   UNL     1     -36.712  43.147 -58.246  1.00  0.00     0.166 HD
HETATM   16  C   UNL     1     -37.153  41.560 -59.443  1.00  0.00     0.109 A 
HETATM   17  C   UNL     1     -37.608  40.251 -59.494  1.00  0.00     0.026 A 
HETATM   18 BR   UNL     1     -37.674  39.334 -61.138  1.00  0.00    -0.050 Br
HETATM   19  C   UNL     1     -37.992  39.624 -58.319  1.00  0.00     0.024 A 
HETATM   20  C   UNL     1     -37.926  40.330 -57.115  1.00  0.00     0.050 A 
ENDBRANCH  11  13
ENDBRANCH   5  11
BRANCH   2  21
HETATM   21  O   UNL     1     -33.268  39.182 -53.676  1.00  0.00    -0.352 OA
HETATM   22  C   UNL     1     -31.906  39.565 -53.507  1.00  0.00     0.210 C 
ENDBRANCH   2  21
BRANCH   1  23
HETATM   23  O   UNL     1     -34.538  39.303 -51.162  1.00  0.00    -0.353 OA
HETATM   24  C   UNL     1     -33.674  39.882 -50.185  1.00  0.00     0.210 C 
ENDBRANCH   1  23
TORSDOF 4
ENDMDL
MODEL 5
REMARK VINA RESULT:      -6.9      3.368      4.396
REMARK  4 active torsions:
REMARK  status: ('A' for Active; 'I' for Inactive)
REMARK    1  A    between atoms: O_2  and  C_3 
REMARK    2  A    between atoms: C_4  and  O_5 
REMARK    3  A    between atoms: C_9  and  N_10 
REMARK    4  A    between atoms: N_10  and  C_11 
ROOT
HETATM    1  C   UNL     1     -39.661  51.518 -51.609  1.00  0.00     0.102 A 
HETATM    2  C   UNL     1     -39.710  52.055 -52.907  1.00  0.00     0.118 A 
HETATM    3  C   UNL     1     -40.265  53.324 -53.039  1.00  0.00     0.086 A 
HETATM    4  C   UNL     1     -40.761  54.031 -51.950  1.00  0.00     0.010 A 
HETATM    5  C   UNL     1     -41.321  55.324 -52.402  1.00  0.00     0.267 C 
HETATM    6  O   UNL     1     -41.025  55.339 -53.802  1.00  0.00    -0.287 OA
HETATM    7  C   UNL     1     -40.510  54.143 -54.226  1.00  0.00     0.299 C 
HETATM    8  O   UNL     1     -40.341  53.897 -55.399  1.00  0.00    -0.259 OA
HETATM    9  C   UNL     1     -40.717  53.501 -50.670  1.00  0.00     0.015 A 
HETATM   10  C   UNL     1     -40.169  52.231 -50.509  1.00  0.00     0.040 A 
ENDROOT
BRANCH   5  11
HETATM   11  N   UNL     1     -42.759  55.373 -52.203  1.00  0.00    -0.346 N 
HETATM   12  H   UNL     1     -43.047  54.739 -51.457  1.00  0.00     0.164 HD
BRANCH  11  13
HETATM   13  C   UNL     1     -43.465  56.570 -52.181  1.00  0.00     0.102 A 
HETATM   14  N   UNL     1     -43.453  57.422 -53.224  1.00  0.00    -0.351 N 
HETATM   15  H   UNL     1     -42.881  57.171 -54.033  1.00  0.00     0.166 HD
HETATM   16  C   UNL     1     -44.182  58.546 -53.283  1.00  0.00     0.109 A 
HETATM   17  C   UNL     1     -45.030  58.872 -52.236  1.00  0.00     0.026 A 
HETATM   18 BR   UNL     1     -46.060  60.448 -52.308  1.00  0.00    -0.050 Br
HETATM   19  C   UNL     1     -45.124  58.015 -51.151  1.00  0.00     0.024 A 
HETATM   20  C   UNL     1     -44.351  56.852 -51.131  1.00  0.00     0.050 A 
ENDBRANCH  11  13
ENDBRANCH   5  11
BRANCH   2  21
HETATM   21  O   UNL     1     -39.355  51.244 -53.945  1.00  0.00    -0.352 OA
HETATM   22  C   UNL     1     -40.346  50.325 -54.397  1.00  0.00     0.210 C 
ENDBRANCH   2  21
BRANCH   1  23
HETATM   23  O   UNL     1     -39.197  50.263 -51.307  1.00  0.00    -0.353 OA
HETATM   24  C   UNL     1     -40.173  49.425 -50.690  1.00  0.00     0.210 C 
ENDBRANCH   1  23
TORSDOF 4
ENDMDL
MODEL 6
REMARK VINA RESULT:      -6.8      4.279      6.920
REMARK  4 active torsions:
REMARK  status: ('A' for Active; 'I' for Inactive)
REMARK    1  A    between atoms: O_2  and  C_3 
REMARK    2  A    between atoms: C_4  and  O_5 
REMARK    3  A    between atoms: C_9  and  N_10 
REMARK    4  A    between atoms: N_10  and  C_11 
ROOT
HETATM    1  C   UNL     1     -44.305  58.967 -51.253  1.00  0.00     0.102 A 
HETATM    2  C   UNL     1     -43.124  59.381 -51.894  1.00  0.00     0.118 A 
HETATM    3  C   UNL     1     -42.378  58.394 -52.529  1.00  0.00     0.086 A 
HETATM    4  C   UNL     1     -42.763  57.058 -52.526  1.00  0.00     0.010 A 
HETATM    5  C   UNL     1     -41.757  56.243 -53.242  1.00  0.00     0.267 C 
HETATM    6  O   UNL     1     -40.829  57.218 -53.727  1.00  0.00    -0.287 OA
HETATM    7  C   UNL     1     -41.100  58.467 -53.238  1.00  0.00     0.299 C 
HETATM    8  O   UNL     1     -40.344  59.399 -53.400  1.00  0.00    -0.259 OA
HETATM    9  C   UNL     1     -43.924  56.648 -51.890  1.00  0.00     0.015 A 
HETATM   10  C   UNL     1     -44.690  57.615 -51.244  1.00  0.00     0.040 A 
ENDROOT
BRANCH   5  11
HETATM   11  N   UNL     1     -41.081  55.328 -52.339  1.00  0.00    -0.346 N 
HETATM   12  H   UNL     1     -41.549  55.296 -51.433  1.00  0.00     0.164 HD
BRANCH  11  13
HETATM   13  C   UNL     1     -40.634  54.077 -52.746  1.00  0.00     0.102 A 
HETATM   14  N   UNL     1     -40.177  53.164 -51.868  1.00  0.00    -0.351 N 
HETATM   15  H   UNL     1     -40.148  53.430 -50.881  1.00  0.00     0.166 HD
HETATM   16  C   UNL     1     -39.814  51.917 -52.202  1.00  0.00     0.109 A 
HETATM   17  C   UNL     1     -39.922  51.498 -53.519  1.00  0.00     0.026 A 
HETATM   18 BR   UNL     1     -39.416  49.749 -54.001  1.00  0.00    -0.050 Br
HETATM   19  C   UNL     1     -40.426  52.375 -54.467  1.00  0.00     0.024 A 
HETATM   20  C   UNL     1     -40.798  53.663 -54.076  1.00  0.00     0.050 A 
ENDBRANCH  11  13
ENDBRANCH   5  11
BRANCH   2  21
HETATM   21  O   UNL     1     -42.726  60.674 -51.721  1.00  0.00    -0.352 OA
HETATM   22  C   UNL     1     -43.051  61.582 -52.770  1.00  0.00     0.210 C 
ENDBRANCH   2  21
BRANCH   1  23
HETATM   23  O   UNL     1     -45.129  59.797 -50.537  1.00  0.00    -0.353 OA
HETATM   24  C   UNL     1     -46.236  60.291 -51.290  1.00  0.00     0.210 C 
ENDBRANCH   1  23
TORSDOF 4
ENDMDL
MODEL 7
REMARK VINA RESULT:      -6.7      3.711      6.705
REMARK  4 active torsions:
REMARK  status: ('A' for Active; 'I' for Inactive)
REMARK    1  A    between atoms: O_2  and  C_3 
REMARK    2  A    between atoms: C_4  and  O_5 
REMARK    3  A    between atoms: C_9  and  N_10 
REMARK    4  A    between atoms: N_10  and  C_11 
ROOT
HETATM    1  C   UNL     1     -41.909  59.156 -52.547  1.00  0.00     0.102 A 
HETATM    2  C   UNL     1     -42.645  58.076 -53.063  1.00  0.00     0.118 A 
HETATM    3  C   UNL     1     -42.538  56.865 -52.385  1.00  0.00     0.086 A 
HETATM    4  C   UNL     1     -41.735  56.716 -51.259  1.00  0.00     0.010 A 
HETATM    5  C   UNL     1     -41.791  55.316 -50.783  1.00  0.00     0.267 C 
HETATM    6  O   UNL     1     -42.747  54.710 -51.658  1.00  0.00    -0.287 OA
HETATM    7  C   UNL     1     -43.119  55.554 -52.670  1.00  0.00     0.299 C 
HETATM    8  O   UNL     1     -43.796  55.180 -53.602  1.00  0.00    -0.259 OA
HETATM    9  C   UNL     1     -41.005  57.780 -50.753  1.00  0.00     0.015 A 
HETATM   10  C   UNL     1     -41.092  59.003 -51.413  1.00  0.00     0.040 A 
ENDROOT
BRANCH   5  11
HETATM   11  N   UNL     1     -40.504  54.659 -50.931  1.00  0.00    -0.346 N 
HETATM   12  H   UNL     1     -40.022  54.593 -50.035  1.00  0.00     0.164 HD
BRANCH  11  13
HETATM   13  C   UNL     1     -40.338  53.516 -51.705  1.00  0.00     0.102 A 
HETATM   14  N   UNL     1     -40.386  53.555 -53.050  1.00  0.00    -0.351 N 
HETATM   15  H   UNL     1     -40.573  54.458 -53.491  1.00  0.00     0.166 HD
HETATM   16  C   UNL     1     -40.151  52.497 -53.840  1.00  0.00     0.109 A 
HETATM   17  C   UNL     1     -39.811  51.278 -53.275  1.00  0.00     0.026 A 
HETATM   18 BR   UNL     1     -39.477  49.785 -54.374  1.00  0.00    -0.050 Br
HETATM   19  C   UNL     1     -39.702  51.179 -51.897  1.00  0.00     0.024 A 
HETATM   20  C   UNL     1     -39.951  52.307 -51.110  1.00  0.00     0.050 A 
ENDBRANCH  11  13
ENDBRANCH   5  11
BRANCH   2  21
HETATM   21  O   UNL     1     -43.281  58.251 -54.256  1.00  0.00    -0.352 OA
HETATM   22  C   UNL     1     -44.663  58.593 -54.192  1.00  0.00     0.210 C 
ENDBRANCH   2  21
BRANCH   1  23
HETATM   23  O   UNL     1     -41.858  60.402 -53.119  1.00  0.00    -0.353 OA
HETATM   24  C   UNL     1     -42.805  61.320 -52.574  1.00  0.00     0.210 C 
ENDBRANCH   1  23
TORSDOF 4
ENDMDL
MODEL 8
REMARK VINA RESULT:      -6.7      1.550      2.249
REMARK  4 active torsions:
REMARK  status: ('A' for Active; 'I' for Inactive)
REMARK    1  A    between atoms: O_2  and  C_3 
REMARK    2  A    between atoms: C_4  and  O_5 
REMARK    3  A    between atoms: C_9  and  N_10 
REMARK    4  A    between atoms: N_10  and  C_11 
ROOT
HETATM    1  C   UNL     1     -40.712  53.682 -52.338  1.00  0.00     0.102 A 
HETATM    2  C   UNL     1     -41.742  54.629 -52.200  1.00  0.00     0.118 A 
HETATM    3  C   UNL     1     -42.432  54.978 -53.357  1.00  0.00     0.086 A 
HETATM    4  C   UNL     1     -42.119  54.433 -54.597  1.00  0.00     0.010 A 
HETATM    5  C   UNL     1     -42.990  55.020 -55.639  1.00  0.00     0.267 C 
HETATM    6  O   UNL     1     -43.873  55.862 -54.892  1.00  0.00    -0.287 OA
HETATM    7  C   UNL     1     -43.506  55.946 -53.576  1.00  0.00     0.299 C 
HETATM    8  O   UNL     1     -44.027  56.728 -52.813  1.00  0.00    -0.259 OA
HETATM    9  C   UNL     1     -41.101  53.502 -54.735  1.00  0.00     0.015 A 
HETATM   10  C   UNL     1     -40.392  53.137 -53.594  1.00  0.00     0.040 A 
ENDROOT
BRANCH   5  11
HETATM   11  N   UNL     1     -42.222  55.822 -56.576  1.00  0.00    -0.346 N 
HETATM   12  H   UNL     1     -41.446  55.286 -56.965  1.00  0.00     0.164 HD
BRANCH  11  13
HETATM   13  C   UNL     1     -42.826  56.640 -57.522  1.00  0.00     0.102 A 
HETATM   14  N   UNL     1     -44.074  56.406 -57.972  1.00  0.00    -0.351 N 
HETATM   15  H   UNL     1     -44.561  55.584 -57.609  1.00  0.00     0.166 HD
HETATM   16  C   UNL     1     -44.729  57.212 -58.820  1.00  0.00     0.109 A 
HETATM   17  C   UNL     1     -44.128  58.379 -59.265  1.00  0.00     0.026 A 
HETATM   18 BR   UNL     1     -45.039  59.520 -60.456  1.00  0.00    -0.050 Br
HETATM   19  C   UNL     1     -42.860  58.703 -58.806  1.00  0.00     0.024 A 
HETATM   20  C   UNL     1     -42.214  57.838 -57.920  1.00  0.00     0.050 A 
ENDBRANCH  11  13
ENDBRANCH   5  11
BRANCH   2  21
HETATM   21  O   UNL     1     -41.887  55.239 -50.989  1.00  0.00    -0.352 OA
HETATM   22  C   UNL     1     -41.147  56.441 -50.793  1.00  0.00     0.210 C 
ENDBRANCH   2  21
BRANCH   1  23
HETATM   23  O   UNL     1     -39.900  53.266 -51.314  1.00  0.00    -0.353 OA
HETATM   24  C   UNL     1     -39.868  51.849 -51.151  1.00  0.00     0.210 C 
ENDBRANCH   1  23
TORSDOF 4
ENDMDL
MODEL 9
REMARK VINA RESULT:      -6.4      3.453      4.628
REMARK  4 active torsions:
REMARK  status: ('A' for Active; 'I' for Inactive)
REMARK    1  A    between atoms: O_2  and  C_3 
REMARK    2  A    between atoms: C_4  and  O_5 
REMARK    3  A    between atoms: C_9  and  N_10 
REMARK    4  A    between atoms: N_10  and  C_11 
ROOT
HETATM    1  C   UNL     1     -40.378  54.299 -50.272  1.00  0.00     0.102 A 
HETATM    2  C   UNL     1     -40.660  53.576 -51.444  1.00  0.00     0.118 A 
HETATM    3  C   UNL     1     -41.389  54.237 -52.427  1.00  0.00     0.086 A 
HETATM    4  C   UNL     1     -41.834  55.545 -52.265  1.00  0.00     0.010 A 
HETATM    5  C   UNL     1     -42.611  55.964 -53.452  1.00  0.00     0.267 C 
HETATM    6  O   UNL     1     -42.498  54.840 -54.331  1.00  0.00    -0.287 OA
HETATM    7  C   UNL     1     -41.887  53.776 -53.722  1.00  0.00     0.299 C 
HETATM    8  O   UNL     1     -41.837  52.683 -54.240  1.00  0.00    -0.259 OA
HETATM    9  C   UNL     1     -41.559  56.257 -51.108  1.00  0.00     0.015 A 
HETATM   10  C   UNL     1     -40.833  55.619 -50.106  1.00  0.00     0.040 A 
ENDROOT
BRANCH   5  11
HETATM   11  N   UNL     1     -44.007  56.186 -53.115  1.00  0.00    -0.346 N 
HETATM   12  H   UNL     1     -44.370  55.424 -52.542  1.00  0.00     0.164 HD
BRANCH  11  13
HETATM   13  C   UNL     1     -44.484  57.426 -52.709  1.00  0.00     0.102 A 
HETATM   14  N   UNL     1     -44.739  58.412 -53.589  1.00  0.00    -0.351 N 
HETATM   15  H   UNL     1     -44.547  58.227 -54.576  1.00  0.00     0.166 HD
HETATM   16  C   UNL     1     -45.278  59.594 -53.256  1.00  0.00     0.109 A 
HETATM   17  C   UNL     1     -45.629  59.844 -51.939  1.00  0.00     0.026 A 
HETATM   18 BR   UNL     1     -46.387  61.501 -51.459  1.00  0.00    -0.050 Br
HETATM   19  C   UNL     1     -45.433  58.854 -50.988  1.00  0.00     0.024 A 
HETATM   20  C   UNL     1     -44.874  57.635 -51.378  1.00  0.00     0.050 A 
ENDBRANCH  11  13
ENDBRANCH   5  11
BRANCH   2  21
HETATM   21  O   UNL     1     -40.335  52.252 -51.469  1.00  0.00    -0.352 OA
HETATM   22  C   UNL     1     -39.138  51.908 -52.162  1.00  0.00     0.210 C 
ENDBRANCH   2  21
BRANCH   1  23
HETATM   23  O   UNL     1     -39.718  53.785 -49.185  1.00  0.00    -0.353 OA
HETATM   24  C   UNL     1     -40.454  53.887 -47.968  1.00  0.00     0.210 C 
ENDBRANCH   1  23
TORSDOF 4
ENDMDL
MODEL 10
REMARK VINA RESULT:      -6.3      3.980      7.106
REMARK  4 active torsions:
REMARK  status: ('A' for Active; 'I' for Inactive)
REMARK    1  A    between atoms: O_2  and  C_3 
REMARK    2  A    between atoms: C_4  and  O_5 
REMARK    3  A    between atoms: C_9  and  N_10 
REMARK    4  A    between atoms: N_10  and  C_11 
ROOT
HETATM    1  C   UNL     1     -44.452  57.952 -53.516  1.00  0.00     0.102 A 
HETATM    2  C   UNL     1     -44.111  57.862 -54.877  1.00  0.00     0.118 A 
HETATM    3  C   UNL     1     -43.438  56.713 -55.279  1.00  0.00     0.086 A 
HETATM    4  C   UNL     1     -43.102  55.701 -54.386  1.00  0.00     0.010 A 
HETATM    5  C   UNL     1     -42.361  54.632 -55.091  1.00  0.00     0.267 C 
HETATM    6  O   UNL     1     -42.382  55.064 -56.455  1.00  0.00    -0.287 OA
HETATM    7  C   UNL     1     -42.904  56.323 -56.584  1.00  0.00     0.299 C 
HETATM    8  O   UNL     1     -42.865  56.930 -57.630  1.00  0.00    -0.259 OA
HETATM    9  C   UNL     1     -43.434  55.791 -53.043  1.00  0.00     0.015 A 
HETATM   10  C   UNL     1     -44.106  56.932 -52.612  1.00  0.00     0.040 A 
ENDROOT
BRANCH   5  11
HETATM   11  N   UNL     1     -40.989  54.547 -54.623  1.00  0.00    -0.346 N 
HETATM   12  H   UNL     1     -40.657  55.455 -54.295  1.00  0.00     0.164 HD
BRANCH  11  13
HETATM   13  C   UNL     1     -40.539  53.502 -53.826  1.00  0.00     0.102 A 
HETATM   14  N   UNL     1     -40.527  53.586 -52.483  1.00  0.00    -0.351 N 
HETATM   15  H   UNL     1     -40.841  54.462 -52.061  1.00  0.00     0.166 HD
HETATM   16  C   UNL     1     -40.182  52.576 -51.671  1.00  0.00     0.109 A 
HETATM   17  C   UNL     1     -39.832  51.348 -52.210  1.00  0.00     0.026 A 
HETATM   18 BR   UNL     1     -39.346  49.921 -51.079  1.00  0.00    -0.050 Br
HETATM   19  C   UNL     1     -39.865  51.180 -53.585  1.00  0.00     0.024 A 
HETATM   20  C   UNL     1     -40.235  52.256 -54.395  1.00  0.00     0.050 A 
ENDBRANCH  11  13
ENDBRANCH   5  11
BRANCH   2  21
HETATM   21  O   UNL     1     -44.328  58.957 -55.661  1.00  0.00    -0.352 OA
HETATM   22  C   UNL     1     -45.495  58.929 -56.478  1.00  0.00     0.210 C 
ENDBRANCH   2  21
BRANCH   1  23
HETATM   23  O   UNL     1     -45.068  59.035 -52.942  1.00  0.00    -0.353 OA
HETATM   24  C   UNL     1     -44.751  59.208 -51.562  1.00  0.00     0.210 C 
ENDBRANCH   1  23
TORSDOF 4
ENDMDL
