MODEL 1
REMARK VINA RESULT:      -8.3      0.000      0.000
REMARK  5 active torsions:
REMARK  status: ('A' for Active; 'I' for Inactive)
REMARK    1  A    between atoms: O_2  and  C_3 
REMARK    2  A    between atoms: C_4  and  N_5 
REMARK    3  A    between atoms: N_5  and  C_6 
REMARK    4  A    between atoms: C_6  and  C_7 
REMARK       I    between atoms: C_7  and  N_8 
REMARK    5  A    between atoms: N_8  and  C_9 
ROOT
HETATM    1  C   UNL     1     -43.075  55.703 -54.485  1.00  0.00     0.235 C 
HETATM    2  N   UNL     1     -41.789  55.489 -54.017  1.00  0.00    -0.326 N 
HETATM    3  O   UNL     1     -44.031  54.942 -54.364  1.00  0.00    -0.272 OA
HETATM    4  H   UNL     1     -41.176  56.295 -54.012  1.00  0.00     0.169 HD
ENDROOT
BRANCH   1   5
HETATM    5  C   UNL     1     -43.232  57.045 -55.215  1.00  0.00     0.195 C 
BRANCH   5   6
HETATM    6  N   UNL     1     -43.887  56.883 -56.511  1.00  0.00    -0.282 NA
HETATM    7  H   UNL     1     -44.825  57.293 -56.508  1.00  0.00     0.128 HD
BRANCH   6   8
HETATM    8  C   UNL     1     -43.248  57.179 -57.719  1.00  0.00     0.042 A 
HETATM    9  C   UNL     1     -43.159  56.180 -58.711  1.00  0.00     0.089 A 
HETATM   10  C   UNL     1     -42.519  56.401 -59.932  1.00  0.00     0.038 A 
HETATM   11  C   UNL     1     -41.879  57.614 -60.160  1.00  0.00     0.003 A 
HETATM   12  C   UNL     1     -41.884  58.592 -59.168  1.00  0.00     0.002 A 
HETATM   13  C   UNL     1     -42.551  58.369 -57.954  1.00  0.00     0.026 A 
BRANCH   9  14
HETATM   14  O   UNL     1     -43.756  54.954 -58.529  1.00  0.00    -0.354 OA
HETATM   15  C   UNL     1     -44.444  54.554 -59.718  1.00  0.00     0.210 C 
ENDBRANCH   9  14
ENDBRANCH   6   8
ENDBRANCH   5   6
ENDBRANCH   1   5
BRANCH   2  16
HETATM   16  C   UNL     1     -41.257  54.296 -53.484  1.00  0.00     0.035 A 
HETATM   17  C   UNL     1     -41.030  53.140 -54.234  1.00  0.00     0.042 A 
HETATM   18  C   UNL     1     -40.447  51.995 -53.657  1.00  0.00    -0.024 A 
HETATM   19  C   UNL     1     -40.081  52.016 -52.293  1.00  0.00    -0.026 A 
HETATM   20  C   UNL     1     -40.216  50.833 -54.410  1.00  0.00     0.012 A 
HETATM   21  C   UNL     1     -40.316  53.176 -51.542  1.00  0.00     0.014 A 
HETATM   22  C   UNL     1     -39.487  50.878 -51.722  1.00  0.00     0.012 A 
HETATM   23  C   UNL     1     -40.898  54.302 -52.133  1.00  0.00     0.030 A 
HETATM   24  C   UNL     1     -39.261  49.732 -52.487  1.00  0.00     0.001 A 
HETATM   25  C   UNL     1     -39.626  49.709 -53.829  1.00  0.00     0.001 A 
ENDBRANCH   2  16
TORSDOF 5
ENDMDL
MODEL 2
REMARK VINA RESULT:      -8.3      1.197      2.073
REMARK  5 active torsions:
REMARK  status: ('A' for Active; 'I' for Inactive)
REMARK    1  A    between atoms: O_2  and  C_3 
REMARK    2  A    between atoms: C_4  and  N_5 
REMARK    3  A    between atoms: N_5  and  C_6 
REMARK    4  A    between atoms: C_6  and  C_7 
REMARK       I    between atoms: C_7  and  N_8 
REMARK    5  A    between atoms: N_8  and  C_9 
ROOT
HETATM    1  C   UNL     1     -42.689  55.999 -55.019  1.00  0.00     0.235 C 
HETATM    2  N   UNL     1     -41.401  55.590 -54.712  1.00  0.00    -0.326 N 
HETATM    3  O   UNL     1     -43.730  55.531 -54.565  1.00  0.00    -0.272 OA
HETATM    4  H   UNL     1     -40.655  56.209 -55.004  1.00  0.00     0.169 HD
ENDROOT
BRANCH   1   5
HETATM    5  C   UNL     1     -42.727  57.151 -56.033  1.00  0.00     0.195 C 
BRANCH   5   6
HETATM    6  N   UNL     1     -42.159  56.759 -57.320  1.00  0.00    -0.282 NA
HETATM    7  H   UNL     1     -41.387  56.096 -57.201  1.00  0.00     0.128 HD
BRANCH   6   8
HETATM    8  C   UNL     1     -42.950  56.369 -58.405  1.00  0.00     0.042 A 
HETATM    9  C   UNL     1     -43.380  57.346 -59.328  1.00  0.00     0.089 A 
HETATM   10  C   UNL     1     -44.187  57.029 -60.422  1.00  0.00     0.038 A 
HETATM   11  C   UNL     1     -44.651  55.729 -60.577  1.00  0.00     0.003 A 
HETATM   12  C   UNL     1     -44.307  54.758 -59.638  1.00  0.00     0.002 A 
HETATM   13  C   UNL     1     -43.476  55.081 -58.556  1.00  0.00     0.026 A 
BRANCH   9  14
HETATM   14  O   UNL     1     -42.967  58.653 -59.210  1.00  0.00    -0.354 OA
HETATM   15  C   UNL     1     -42.061  58.985 -60.266  1.00  0.00     0.210 C 
ENDBRANCH   9  14
ENDBRANCH   6   8
ENDBRANCH   5   6
ENDBRANCH   1   5
BRANCH   2  16
HETATM   16  C   UNL     1     -41.015  54.447 -53.980  1.00  0.00     0.035 A 
HETATM   17  C   UNL     1     -40.797  53.191 -54.552  1.00  0.00     0.042 A 
HETATM   18  C   UNL     1     -40.361  52.100 -53.777  1.00  0.00    -0.024 A 
HETATM   19  C   UNL     1     -40.136  52.276 -52.394  1.00  0.00    -0.026 A 
HETATM   20  C   UNL     1     -40.139  50.837 -54.351  1.00  0.00     0.012 A 
HETATM   21  C   UNL     1     -40.363  53.536 -51.823  1.00  0.00     0.014 A 
HETATM   22  C   UNL     1     -39.689  51.189 -51.625  1.00  0.00     0.012 A 
HETATM   23  C   UNL     1     -40.798  54.608 -52.609  1.00  0.00     0.030 A 
HETATM   24  C   UNL     1     -39.470  49.942 -52.213  1.00  0.00     0.001 A 
HETATM   25  C   UNL     1     -39.696  49.766 -53.574  1.00  0.00     0.001 A 
ENDBRANCH   2  16
TORSDOF 5
ENDMDL
MODEL 3
REMARK VINA RESULT:      -7.7      2.326      2.909
REMARK  5 active torsions:
REMARK  status: ('A' for Active; 'I' for Inactive)
REMARK    1  A    between atoms: O_2  and  C_3 
REMARK    2  A    between atoms: C_4  and  N_5 
REMARK    3  A    between atoms: N_5  and  C_6 
REMARK    4  A    between atoms: C_6  and  C_7 
REMARK       I    between atoms: C_7  and  N_8 
REMARK    5  A    between atoms: N_8  and  C_9 
ROOT
HETATM    1  C   UNL     1     -42.442  56.375 -51.565  1.00  0.00     0.235 C 
HETATM    2  N   UNL     1     -41.287  55.840 -52.114  1.00  0.00    -0.326 N 
HETATM    3  O   UNL     1     -43.244  55.789 -50.843  1.00  0.00    -0.272 OA
HETATM    4  H   UNL     1     -40.632  56.504 -52.507  1.00  0.00     0.169 HD
ENDROOT
BRANCH   1   5
HETATM    5  C   UNL     1     -42.662  57.845 -51.946  1.00  0.00     0.195 C 
BRANCH   5   6
HETATM    6  N   UNL     1     -41.677  58.306 -52.921  1.00  0.00    -0.282 NA
HETATM    7  H   UNL     1     -40.885  57.659 -52.986  1.00  0.00     0.128 HD
BRANCH   6   8
HETATM    8  C   UNL     1     -42.031  58.745 -54.200  1.00  0.00     0.042 A 
HETATM    9  C   UNL     1     -42.118  57.804 -55.249  1.00  0.00     0.089 A 
HETATM   10  C   UNL     1     -42.447  58.176 -56.554  1.00  0.00     0.038 A 
HETATM   11  C   UNL     1     -42.623  59.520 -56.860  1.00  0.00     0.003 A 
HETATM   12  C   UNL     1     -42.466  60.479 -55.861  1.00  0.00     0.002 A 
HETATM   13  C   UNL     1     -42.160  60.094 -54.548  1.00  0.00     0.026 A 
BRANCH   9  14
HETATM   14  O   UNL     1     -41.933  56.463 -55.006  1.00  0.00    -0.354 OA
HETATM   15  C   UNL     1     -42.639  55.680 -55.973  1.00  0.00     0.210 C 
ENDBRANCH   9  14
ENDBRANCH   6   8
ENDBRANCH   5   6
ENDBRANCH   1   5
BRANCH   2  16
HETATM   16  C   UNL     1     -40.891  54.487 -52.129  1.00  0.00     0.035 A 
HETATM   17  C   UNL     1     -40.908  53.681 -53.269  1.00  0.00     0.042 A 
HETATM   18  C   UNL     1     -40.450  52.350 -53.232  1.00  0.00    -0.024 A 
HETATM   19  C   UNL     1     -39.961  51.818 -52.019  1.00  0.00    -0.026 A 
HETATM   20  C   UNL     1     -40.463  51.539 -54.379  1.00  0.00     0.012 A 
HETATM   21  C   UNL     1     -39.952  52.627 -50.874  1.00  0.00     0.014 A 
HETATM   22  C   UNL     1     -39.492  50.494 -51.986  1.00  0.00     0.012 A 
HETATM   23  C   UNL     1     -40.413  53.946 -50.931  1.00  0.00     0.030 A 
HETATM   24  C   UNL     1     -39.509  49.703 -53.137  1.00  0.00     0.001 A 
HETATM   25  C   UNL     1     -39.996  50.224 -54.331  1.00  0.00     0.001 A 
ENDBRANCH   2  16
TORSDOF 5
ENDMDL
MODEL 4
REMARK VINA RESULT:      -7.7      1.001      1.813
REMARK  5 active torsions:
REMARK  status: ('A' for Active; 'I' for Inactive)
REMARK    1  A    between atoms: O_2  and  C_3 
REMARK    2  A    between atoms: C_4  and  N_5 
REMARK    3  A    between atoms: N_5  and  C_6 
REMARK    4  A    between atoms: C_6  and  C_7 
REMARK       I    between atoms: C_7  and  N_8 
REMARK    5  A    between atoms: N_8  and  C_9 
ROOT
HETATM    1  C   UNL     1     -42.760  55.650 -54.808  1.00  0.00     0.235 C 
HETATM    2  N   UNL     1     -41.438  55.342 -54.529  1.00  0.00    -0.326 N 
HETATM    3  O   UNL     1     -43.749  55.030 -54.424  1.00  0.00    -0.272 OA
HETATM    4  H   UNL     1     -40.759  56.063 -54.739  1.00  0.00     0.169 HD
ENDROOT
BRANCH   1   5
HETATM    5  C   UNL     1     -42.914  56.899 -55.686  1.00  0.00     0.195 C 
BRANCH   5   6
HETATM    6  N   UNL     1     -42.170  56.776 -56.937  1.00  0.00    -0.282 NA
HETATM    7  H   UNL     1     -42.003  55.794 -57.177  1.00  0.00     0.128 HD
BRANCH   6   8
HETATM    8  C   UNL     1     -42.512  57.490 -58.090  1.00  0.00     0.042 A 
HETATM    9  C   UNL     1     -43.367  56.891 -59.040  1.00  0.00     0.089 A 
HETATM   10  C   UNL     1     -43.733  57.539 -60.221  1.00  0.00     0.038 A 
HETATM   11  C   UNL     1     -43.186  58.780 -60.519  1.00  0.00     0.003 A 
HETATM   12  C   UNL     1     -42.278  59.362 -59.637  1.00  0.00     0.002 A 
HETATM   13  C   UNL     1     -41.935  58.715 -58.441  1.00  0.00     0.026 A 
BRANCH   9  14
HETATM   14  O   UNL     1     -43.921  55.654 -58.804  1.00  0.00    -0.354 OA
HETATM   15  C   UNL     1     -44.273  55.024 -60.039  1.00  0.00     0.210 C 
ENDBRANCH   9  14
ENDBRANCH   6   8
ENDBRANCH   5   6
ENDBRANCH   1   5
BRANCH   2  16
HETATM   16  C   UNL     1     -40.938  54.170 -53.925  1.00  0.00     0.035 A 
HETATM   17  C   UNL     1     -40.996  53.914 -52.553  1.00  0.00     0.042 A 
HETATM   18  C   UNL     1     -40.526  52.700 -52.015  1.00  0.00    -0.024 A 
HETATM   19  C   UNL     1     -39.990  51.720 -52.878  1.00  0.00    -0.026 A 
HETATM   20  C   UNL     1     -40.586  52.440 -50.636  1.00  0.00     0.012 A 
HETATM   21  C   UNL     1     -39.927  51.983 -54.253  1.00  0.00     0.014 A 
HETATM   22  C   UNL     1     -39.534  50.504 -52.340  1.00  0.00     0.012 A 
HETATM   23  C   UNL     1     -40.396  53.196 -54.769  1.00  0.00     0.030 A 
HETATM   24  C   UNL     1     -39.604  50.260 -50.967  1.00  0.00     0.001 A 
HETATM   25  C   UNL     1     -40.128  51.227 -50.116  1.00  0.00     0.001 A 
ENDBRANCH   2  16
TORSDOF 5
ENDMDL
MODEL 5
REMARK VINA RESULT:      -7.5      2.051      3.305
REMARK  5 active torsions:
REMARK  status: ('A' for Active; 'I' for Inactive)
REMARK    1  A    between atoms: O_2  and  C_3 
REMARK    2  A    between atoms: C_4  and  N_5 
REMARK    3  A    between atoms: N_5  and  C_6 
REMARK    4  A    between atoms: C_6  and  C_7 
REMARK       I    between atoms: C_7  and  N_8 
REMARK    5  A    between atoms: N_8  and  C_9 
ROOT
HETATM    1  C   UNL     1     -42.619  56.415 -56.084  1.00  0.00     0.235 C 
HETATM    2  N   UNL     1     -41.348  55.967 -55.765  1.00  0.00    -0.326 N 
HETATM    3  O   UNL     1     -43.647  56.207 -55.445  1.00  0.00    -0.272 OA
HETATM    4  H   UNL     1     -40.584  56.397 -56.272  1.00  0.00     0.169 HD
ENDROOT
BRANCH   1   5
HETATM    5  C   UNL     1     -42.657  57.242 -57.377  1.00  0.00     0.195 C 
BRANCH   5   6
HETATM    6  N   UNL     1     -44.023  57.600 -57.752  1.00  0.00    -0.282 NA
HETATM    7  H   UNL     1     -44.146  58.616 -57.788  1.00  0.00     0.128 HD
BRANCH   6   8
HETATM    8  C   UNL     1     -44.688  57.008 -58.830  1.00  0.00     0.042 A 
HETATM    9  C   UNL     1     -46.066  57.257 -59.007  1.00  0.00     0.089 A 
HETATM   10  C   UNL     1     -46.796  56.683 -60.050  1.00  0.00     0.038 A 
HETATM   11  C   UNL     1     -46.176  55.779 -60.903  1.00  0.00     0.003 A 
HETATM   12  C   UNL     1     -44.835  55.454 -60.706  1.00  0.00     0.002 A 
HETATM   13  C   UNL     1     -44.104  56.054 -59.670  1.00  0.00     0.026 A 
BRANCH   9  14
HETATM   14  O   UNL     1     -46.735  58.128 -58.178  1.00  0.00    -0.354 OA
HETATM   15  C   UNL     1     -47.358  59.163 -58.944  1.00  0.00     0.210 C 
ENDBRANCH   9  14
ENDBRANCH   6   8
ENDBRANCH   5   6
ENDBRANCH   1   5
BRANCH   2  16
HETATM   16  C   UNL     1     -40.991  55.034 -54.769  1.00  0.00     0.035 A 
HETATM   17  C   UNL     1     -41.139  55.260 -53.399  1.00  0.00     0.042 A 
HETATM   18  C   UNL     1     -40.813  54.268 -52.454  1.00  0.00    -0.024 A 
HETATM   19  C   UNL     1     -40.330  53.018 -52.899  1.00  0.00    -0.026 A 
HETATM   20  C   UNL     1     -40.964  54.493 -51.076  1.00  0.00     0.012 A 
HETATM   21  C   UNL     1     -40.176  52.797 -54.274  1.00  0.00     0.014 A 
HETATM   22  C   UNL     1     -40.018  52.025 -51.955  1.00  0.00     0.012 A 
HETATM   23  C   UNL     1     -40.503  53.796 -55.198  1.00  0.00     0.030 A 
HETATM   24  C   UNL     1     -40.178  52.264 -50.589  1.00  0.00     0.001 A 
HETATM   25  C   UNL     1     -40.649  53.497 -50.150  1.00  0.00     0.001 A 
ENDBRANCH   2  16
TORSDOF 5
ENDMDL
MODEL 6
REMARK VINA RESULT:      -7.5      1.978      3.506
REMARK  5 active torsions:
REMARK  status: ('A' for Active; 'I' for Inactive)
REMARK    1  A    between atoms: O_2  and  C_3 
REMARK    2  A    between atoms: C_4  and  N_5 
REMARK    3  A    between atoms: N_5  and  C_6 
REMARK    4  A    between atoms: C_6  and  C_7 
REMARK       I    between atoms: C_7  and  N_8 
REMARK    5  A    between atoms: N_8  and  C_9 
ROOT
HETATM    1  C   UNL     1     -42.976  56.341 -56.115  1.00  0.00     0.235 C 
HETATM    2  N   UNL     1     -41.704  55.818 -55.952  1.00  0.00    -0.326 N 
HETATM    3  O   UNL     1     -43.881  56.328 -55.284  1.00  0.00    -0.272 OA
HETATM    4  H   UNL     1     -41.017  56.093 -56.643  1.00  0.00     0.169 HD
ENDROOT
BRANCH   1   5
HETATM    5  C   UNL     1     -43.191  56.978 -57.495  1.00  0.00     0.195 C 
BRANCH   5   6
HETATM    6  N   UNL     1     -41.933  57.423 -58.088  1.00  0.00    -0.282 NA
HETATM    7  H   UNL     1     -41.444  56.650 -58.549  1.00  0.00     0.128 HD
BRANCH   6   8
HETATM    8  C   UNL     1     -41.837  58.575 -58.875  1.00  0.00     0.042 A 
HETATM    9  C   UNL     1     -41.712  59.830 -58.243  1.00  0.00     0.089 A 
HETATM   10  C   UNL     1     -41.631  61.021 -58.967  1.00  0.00     0.038 A 
HETATM   11  C   UNL     1     -41.752  60.991 -60.351  1.00  0.00     0.003 A 
HETATM   12  C   UNL     1     -41.955  59.773 -60.998  1.00  0.00     0.002 A 
HETATM   13  C   UNL     1     -42.010  58.580 -60.263  1.00  0.00     0.026 A 
BRANCH   9  14
HETATM   14  O   UNL     1     -41.609  59.920 -56.874  1.00  0.00    -0.354 OA
HETATM   15  C   UNL     1     -42.546  60.875 -56.366  1.00  0.00     0.210 C 
ENDBRANCH   9  14
ENDBRANCH   6   8
ENDBRANCH   5   6
ENDBRANCH   1   5
BRANCH   2  16
HETATM   16  C   UNL     1     -41.239  55.002 -54.899  1.00  0.00     0.035 A 
HETATM   17  C   UNL     1     -41.348  55.335 -53.547  1.00  0.00     0.042 A 
HETATM   18  C   UNL     1     -40.912  54.454 -52.539  1.00  0.00    -0.024 A 
HETATM   19  C   UNL     1     -40.356  53.208 -52.899  1.00  0.00    -0.026 A 
HETATM   20  C   UNL     1     -41.024  54.787 -51.179  1.00  0.00     0.012 A 
HETATM   21  C   UNL     1     -40.241  52.880 -54.257  1.00  0.00     0.014 A 
HETATM   22  C   UNL     1     -39.933  52.325 -51.891  1.00  0.00     0.012 A 
HETATM   23  C   UNL     1     -40.678  53.768 -55.244  1.00  0.00     0.030 A 
HETATM   24  C   UNL     1     -40.055  52.670 -50.544  1.00  0.00     0.001 A 
HETATM   25  C   UNL     1     -40.598  53.900 -50.188  1.00  0.00     0.001 A 
ENDBRANCH   2  16
TORSDOF 5
ENDMDL
MODEL 7
REMARK VINA RESULT:      -7.5      2.106      8.412
REMARK  5 active torsions:
REMARK  status: ('A' for Active; 'I' for Inactive)
REMARK    1  A    between atoms: O_2  and  C_3 
REMARK    2  A    between atoms: C_4  and  N_5 
REMARK    3  A    between atoms: N_5  and  C_6 
REMARK    4  A    between atoms: C_6  and  C_7 
REMARK       I    between atoms: C_7  and  N_8 
REMARK    5  A    between atoms: N_8  and  C_9 
ROOT
HETATM    1  C   UNL     1     -42.043  55.280 -55.626  1.00  0.00     0.235 C 
HETATM    2  N   UNL     1     -42.084  56.212 -56.650  1.00  0.00    -0.326 N 
HETATM    3  O   UNL     1     -42.926  54.475 -55.338  1.00  0.00    -0.272 OA
HETATM    4  H   UNL     1     -41.203  56.651 -56.887  1.00  0.00     0.169 HD
ENDROOT
BRANCH   1   5
HETATM    5  C   UNL     1     -40.736  55.327 -54.822  1.00  0.00     0.195 C 
BRANCH   5   6
HETATM    6  N   UNL     1     -40.923  54.847 -53.455  1.00  0.00    -0.282 NA
HETATM    7  H   UNL     1     -41.878  55.017 -53.127  1.00  0.00     0.128 HD
BRANCH   6   8
HETATM    8  C   UNL     1     -40.500  53.582 -53.036  1.00  0.00     0.042 A 
HETATM    9  C   UNL     1     -40.280  53.352 -51.662  1.00  0.00     0.089 A 
HETATM   10  C   UNL     1     -39.839  52.119 -51.177  1.00  0.00     0.038 A 
HETATM   11  C   UNL     1     -39.533  51.101 -52.072  1.00  0.00     0.003 A 
HETATM   12  C   UNL     1     -39.666  51.325 -53.440  1.00  0.00     0.002 A 
HETATM   13  C   UNL     1     -40.133  52.559 -53.916  1.00  0.00     0.026 A 
BRANCH   9  14
HETATM   14  O   UNL     1     -40.547  54.332 -50.734  1.00  0.00    -0.354 OA
HETATM   15  C   UNL     1     -39.659  54.217 -49.619  1.00  0.00     0.210 C 
ENDBRANCH   9  14
ENDBRANCH   6   8
ENDBRANCH   5   6
ENDBRANCH   1   5
BRANCH   2  16
HETATM   16  C   UNL     1     -43.194  56.568 -57.444  1.00  0.00     0.035 A 
HETATM   17  C   UNL     1     -43.609  55.853 -58.571  1.00  0.00     0.042 A 
HETATM   18  C   UNL     1     -44.758  56.229 -59.293  1.00  0.00    -0.024 A 
HETATM   19  C   UNL     1     -45.509  57.347 -58.870  1.00  0.00    -0.026 A 
HETATM   20  C   UNL     1     -45.178  55.509 -60.424  1.00  0.00     0.012 A 
HETATM   21  C   UNL     1     -45.085  58.066 -57.744  1.00  0.00     0.014 A 
HETATM   22  C   UNL     1     -46.662  57.712 -59.585  1.00  0.00     0.012 A 
HETATM   23  C   UNL     1     -43.940  57.679 -57.040  1.00  0.00     0.030 A 
HETATM   24  C   UNL     1     -47.068  56.984 -60.705  1.00  0.00     0.001 A 
HETATM   25  C   UNL     1     -46.326  55.885 -61.125  1.00  0.00     0.001 A 
ENDBRANCH   2  16
TORSDOF 5
ENDMDL
MODEL 8
REMARK VINA RESULT:      -7.3      1.829      3.014
REMARK  5 active torsions:
REMARK  status: ('A' for Active; 'I' for Inactive)
REMARK    1  A    between atoms: O_2  and  C_3 
REMARK    2  A    between atoms: C_4  and  N_5 
REMARK    3  A    between atoms: N_5  and  C_6 
REMARK    4  A    between atoms: C_6  and  C_7 
REMARK       I    between atoms: C_7  and  N_8 
REMARK    5  A    between atoms: N_8  and  C_9 
ROOT
HETATM    1  C   UNL     1     -43.587  57.182 -55.347  1.00  0.00     0.235 C 
HETATM    2  N   UNL     1     -43.666  55.816 -55.128  1.00  0.00    -0.326 N 
HETATM    3  O   UNL     1     -42.601  57.893 -55.169  1.00  0.00    -0.272 OA
HETATM    4  H   UNL     1     -44.474  55.348 -55.519  1.00  0.00     0.169 HD
ENDROOT
BRANCH   1   5
HETATM    5  C   UNL     1     -44.903  57.784 -55.858  1.00  0.00     0.195 C 
BRANCH   5   6
HETATM    6  N   UNL     1     -45.141  57.454 -57.261  1.00  0.00    -0.282 NA
HETATM    7  H   UNL     1     -45.882  58.038 -57.661  1.00  0.00     0.128 HD
BRANCH   6   8
HETATM    8  C   UNL     1     -44.104  57.310 -58.188  1.00  0.00     0.042 A 
HETATM    9  C   UNL     1     -43.547  58.464 -58.779  1.00  0.00     0.089 A 
HETATM   10  C   UNL     1     -42.523  58.393 -59.725  1.00  0.00     0.038 A 
HETATM   11  C   UNL     1     -42.082  57.151 -60.165  1.00  0.00     0.003 A 
HETATM   12  C   UNL     1     -42.668  55.993 -59.657  1.00  0.00     0.002 A 
HETATM   13  C   UNL     1     -43.679  56.075 -58.688  1.00  0.00     0.026 A 
BRANCH   9  14
HETATM   14  O   UNL     1     -43.961  59.719 -58.396  1.00  0.00    -0.354 OA
HETATM   15  C   UNL     1     -42.915  60.395 -57.692  1.00  0.00     0.210 C 
ENDBRANCH   9  14
ENDBRANCH   6   8
ENDBRANCH   5   6
ENDBRANCH   1   5
BRANCH   2  16
HETATM   16  C   UNL     1     -42.718  54.994 -54.483  1.00  0.00     0.035 A 
HETATM   17  C   UNL     1     -42.683  54.776 -53.104  1.00  0.00     0.042 A 
HETATM   18  C   UNL     1     -41.744  53.902 -52.524  1.00  0.00    -0.024 A 
HETATM   19  C   UNL     1     -40.819  53.229 -53.352  1.00  0.00    -0.026 A 
HETATM   20  C   UNL     1     -41.710  53.679 -51.138  1.00  0.00     0.012 A 
HETATM   21  C   UNL     1     -40.852  53.456 -54.735  1.00  0.00     0.014 A 
HETATM   22  C   UNL     1     -39.891  52.347 -52.773  1.00  0.00     0.012 A 
HETATM   23  C   UNL     1     -41.791  54.329 -55.292  1.00  0.00     0.030 A 
HETATM   24  C   UNL     1     -39.874  52.135 -51.393  1.00  0.00     0.001 A 
HETATM   25  C   UNL     1     -40.781  52.801 -50.577  1.00  0.00     0.001 A 
ENDBRANCH   2  16
TORSDOF 5
ENDMDL
MODEL 9
REMARK VINA RESULT:      -7.3     14.460     17.543
REMARK  5 active torsions:
REMARK  status: ('A' for Active; 'I' for Inactive)
REMARK    1  A    between atoms: O_2  and  C_3 
REMARK    2  A    between atoms: C_4  and  N_5 
REMARK    3  A    between atoms: N_5  and  C_6 
REMARK    4  A    between atoms: C_6  and  C_7 
REMARK       I    between atoms: C_7  and  N_8 
REMARK    5  A    between atoms: N_8  and  C_9 
ROOT
HETATM    1  C   UNL     1     -32.206  40.331 -55.152  1.00  0.00     0.235 C 
HETATM    2  N   UNL     1     -33.545  40.675 -55.053  1.00  0.00    -0.326 N 
HETATM    3  O   UNL     1     -31.507  40.407 -56.159  1.00  0.00    -0.272 OA
HETATM    4  H   UNL     1     -33.916  40.754 -54.115  1.00  0.00     0.169 HD
ENDROOT
BRANCH   1   5
HETATM    5  C   UNL     1     -31.620  39.814 -53.831  1.00  0.00     0.195 C 
BRANCH   5   6
HETATM    6  N   UNL     1     -31.985  40.670 -52.705  1.00  0.00    -0.282 NA
HETATM    7  H   UNL     1     -32.520  41.487 -53.015  1.00  0.00     0.128 HD
BRANCH   6   8
HETATM    8  C   UNL     1     -32.539  40.166 -51.524  1.00  0.00     0.042 A 
HETATM    9  C   UNL     1     -33.942  40.166 -51.369  1.00  0.00     0.089 A 
HETATM   10  C   UNL     1     -34.560  39.696 -50.210  1.00  0.00     0.038 A 
HETATM   11  C   UNL     1     -33.780  39.282 -49.137  1.00  0.00     0.003 A 
HETATM   12  C   UNL     1     -32.391  39.344 -49.231  1.00  0.00     0.002 A 
HETATM   13  C   UNL     1     -31.779  39.794 -50.410  1.00  0.00     0.026 A 
BRANCH   9  14
HETATM   14  O   UNL     1     -34.761  40.585 -52.392  1.00  0.00    -0.354 OA
HETATM   15  C   UNL     1     -35.322  41.866 -52.088  1.00  0.00     0.210 C 
ENDBRANCH   9  14
ENDBRANCH   6   8
ENDBRANCH   5   6
ENDBRANCH   1   5
BRANCH   2  16
HETATM   16  C   UNL     1     -34.429  40.994 -56.105  1.00  0.00     0.035 A 
HETATM   17  C   UNL     1     -34.816  40.092 -57.099  1.00  0.00     0.042 A 
HETATM   18  C   UNL     1     -35.745  40.454 -58.094  1.00  0.00    -0.024 A 
HETATM   19  C   UNL     1     -36.299  41.752 -58.087  1.00  0.00    -0.026 A 
HETATM   20  C   UNL     1     -36.137  39.547 -59.093  1.00  0.00     0.012 A 
HETATM   21  C   UNL     1     -35.903  42.657 -57.092  1.00  0.00     0.014 A 
HETATM   22  C   UNL     1     -37.235  42.108 -59.073  1.00  0.00     0.012 A 
HETATM   23  C   UNL     1     -34.978  42.280 -56.113  1.00  0.00     0.030 A 
HETATM   24  C   UNL     1     -37.616  41.193 -60.057  1.00  0.00     0.001 A 
HETATM   25  C   UNL     1     -37.067  39.915 -60.067  1.00  0.00     0.001 A 
ENDBRANCH   2  16
TORSDOF 5
ENDMDL
MODEL 10
REMARK VINA RESULT:      -7.3      3.379      5.027
REMARK  5 active torsions:
REMARK  status: ('A' for Active; 'I' for Inactive)
REMARK    1  A    between atoms: O_2  and  C_3 
REMARK    2  A    between atoms: C_4  and  N_5 
REMARK    3  A    between atoms: N_5  and  C_6 
REMARK    4  A    between atoms: C_6  and  C_7 
REMARK       I    between atoms: C_7  and  N_8 
REMARK    5  A    between atoms: N_8  and  C_9 
ROOT
HETATM    1  C   UNL     1     -43.693  56.321 -51.229  1.00  0.00     0.235 C 
HETATM    2  N   UNL     1     -42.621  56.250 -52.105  1.00  0.00    -0.326 N 
HETATM    3  O   UNL     1     -44.198  55.383 -50.618  1.00  0.00    -0.272 OA
HETATM    4  H   UNL     1     -42.195  57.132 -52.360  1.00  0.00     0.169 HD
ENDROOT
BRANCH   1   5
HETATM    5  C   UNL     1     -44.241  57.746 -51.066  1.00  0.00     0.195 C 
BRANCH   5   6
HETATM    6  N   UNL     1     -43.167  58.734 -50.984  1.00  0.00    -0.282 NA
HETATM    7  H   UNL     1     -42.250  58.299 -51.123  1.00  0.00     0.128 HD
BRANCH   6   8
HETATM    8  C   UNL     1     -43.216  59.956 -51.659  1.00  0.00     0.042 A 
HETATM    9  C   UNL     1     -42.728  60.030 -52.982  1.00  0.00     0.089 A 
HETATM   10  C   UNL     1     -42.728  61.222 -53.708  1.00  0.00     0.038 A 
HETATM   11  C   UNL     1     -43.148  62.397 -53.095  1.00  0.00     0.003 A 
HETATM   12  C   UNL     1     -43.561  62.370 -51.765  1.00  0.00     0.002 A 
HETATM   13  C   UNL     1     -43.581  61.162 -51.052  1.00  0.00     0.026 A 
BRANCH   9  14
HETATM   14  O   UNL     1     -42.281  58.901 -53.629  1.00  0.00    -0.354 OA
HETATM   15  C   UNL     1     -43.192  58.530 -54.668  1.00  0.00     0.210 C 
ENDBRANCH   9  14
ENDBRANCH   6   8
ENDBRANCH   5   6
ENDBRANCH   1   5
BRANCH   2  16
HETATM   16  C   UNL     1     -42.015  55.088 -52.627  1.00  0.00     0.035 A 
HETATM   17  C   UNL     1     -41.191  54.238 -51.885  1.00  0.00     0.042 A 
HETATM   18  C   UNL     1     -40.656  53.063 -52.448  1.00  0.00    -0.024 A 
HETATM   19  C   UNL     1     -40.960  52.735 -53.787  1.00  0.00    -0.026 A 
HETATM   20  C   UNL     1     -39.830  52.206 -51.703  1.00  0.00     0.012 A 
HETATM   21  C   UNL     1     -41.781  53.594 -54.530  1.00  0.00     0.014 A 
HETATM   22  C   UNL     1     -40.436  51.555 -54.343  1.00  0.00     0.012 A 
HETATM   23  C   UNL     1     -42.301  54.758 -53.955  1.00  0.00     0.030 A 
HETATM   24  C   UNL     1     -39.619  50.712 -53.587  1.00  0.00     0.001 A 
HETATM   25  C   UNL     1     -39.316  51.038 -52.269  1.00  0.00     0.001 A 
ENDBRANCH   2  16
TORSDOF 5
ENDMDL
