MODEL 1
REMARK VINA RESULT:      -8.3      0.000      0.000
REMARK  9 active torsions:
REMARK  status: ('A' for Active; 'I' for Inactive)
REMARK    1  A    between atoms: C_4  and  C_5 
REMARK    2  A    between atoms: C_7  and  O_8 
REMARK    3  A    between atoms: C_10  and  O_11 
REMARK    4  A    between atoms: C_16  and  C_17 
REMARK    5  A    between atoms: C_20  and  C_21 
REMARK    6  A    between atoms: C_21  and  N_22 
REMARK    7  A    between atoms: N_22  and  C_23 
REMARK    8  A    between atoms: C_23  and  N_24 
REMARK    9  A    between atoms: N_24  and  C_25 
ROOT
HETATM    1  C   UNL     1     -42.415  59.291 -53.238  1.00  0.00     0.067 C 
HETATM    2  C   UNL     1     -43.523  58.462 -53.943  1.00  0.00     0.001 C 
HETATM    3  C   UNL     1     -44.166  57.469 -52.950  1.00  0.00     0.040 C 
HETATM    4  C   UNL     1     -43.130  56.449 -52.447  1.00  0.00     0.206 C 
HETATM    5  N   UNL     1     -41.757  56.893 -52.971  1.00  0.00    -0.065 N 
HETATM    6  H   UNL     1     -41.034  56.269 -52.585  1.00  0.00     0.280 HD
HETATM    7  C   UNL     1     -41.412  58.330 -52.566  1.00  0.00     0.246 C 
HETATM    8  C   UNL     1     -42.850  57.636 -55.059  1.00  0.00     0.033 C 
HETATM    9  C   UNL     1     -41.728  56.766 -54.486  1.00  0.00     0.236 C 
ENDROOT
BRANCH   1  10
HETATM   10  C   UNL     1     -42.991  60.319 -52.306  1.00  0.00     0.038 A 
HETATM   11  N   UNL     1     -43.367  61.581 -52.708  1.00  0.00    -0.277 N 
HETATM   12  C   UNL     1     -43.234  62.178 -54.018  1.00  0.00     0.179 C 
HETATM   13  N   UNL     1     -43.947  62.298 -51.742  1.00  0.00    -0.172 NA
HETATM   14  C   UNL     1     -43.945  61.517 -50.654  1.00  0.00     0.089 A 
HETATM   15  C   UNL     1     -43.313  60.280 -50.959  1.00  0.00     0.061 A 
BRANCH  14  16
HETATM   16  C   UNL     1     -44.564  61.948 -49.394  1.00  0.00    -0.003 A 
HETATM   17  C   UNL     1     -45.476  61.105 -48.735  1.00  0.00     0.053 A 
HETATM   18  C   UNL     1     -46.056  61.474 -47.515  1.00  0.00     0.102 A 
HETATM   19  C   UNL     1     -45.729  62.716 -46.938  1.00  0.00     0.101 A 
HETATM   20  C   UNL     1     -44.824  63.559 -47.589  1.00  0.00     0.040 A 
HETATM   21  C   UNL     1     -44.248  63.179 -48.807  1.00  0.00     0.017 A 
BRANCH  18  22
HETATM   22  O   UNL     1     -46.944  60.699 -46.811  1.00  0.00    -0.353 OA
HETATM   23  C   UNL     1     -46.415  59.697 -45.954  1.00  0.00     0.210 C 
ENDBRANCH  18  22
BRANCH  19  24
HETATM   24  O   UNL     1     -46.330  63.001 -45.738  1.00  0.00    -0.353 OA
HETATM   25  C   UNL     1     -45.786  64.058 -44.962  1.00  0.00     0.210 C 
ENDBRANCH  19  24
ENDBRANCH  14  16
ENDBRANCH   1  10
BRANCH   4  26
HETATM   26  C   UNL     1     -43.099  56.225 -50.921  1.00  0.00     0.155 C 
BRANCH  26  27
HETATM   27  N   UNL     1     -42.720  54.880 -50.509  1.00  0.00    -0.365 N 
HETATM   28  H   UNL     1     -43.248  54.093 -50.879  1.00  0.00     0.161 HD
BRANCH  27  29
HETATM   29  C   UNL     1     -41.446  54.517 -50.147  1.00  0.00     0.172 C 
HETATM   30  S   UNL     1     -40.921  54.278 -48.580  1.00  0.00    -0.041 SA
BRANCH  29  31
HETATM   31  N   UNL     1     -40.535  54.411 -51.158  1.00  0.00    -0.333 N 
HETATM   32  H   UNL     1     -39.860  55.172 -51.175  1.00  0.00     0.168 HD
BRANCH  31  33
HETATM   33  C   UNL     1     -40.274  53.355 -52.054  1.00  0.00     0.034 A 
HETATM   34  C   UNL     1     -40.609  53.396 -53.411  1.00  0.00     0.031 A 
HETATM   35  C   UNL     1     -40.368  52.291 -54.233  1.00  0.00     0.026 A 
HETATM   36  C   UNL     1     -39.795  51.140 -53.698  1.00  0.00     0.034 A 
HETATM   37 CL   UNL     1     -39.499  49.783 -54.712  1.00  0.00    -0.084 Cl
HETATM   38  C   UNL     1     -39.476  51.079 -52.345  1.00  0.00     0.026 A 
HETATM   39  C   UNL     1     -39.727  52.182 -51.523  1.00  0.00     0.031 A 
ENDBRANCH  31  33
ENDBRANCH  29  31
ENDBRANCH  27  29
ENDBRANCH  26  27
ENDBRANCH   4  26
TORSDOF 9
ENDMDL
MODEL 2
REMARK VINA RESULT:      -8.2      5.490      9.448
REMARK  9 active torsions:
REMARK  status: ('A' for Active; 'I' for Inactive)
REMARK    1  A    between atoms: C_4  and  C_5 
REMARK    2  A    between atoms: C_7  and  O_8 
REMARK    3  A    between atoms: C_10  and  O_11 
REMARK    4  A    between atoms: C_16  and  C_17 
REMARK    5  A    between atoms: C_20  and  C_21 
REMARK    6  A    between atoms: C_21  and  N_22 
REMARK    7  A    between atoms: N_22  and  C_23 
REMARK    8  A    between atoms: C_23  and  N_24 
REMARK    9  A    between atoms: N_24  and  C_25 
ROOT
HETATM    1  C   UNL     1     -43.156  59.130 -52.914  1.00  0.00     0.067 C 
HETATM    2  C   UNL     1     -44.479  59.238 -53.721  1.00  0.00     0.001 C 
HETATM    3  C   UNL     1     -44.241  58.853 -55.198  1.00  0.00     0.040 C 
HETATM    4  C   UNL     1     -43.257  59.828 -55.866  1.00  0.00     0.206 C 
HETATM    5  N   UNL     1     -42.703  60.746 -54.768  1.00  0.00    -0.065 N 
HETATM    6  H   UNL     1     -41.984  61.360 -55.176  1.00  0.00     0.280 HD
HETATM    7  C   UNL     1     -42.064  59.963 -53.617  1.00  0.00     0.246 C 
HETATM    8  C   UNL     1     -44.927  60.714 -53.690  1.00  0.00     0.033 C 
HETATM    9  C   UNL     1     -43.822  61.625 -54.231  1.00  0.00     0.236 C 
ENDROOT
BRANCH   1  10
HETATM   10  C   UNL     1     -42.766  57.700 -52.664  1.00  0.00     0.038 A 
HETATM   11  N   UNL     1     -43.458  56.862 -51.820  1.00  0.00    -0.277 N 
HETATM   12  C   UNL     1     -44.599  57.174 -50.989  1.00  0.00     0.179 C 
HETATM   13  N   UNL     1     -43.000  55.607 -51.822  1.00  0.00    -0.172 NA
HETATM   14  C   UNL     1     -41.962  55.597 -52.667  1.00  0.00     0.089 A 
HETATM   15  C   UNL     1     -41.757  56.906 -53.184  1.00  0.00     0.061 A 
BRANCH  14  16
HETATM   16  C   UNL     1     -41.233  54.360 -52.978  1.00  0.00    -0.003 A 
HETATM   17  C   UNL     1     -40.680  53.590 -51.940  1.00  0.00     0.053 A 
HETATM   18  C   UNL     1     -40.010  52.389 -52.203  1.00  0.00     0.102 A 
HETATM   19  C   UNL     1     -39.878  51.944 -53.532  1.00  0.00     0.101 A 
HETATM   20  C   UNL     1     -40.425  52.706 -54.569  1.00  0.00     0.040 A 
HETATM   21  C   UNL     1     -41.095  53.904 -54.294  1.00  0.00     0.017 A 
BRANCH  18  22
HETATM   22  O   UNL     1     -39.456  51.583 -51.240  1.00  0.00    -0.353 OA
HETATM   23  C   UNL     1     -40.318  51.052 -50.243  1.00  0.00     0.210 C 
ENDBRANCH  18  22
BRANCH  19  24
HETATM   24  O   UNL     1     -39.218  50.755 -53.708  1.00  0.00    -0.353 OA
HETATM   25  C   UNL     1     -39.777  49.817 -54.617  1.00  0.00     0.210 C 
ENDBRANCH  19  24
ENDBRANCH  14  16
ENDBRANCH   1  10
BRANCH   4  26
HETATM   26  C   UNL     1     -42.117  59.177 -56.676  1.00  0.00     0.155 C 
BRANCH  26  27
HETATM   27  N   UNL     1     -42.344  57.785 -57.042  1.00  0.00    -0.365 N 
HETATM   28  H   UNL     1     -42.589  57.126 -56.309  1.00  0.00     0.161 HD
BRANCH  27  29
HETATM   29  C   UNL     1     -42.803  57.379 -58.271  1.00  0.00     0.172 C 
HETATM   30  S   UNL     1     -42.055  57.693 -59.731  1.00  0.00    -0.041 SA
BRANCH  29  31
HETATM   31  N   UNL     1     -44.000  56.722 -58.285  1.00  0.00    -0.333 N 
HETATM   32  H   UNL     1     -44.179  56.191 -57.435  1.00  0.00     0.168 HD
BRANCH  31  33
HETATM   33  C   UNL     1     -45.081  56.799 -59.184  1.00  0.00     0.034 A 
HETATM   34  C   UNL     1     -46.037  57.819 -59.153  1.00  0.00     0.031 A 
HETATM   35  C   UNL     1     -47.116  57.806 -60.043  1.00  0.00     0.026 A 
HETATM   36  C   UNL     1     -47.244  56.768 -60.963  1.00  0.00     0.034 A 
HETATM   37 CL   UNL     1     -48.570  56.755 -62.057  1.00  0.00    -0.084 Cl
HETATM   38  C   UNL     1     -46.310  55.736 -60.990  1.00  0.00     0.026 A 
HETATM   39  C   UNL     1     -45.238  55.747 -60.093  1.00  0.00     0.031 A 
ENDBRANCH  31  33
ENDBRANCH  29  31
ENDBRANCH  27  29
ENDBRANCH  26  27
ENDBRANCH   4  26
TORSDOF 9
ENDMDL
MODEL 3
REMARK VINA RESULT:      -8.2      5.192     10.161
REMARK  9 active torsions:
REMARK  status: ('A' for Active; 'I' for Inactive)
REMARK    1  A    between atoms: C_4  and  C_5 
REMARK    2  A    between atoms: C_7  and  O_8 
REMARK    3  A    between atoms: C_10  and  O_11 
REMARK    4  A    between atoms: C_16  and  C_17 
REMARK    5  A    between atoms: C_20  and  C_21 
REMARK    6  A    between atoms: C_21  and  N_22 
REMARK    7  A    between atoms: N_22  and  C_23 
REMARK    8  A    between atoms: C_23  and  N_24 
REMARK    9  A    between atoms: N_24  and  C_25 
ROOT
HETATM    1  C   UNL     1     -43.207  58.237 -54.862  1.00  0.00     0.067 C 
HETATM    2  C   UNL     1     -42.052  59.268 -54.999  1.00  0.00     0.001 C 
HETATM    3  C   UNL     1     -41.356  59.479 -53.637  1.00  0.00     0.040 C 
HETATM    4  C   UNL     1     -42.334  60.073 -52.608  1.00  0.00     0.206 C 
HETATM    5  N   UNL     1     -43.729  60.075 -53.249  1.00  0.00    -0.065 N 
HETATM    6  H   UNL     1     -44.416  60.398 -52.553  1.00  0.00     0.280 HD
HETATM    7  C   UNL     1     -44.155  58.684 -53.730  1.00  0.00     0.246 C 
HETATM    8  C   UNL     1     -42.676  60.615 -55.418  1.00  0.00     0.033 C 
HETATM    9  C   UNL     1     -43.749  61.050 -54.416  1.00  0.00     0.236 C 
ENDROOT
BRANCH   1  10
HETATM   10  C   UNL     1     -42.691  56.834 -54.706  1.00  0.00     0.038 A 
HETATM   11  N   UNL     1     -42.531  55.964 -55.760  1.00  0.00    -0.277 N 
HETATM   12  C   UNL     1     -42.868  56.173 -57.151  1.00  0.00     0.179 C 
HETATM   13  N   UNL     1     -41.965  54.804 -55.413  1.00  0.00    -0.172 NA
HETATM   14  C   UNL     1     -41.757  54.879 -54.093  1.00  0.00     0.089 A 
HETATM   15  C   UNL     1     -42.240  56.125 -53.605  1.00  0.00     0.061 A 
BRANCH  14  16
HETATM   16  C   UNL     1     -41.086  53.800 -53.356  1.00  0.00    -0.003 A 
HETATM   17  C   UNL     1     -40.463  52.753 -54.057  1.00  0.00     0.053 A 
HETATM   18  C   UNL     1     -39.786  51.729 -53.384  1.00  0.00     0.102 A 
HETATM   19  C   UNL     1     -39.734  51.739 -51.976  1.00  0.00     0.101 A 
HETATM   20  C   UNL     1     -40.353  52.777 -51.274  1.00  0.00     0.040 A 
HETATM   21  C   UNL     1     -41.024  53.797 -51.958  1.00  0.00     0.017 A 
BRANCH  18  22
HETATM   22  O   UNL     1     -39.147  50.683 -54.002  1.00  0.00    -0.353 OA
HETATM   23  C   UNL     1     -39.947  49.735 -54.695  1.00  0.00     0.210 C 
ENDBRANCH  18  22
BRANCH  19  24
HETATM   24  O   UNL     1     -39.045  50.708 -51.390  1.00  0.00    -0.353 OA
HETATM   25  C   UNL     1     -39.788  49.762 -50.636  1.00  0.00     0.210 C 
ENDBRANCH  19  24
ENDBRANCH  14  16
ENDBRANCH   1  10
BRANCH   4  26
HETATM   26  C   UNL     1     -42.355  59.382 -51.229  1.00  0.00     0.155 C 
BRANCH  26  27
HETATM   27  N   UNL     1     -42.396  60.291 -50.091  1.00  0.00    -0.365 N 
HETATM   28  H   UNL     1     -41.520  60.544 -49.642  1.00  0.00     0.161 HD
BRANCH  27  29
HETATM   29  C   UNL     1     -43.362  61.249 -49.907  1.00  0.00     0.172 C 
HETATM   30  S   UNL     1     -43.204  62.865 -50.301  1.00  0.00    -0.041 SA
BRANCH  29  31
HETATM   31  N   UNL     1     -44.512  60.841 -49.294  1.00  0.00    -0.333 N 
HETATM   32  H   UNL     1     -44.729  59.860 -49.454  1.00  0.00     0.168 HD
BRANCH  31  33
HETATM   33  C   UNL     1     -45.334  61.492 -48.354  1.00  0.00     0.034 A 
HETATM   34  C   UNL     1     -46.499  62.186 -48.700  1.00  0.00     0.031 A 
HETATM   35  C   UNL     1     -47.241  62.854 -47.721  1.00  0.00     0.026 A 
HETATM   36  C   UNL     1     -46.817  62.836 -46.394  1.00  0.00     0.034 A 
HETATM   37 CL   UNL     1     -47.732  63.658 -45.194  1.00  0.00    -0.084 Cl
HETATM   38  C   UNL     1     -45.648  62.167 -46.041  1.00  0.00     0.026 A 
HETATM   39  C   UNL     1     -44.903  61.507 -47.023  1.00  0.00     0.031 A 
ENDBRANCH  31  33
ENDBRANCH  29  31
ENDBRANCH  27  29
ENDBRANCH  26  27
ENDBRANCH   4  26
TORSDOF 9
ENDMDL
MODEL 4
REMARK VINA RESULT:      -8.2      5.280      9.170
REMARK  9 active torsions:
REMARK  status: ('A' for Active; 'I' for Inactive)
REMARK    1  A    between atoms: C_4  and  C_5 
REMARK    2  A    between atoms: C_7  and  O_8 
REMARK    3  A    between atoms: C_10  and  O_11 
REMARK    4  A    between atoms: C_16  and  C_17 
REMARK    5  A    between atoms: C_20  and  C_21 
REMARK    6  A    between atoms: C_21  and  N_22 
REMARK    7  A    between atoms: N_22  and  C_23 
REMARK    8  A    between atoms: C_23  and  N_24 
REMARK    9  A    between atoms: N_24  and  C_25 
ROOT
HETATM    1  C   UNL     1     -43.317  59.476 -53.221  1.00  0.00     0.067 C 
HETATM    2  C   UNL     1     -44.559  59.515 -54.153  1.00  0.00     0.001 C 
HETATM    3  C   UNL     1     -44.158  59.148 -55.599  1.00  0.00     0.040 C 
HETATM    4  C   UNL     1     -43.167  60.176 -56.171  1.00  0.00     0.206 C 
HETATM    5  N   UNL     1     -42.773  61.120 -55.026  1.00  0.00    -0.065 N 
HETATM    6  H   UNL     1     -42.051  61.772 -55.364  1.00  0.00     0.280 HD
HETATM    7  C   UNL     1     -42.208  60.368 -53.816  1.00  0.00     0.246 C 
HETATM    8  C   UNL     1     -45.086  60.965 -54.170  1.00  0.00     0.033 C 
HETATM    9  C   UNL     1     -43.984  61.936 -54.602  1.00  0.00     0.236 C 
ENDROOT
BRANCH   1  10
HETATM   10  C   UNL     1     -42.877  58.068 -52.931  1.00  0.00     0.038 A 
HETATM   11  N   UNL     1     -43.508  57.249 -52.023  1.00  0.00    -0.277 N 
HETATM   12  C   UNL     1     -44.619  57.567 -51.153  1.00  0.00     0.179 C 
HETATM   13  N   UNL     1     -43.017  56.007 -51.994  1.00  0.00    -0.172 NA
HETATM   14  C   UNL     1     -42.017  55.988 -52.885  1.00  0.00     0.089 A 
HETATM   15  C   UNL     1     -41.872  57.279 -53.463  1.00  0.00     0.061 A 
BRANCH  14  16
HETATM   16  C   UNL     1     -41.270  54.758 -53.178  1.00  0.00    -0.003 A 
HETATM   17  C   UNL     1     -40.876  53.908 -52.129  1.00  0.00     0.053 A 
HETATM   18  C   UNL     1     -40.193  52.712 -52.380  1.00  0.00     0.102 A 
HETATM   19  C   UNL     1     -39.884  52.354 -53.707  1.00  0.00     0.101 A 
HETATM   20  C   UNL     1     -40.272  53.196 -54.753  1.00  0.00     0.040 A 
HETATM   21  C   UNL     1     -40.957  54.387 -54.491  1.00  0.00     0.017 A 
BRANCH  18  22
HETATM   22  O   UNL     1     -39.788  51.831 -51.409  1.00  0.00    -0.353 OA
HETATM   23  C   UNL     1     -40.429  51.900 -50.143  1.00  0.00     0.210 C 
ENDBRANCH  18  22
BRANCH  19  24
HETATM   24  O   UNL     1     -39.222  51.164 -53.872  1.00  0.00    -0.353 OA
HETATM   25  C   UNL     1     -39.935  50.090 -54.467  1.00  0.00     0.210 C 
ENDBRANCH  19  24
ENDBRANCH  14  16
ENDBRANCH   1  10
BRANCH   4  26
HETATM   26  C   UNL     1     -41.921  59.589 -56.864  1.00  0.00     0.155 C 
BRANCH  26  27
HETATM   27  N   UNL     1     -41.473  60.324 -58.040  1.00  0.00    -0.365 N 
HETATM   28  H   UNL     1     -40.491  60.275 -58.297  1.00  0.00     0.161 HD
BRANCH  27  29
HETATM   29  C   UNL     1     -42.272  60.604 -59.122  1.00  0.00     0.172 C 
HETATM   30  S   UNL     1     -43.180  61.992 -59.316  1.00  0.00    -0.041 SA
BRANCH  29  31
HETATM   31  N   UNL     1     -42.368  59.629 -60.073  1.00  0.00    -0.333 N 
HETATM   32  H   UNL     1     -41.810  59.817 -60.903  1.00  0.00     0.168 HD
BRANCH  31  33
HETATM   33  C   UNL     1     -42.958  58.350 -60.023  1.00  0.00     0.034 A 
HETATM   34  C   UNL     1     -44.340  58.139 -60.052  1.00  0.00     0.031 A 
HETATM   35  C   UNL     1     -44.861  56.845 -59.947  1.00  0.00     0.026 A 
HETATM   36  C   UNL     1     -44.000  55.759 -59.806  1.00  0.00     0.034 A 
HETATM   37 CL   UNL     1     -44.643  54.171 -59.677  1.00  0.00    -0.084 Cl
HETATM   38  C   UNL     1     -42.623  55.959 -59.754  1.00  0.00     0.026 A 
HETATM   39  C   UNL     1     -42.106  57.254 -59.851  1.00  0.00     0.031 A 
ENDBRANCH  31  33
ENDBRANCH  29  31
ENDBRANCH  27  29
ENDBRANCH  26  27
ENDBRANCH   4  26
TORSDOF 9
ENDMDL
MODEL 5
REMARK VINA RESULT:      -8.2      5.121      8.586
REMARK  9 active torsions:
REMARK  status: ('A' for Active; 'I' for Inactive)
REMARK    1  A    between atoms: C_4  and  C_5 
REMARK    2  A    between atoms: C_7  and  O_8 
REMARK    3  A    between atoms: C_10  and  O_11 
REMARK    4  A    between atoms: C_16  and  C_17 
REMARK    5  A    between atoms: C_20  and  C_21 
REMARK    6  A    between atoms: C_21  and  N_22 
REMARK    7  A    between atoms: N_22  and  C_23 
REMARK    8  A    between atoms: C_23  and  N_24 
REMARK    9  A    between atoms: N_24  and  C_25 
ROOT
HETATM    1  C   UNL     1     -42.865  59.348 -52.244  1.00  0.00     0.067 C 
HETATM    2  C   UNL     1     -44.198  59.552 -53.015  1.00  0.00     0.001 C 
HETATM    3  C   UNL     1     -44.105  58.927 -54.425  1.00  0.00     0.040 C 
HETATM    4  C   UNL     1     -43.021  59.626 -55.263  1.00  0.00     0.206 C 
HETATM    5  N   UNL     1     -42.272  60.591 -54.332  1.00  0.00    -0.065 N 
HETATM    6  H   UNL     1     -41.490  61.016 -54.851  1.00  0.00     0.280 HD
HETATM    7  C   UNL     1     -41.698  59.886 -53.098  1.00  0.00     0.246 C 
HETATM    8  C   UNL     1     -44.411  61.070 -53.191  1.00  0.00     0.033 C 
HETATM    9  C   UNL     1     -43.210  61.705 -53.897  1.00  0.00     0.236 C 
ENDROOT
BRANCH   1  10
HETATM   10  C   UNL     1     -42.687  57.925 -51.797  1.00  0.00     0.038 A 
HETATM   11  N   UNL     1     -43.703  57.166 -51.261  1.00  0.00    -0.277 N 
HETATM   12  C   UNL     1     -45.060  57.570 -50.966  1.00  0.00     0.179 C 
HETATM   13  N   UNL     1     -43.354  55.898 -51.025  1.00  0.00    -0.172 NA
HETATM   14  C   UNL     1     -42.069  55.799 -51.386  1.00  0.00     0.089 A 
HETATM   15  C   UNL     1     -41.603  57.064 -51.837  1.00  0.00     0.061 A 
BRANCH  14  16
HETATM   16  C   UNL     1     -41.349  54.520 -51.327  1.00  0.00    -0.003 A 
HETATM   17  C   UNL     1     -40.890  53.917 -52.511  1.00  0.00     0.053 A 
HETATM   18  C   UNL     1     -40.171  52.716 -52.484  1.00  0.00     0.102 A 
HETATM   19  C   UNL     1     -39.906  52.093 -51.249  1.00  0.00     0.101 A 
HETATM   20  C   UNL     1     -40.361  52.687 -50.069  1.00  0.00     0.040 A 
HETATM   21  C   UNL     1     -41.076  53.890 -50.107  1.00  0.00     0.017 A 
BRANCH  18  22
HETATM   22  O   UNL     1     -39.685  52.076 -53.597  1.00  0.00    -0.353 OA
HETATM   23  C   UNL     1     -40.589  51.281 -54.352  1.00  0.00     0.210 C 
ENDBRANCH  18  22
BRANCH  19  24
HETATM   24  O   UNL     1     -39.188  50.925 -51.304  1.00  0.00    -0.353 OA
HETATM   25  C   UNL     1     -39.845  49.728 -50.915  1.00  0.00     0.210 C 
ENDBRANCH  19  24
ENDBRANCH  14  16
ENDBRANCH   1  10
BRANCH   4  26
HETATM   26  C   UNL     1     -42.042  58.692 -56.003  1.00  0.00     0.155 C 
BRANCH  26  27
HETATM   27  N   UNL     1     -42.031  57.316 -55.526  1.00  0.00    -0.365 N 
HETATM   28  H   UNL     1     -42.134  57.148 -54.529  1.00  0.00     0.161 HD
BRANCH  27  29
HETATM   29  C   UNL     1     -42.449  56.240 -56.271  1.00  0.00     0.172 C 
HETATM   30  S   UNL     1     -42.762  54.714 -55.670  1.00  0.00    -0.041 SA
BRANCH  29  31
HETATM   31  N   UNL     1     -42.547  56.438 -57.619  1.00  0.00    -0.333 N 
HETATM   32  H   UNL     1     -41.647  56.442 -58.093  1.00  0.00     0.168 HD
BRANCH  31  33
HETATM   33  C   UNL     1     -43.673  56.461 -58.465  1.00  0.00     0.034 A 
HETATM   34  C   UNL     1     -44.680  57.428 -58.381  1.00  0.00     0.031 A 
HETATM   35  C   UNL     1     -45.798  57.360 -59.219  1.00  0.00     0.026 A 
HETATM   36  C   UNL     1     -45.913  56.322 -60.140  1.00  0.00     0.034 A 
HETATM   37 CL   UNL     1     -47.288  56.242 -61.169  1.00  0.00    -0.084 Cl
HETATM   38  C   UNL     1     -44.928  55.341 -60.218  1.00  0.00     0.026 A 
HETATM   39  C   UNL     1     -43.816  55.406 -59.373  1.00  0.00     0.031 A 
ENDBRANCH  31  33
ENDBRANCH  29  31
ENDBRANCH  27  29
ENDBRANCH  26  27
ENDBRANCH   4  26
TORSDOF 9
ENDMDL
MODEL 6
REMARK VINA RESULT:      -8.2      4.945      8.669
REMARK  9 active torsions:
REMARK  status: ('A' for Active; 'I' for Inactive)
REMARK    1  A    between atoms: C_4  and  C_5 
REMARK    2  A    between atoms: C_7  and  O_8 
REMARK    3  A    between atoms: C_10  and  O_11 
REMARK    4  A    between atoms: C_16  and  C_17 
REMARK    5  A    between atoms: C_20  and  C_21 
REMARK    6  A    between atoms: C_21  and  N_22 
REMARK    7  A    between atoms: N_22  and  C_23 
REMARK    8  A    between atoms: C_23  and  N_24 
REMARK    9  A    between atoms: N_24  and  C_25 
ROOT
HETATM    1  C   UNL     1     -44.100  58.035 -58.739  1.00  0.00     0.067 C 
HETATM    2  C   UNL     1     -42.992  58.453 -59.744  1.00  0.00     0.001 C 
HETATM    3  C   UNL     1     -41.831  59.153 -59.004  1.00  0.00     0.040 C 
HETATM    4  C   UNL     1     -42.311  60.454 -58.338  1.00  0.00     0.206 C 
HETATM    5  N   UNL     1     -43.838  60.509 -58.487  1.00  0.00    -0.065 N 
HETATM    6  H   UNL     1     -44.193  61.334 -57.982  1.00  0.00     0.280 HD
HETATM    7  C   UNL     1     -44.527  59.266 -57.914  1.00  0.00     0.246 C 
HETATM    8  C   UNL     1     -43.607  59.478 -60.720  1.00  0.00     0.033 C 
HETATM    9  C   UNL     1     -44.199  60.665 -59.956  1.00  0.00     0.236 C 
ENDROOT
BRANCH   1  10
HETATM   10  C   UNL     1     -43.685  56.856 -57.905  1.00  0.00     0.038 A 
HETATM   11  N   UNL     1     -43.742  55.555 -58.350  1.00  0.00    -0.277 N 
HETATM   12  C   UNL     1     -44.248  55.063 -59.612  1.00  0.00     0.179 C 
HETATM   13  N   UNL     1     -43.232  54.673 -57.485  1.00  0.00    -0.172 NA
HETATM   14  C   UNL     1     -42.841  55.387 -56.422  1.00  0.00     0.089 A 
HETATM   15  C   UNL     1     -43.148  56.759 -56.632  1.00  0.00     0.061 A 
BRANCH  14  16
HETATM   16  C   UNL     1     -42.167  54.759 -55.278  1.00  0.00    -0.003 A 
HETATM   17  C   UNL     1     -42.855  54.589 -54.064  1.00  0.00     0.053 A 
HETATM   18  C   UNL     1     -42.251  53.962 -52.967  1.00  0.00     0.102 A 
HETATM   19  C   UNL     1     -40.925  53.500 -53.075  1.00  0.00     0.101 A 
HETATM   20  C   UNL     1     -40.236  53.668 -54.279  1.00  0.00     0.040 A 
HETATM   21  C   UNL     1     -40.850  54.292 -55.370  1.00  0.00     0.017 A 
BRANCH  18  22
HETATM   22  O   UNL     1     -42.865  53.754 -51.757  1.00  0.00    -0.353 OA
HETATM   23  C   UNL     1     -43.611  54.826 -51.200  1.00  0.00     0.210 C 
ENDBRANCH  18  22
BRANCH  19  24
HETATM   24  O   UNL     1     -40.406  52.890 -51.961  1.00  0.00    -0.353 OA
HETATM   25  C   UNL     1     -39.584  51.749 -52.157  1.00  0.00     0.210 C 
ENDBRANCH  19  24
ENDBRANCH  14  16
ENDBRANCH   1  10
BRANCH   4  26
HETATM   26  C   UNL     1     -41.886  60.649 -56.868  1.00  0.00     0.155 C 
BRANCH  26  27
HETATM   27  N   UNL     1     -42.813  61.433 -56.063  1.00  0.00    -0.365 N 
HETATM   28  H   UNL     1     -43.541  61.960 -56.537  1.00  0.00     0.161 HD
BRANCH  27  29
HETATM   29  C   UNL     1     -43.166  61.119 -54.773  1.00  0.00     0.172 C 
HETATM   30  S   UNL     1     -44.732  61.002 -54.204  1.00  0.00    -0.041 SA
BRANCH  29  31
HETATM   31  N   UNL     1     -42.141  60.956 -53.886  1.00  0.00    -0.333 N 
HETATM   32  H   UNL     1     -41.685  61.829 -53.630  1.00  0.00     0.168 HD
BRANCH  31  33
HETATM   33  C   UNL     1     -41.733  59.826 -53.149  1.00  0.00     0.034 A 
HETATM   34  C   UNL     1     -41.340  58.622 -53.741  1.00  0.00     0.031 A 
HETATM   35  C   UNL     1     -40.997  57.522 -52.947  1.00  0.00     0.026 A 
HETATM   36  C   UNL     1     -41.052  57.624 -51.559  1.00  0.00     0.034 A 
HETATM   37 CL   UNL     1     -40.629  56.271 -50.587  1.00  0.00    -0.084 Cl
HETATM   38  C   UNL     1     -41.462  58.811 -50.959  1.00  0.00     0.026 A 
HETATM   39  C   UNL     1     -41.813  59.906 -51.755  1.00  0.00     0.031 A 
ENDBRANCH  31  33
ENDBRANCH  29  31
ENDBRANCH  27  29
ENDBRANCH  26  27
ENDBRANCH   4  26
TORSDOF 9
ENDMDL
MODEL 7
REMARK VINA RESULT:      -8.0      4.743      8.335
REMARK  9 active torsions:
REMARK  status: ('A' for Active; 'I' for Inactive)
REMARK    1  A    between atoms: C_4  and  C_5 
REMARK    2  A    between atoms: C_7  and  O_8 
REMARK    3  A    between atoms: C_10  and  O_11 
REMARK    4  A    between atoms: C_16  and  C_17 
REMARK    5  A    between atoms: C_20  and  C_21 
REMARK    6  A    between atoms: C_21  and  N_22 
REMARK    7  A    between atoms: N_22  and  C_23 
REMARK    8  A    between atoms: C_23  and  N_24 
REMARK    9  A    between atoms: N_24  and  C_25 
ROOT
HETATM    1  C   UNL     1     -42.921  58.547 -58.139  1.00  0.00     0.067 C 
HETATM    2  C   UNL     1     -41.951  59.654 -57.643  1.00  0.00     0.001 C 
HETATM    3  C   UNL     1     -42.441  60.237 -56.299  1.00  0.00     0.040 C 
HETATM    4  C   UNL     1     -43.811  60.917 -56.465  1.00  0.00     0.206 C 
HETATM    5  N   UNL     1     -44.305  60.615 -57.886  1.00  0.00    -0.065 N 
HETATM    6  H   UNL     1     -45.256  60.995 -57.997  1.00  0.00     0.280 HD
HETATM    7  C   UNL     1     -44.357  59.112 -58.180  1.00  0.00     0.246 C 
HETATM    8  C   UNL     1     -41.973  60.795 -58.682  1.00  0.00     0.033 C 
HETATM    9  C   UNL     1     -43.401  61.304 -58.895  1.00  0.00     0.236 C 
ENDROOT
BRANCH   1  10
HETATM   10  C   UNL     1     -42.787  57.283 -57.336  1.00  0.00     0.038 A 
HETATM   11  N   UNL     1     -43.180  56.047 -57.798  1.00  0.00    -0.277 N 
HETATM   12  C   UNL     1     -43.830  55.725 -59.049  1.00  0.00     0.179 C 
HETATM   13  N   UNL     1     -42.879  55.047 -56.965  1.00  0.00    -0.172 NA
HETATM   14  C   UNL     1     -42.290  55.616 -55.906  1.00  0.00     0.089 A 
HETATM   15  C   UNL     1     -42.253  57.027 -56.085  1.00  0.00     0.061 A 
BRANCH  14  16
HETATM   16  C   UNL     1     -41.759  54.815 -54.796  1.00  0.00    -0.003 A 
HETATM   17  C   UNL     1     -42.387  54.854 -53.538  1.00  0.00     0.053 A 
HETATM   18  C   UNL     1     -41.924  54.074 -52.471  1.00  0.00     0.102 A 
HETATM   19  C   UNL     1     -40.804  53.241 -52.654  1.00  0.00     0.101 A 
HETATM   20  C   UNL     1     -40.175  53.199 -53.901  1.00  0.00     0.040 A 
HETATM   21  C   UNL     1     -40.648  53.980 -54.962  1.00  0.00     0.017 A 
BRANCH  18  22
HETATM   22  O   UNL     1     -42.492  54.054 -51.221  1.00  0.00    -0.353 OA
HETATM   23  C   UNL     1     -42.475  55.258 -50.466  1.00  0.00     0.210 C 
ENDBRANCH  18  22
BRANCH  19  24
HETATM   24  O   UNL     1     -40.418  52.502 -51.564  1.00  0.00    -0.353 OA
HETATM   25  C   UNL     1     -39.645  51.334 -51.799  1.00  0.00     0.210 C 
ENDBRANCH  19  24
ENDBRANCH  14  16
ENDBRANCH   1  10
BRANCH   4  26
HETATM   26  C   UNL     1     -44.874  60.544 -55.412  1.00  0.00     0.155 C 
BRANCH  26  27
HETATM   27  N   UNL     1     -44.611  59.307 -54.689  1.00  0.00    -0.365 N 
HETATM   28  H   UNL     1     -43.993  58.621 -55.113  1.00  0.00     0.161 HD
BRANCH  27  29
HETATM   29  C   UNL     1     -44.638  59.196 -53.320  1.00  0.00     0.172 C 
HETATM   30  S   UNL     1     -45.667  60.034 -52.306  1.00  0.00    -0.041 SA
BRANCH  29  31
HETATM   31  N   UNL     1     -43.699  58.378 -52.760  1.00  0.00    -0.333 N 
HETATM   32  H   UNL     1     -43.944  57.391 -52.805  1.00  0.00     0.168 HD
BRANCH  31  33
HETATM   33  C   UNL     1     -42.397  58.653 -52.300  1.00  0.00     0.034 A 
HETATM   34  C   UNL     1     -41.255  58.517 -53.095  1.00  0.00     0.031 A 
HETATM   35  C   UNL     1     -39.985  58.757 -52.558  1.00  0.00     0.026 A 
HETATM   36  C   UNL     1     -39.856  59.128 -51.222  1.00  0.00     0.034 A 
HETATM   37 CL   UNL     1     -38.295  59.423 -50.566  1.00  0.00    -0.084 Cl
HETATM   38  C   UNL     1     -40.984  59.246 -50.415  1.00  0.00     0.026 A 
HETATM   39  C   UNL     1     -42.250  58.997 -50.952  1.00  0.00     0.031 A 
ENDBRANCH  31  33
ENDBRANCH  29  31
ENDBRANCH  27  29
ENDBRANCH  26  27
ENDBRANCH   4  26
TORSDOF 9
ENDMDL
MODEL 8
REMARK VINA RESULT:      -8.0      4.989      8.581
REMARK  9 active torsions:
REMARK  status: ('A' for Active; 'I' for Inactive)
REMARK    1  A    between atoms: C_4  and  C_5 
REMARK    2  A    between atoms: C_7  and  O_8 
REMARK    3  A    between atoms: C_10  and  O_11 
REMARK    4  A    between atoms: C_16  and  C_17 
REMARK    5  A    between atoms: C_20  and  C_21 
REMARK    6  A    between atoms: C_21  and  N_22 
REMARK    7  A    between atoms: N_22  and  C_23 
REMARK    8  A    between atoms: C_23  and  N_24 
REMARK    9  A    between atoms: N_24  and  C_25 
ROOT
HETATM    1  C   UNL     1     -42.814  58.433 -58.241  1.00  0.00     0.067 C 
HETATM    2  C   UNL     1     -41.856  59.553 -57.751  1.00  0.00     0.001 C 
HETATM    3  C   UNL     1     -42.410  60.213 -56.469  1.00  0.00     0.040 C 
HETATM    4  C   UNL     1     -43.759  60.899 -56.746  1.00  0.00     0.206 C 
HETATM    5  N   UNL     1     -44.179  60.527 -58.175  1.00  0.00    -0.065 N 
HETATM    6  H   UNL     1     -45.116  60.912 -58.358  1.00  0.00     0.280 HD
HETATM    7  C   UNL     1     -44.236  59.011 -58.392  1.00  0.00     0.246 C 
HETATM    8  C   UNL     1     -41.804  60.637 -58.848  1.00  0.00     0.033 C 
HETATM    9  C   UNL     1     -43.211  61.151 -59.167  1.00  0.00     0.236 C 
ENDROOT
BRANCH   1  10
HETATM   10  C   UNL     1     -42.742  57.212 -57.367  1.00  0.00     0.038 A 
HETATM   11  N   UNL     1     -43.074  55.949 -57.802  1.00  0.00    -0.277 N 
HETATM   12  C   UNL     1     -43.597  55.555 -59.091  1.00  0.00     0.179 C 
HETATM   13  N   UNL     1     -42.842  54.995 -56.895  1.00  0.00    -0.172 NA
HETATM   14  C   UNL     1     -42.365  55.626 -55.814  1.00  0.00     0.089 A 
HETATM   15  C   UNL     1     -42.327  57.026 -56.059  1.00  0.00     0.061 A 
BRANCH  14  16
HETATM   16  C   UNL     1     -41.933  54.888 -54.620  1.00  0.00    -0.003 A 
HETATM   17  C   UNL     1     -41.053  53.799 -54.747  1.00  0.00     0.053 A 
HETATM   18  C   UNL     1     -40.597  53.098 -53.623  1.00  0.00     0.102 A 
HETATM   19  C   UNL     1     -41.033  53.483 -52.341  1.00  0.00     0.101 A 
HETATM   20  C   UNL     1     -41.909  54.564 -52.209  1.00  0.00     0.040 A 
HETATM   21  C   UNL     1     -42.356  55.260 -53.338  1.00  0.00     0.017 A 
BRANCH  18  22
HETATM   22  O   UNL     1     -39.731  52.034 -53.670  1.00  0.00    -0.353 OA
HETATM   23  C   UNL     1     -40.177  50.845 -54.307  1.00  0.00     0.210 C 
ENDBRANCH  18  22
BRANCH  19  24
HETATM   24  O   UNL     1     -40.535  52.755 -51.290  1.00  0.00    -0.353 OA
HETATM   25  C   UNL     1     -40.134  53.463 -50.127  1.00  0.00     0.210 C 
ENDBRANCH  19  24
ENDBRANCH  14  16
ENDBRANCH   1  10
BRANCH   4  26
HETATM   26  C   UNL     1     -44.884  60.595 -55.736  1.00  0.00     0.155 C 
BRANCH  26  27
HETATM   27  N   UNL     1     -44.638  59.446 -54.875  1.00  0.00    -0.365 N 
HETATM   28  H   UNL     1     -43.980  58.737 -55.189  1.00  0.00     0.161 HD
BRANCH  27  29
HETATM   29  C   UNL     1     -44.747  59.473 -53.506  1.00  0.00     0.172 C 
HETATM   30  S   UNL     1     -45.767  60.472 -52.640  1.00  0.00    -0.041 SA
BRANCH  29  31
HETATM   31  N   UNL     1     -43.899  58.657 -52.814  1.00  0.00    -0.333 N 
HETATM   32  H   UNL     1     -44.220  57.693 -52.760  1.00  0.00     0.168 HD
BRANCH  31  33
HETATM   33  C   UNL     1     -42.596  58.884 -52.327  1.00  0.00     0.034 A 
HETATM   34  C   UNL     1     -41.443  58.699 -53.097  1.00  0.00     0.031 A 
HETATM   35  C   UNL     1     -40.178  58.893 -52.533  1.00  0.00     0.026 A 
HETATM   36  C   UNL     1     -40.063  59.266 -51.197  1.00  0.00     0.034 A 
HETATM   37 CL   UNL     1     -38.506  59.504 -50.508  1.00  0.00    -0.084 Cl
HETATM   38  C   UNL     1     -41.202  59.432 -50.414  1.00  0.00     0.026 A 
HETATM   39  C   UNL     1     -42.466  59.230 -50.978  1.00  0.00     0.031 A 
ENDBRANCH  31  33
ENDBRANCH  29  31
ENDBRANCH  27  29
ENDBRANCH  26  27
ENDBRANCH   4  26
TORSDOF 9
ENDMDL
MODEL 9
REMARK VINA RESULT:      -8.0      4.874      8.903
REMARK  9 active torsions:
REMARK  status: ('A' for Active; 'I' for Inactive)
REMARK    1  A    between atoms: C_4  and  C_5 
REMARK    2  A    between atoms: C_7  and  O_8 
REMARK    3  A    between atoms: C_10  and  O_11 
REMARK    4  A    between atoms: C_16  and  C_17 
REMARK    5  A    between atoms: C_20  and  C_21 
REMARK    6  A    between atoms: C_21  and  N_22 
REMARK    7  A    between atoms: N_22  and  C_23 
REMARK    8  A    between atoms: C_23  and  N_24 
REMARK    9  A    between atoms: N_24  and  C_25 
ROOT
HETATM    1  C   UNL     1     -43.836  56.743 -57.610  1.00  0.00     0.067 C 
HETATM    2  C   UNL     1     -42.823  56.735 -58.789  1.00  0.00     0.001 C 
HETATM    3  C   UNL     1     -41.744  57.820 -58.579  1.00  0.00     0.040 C 
HETATM    4  C   UNL     1     -42.374  59.224 -58.572  1.00  0.00     0.206 C 
HETATM    5  N   UNL     1     -43.898  59.043 -58.591  1.00  0.00    -0.065 N 
HETATM    6  H   UNL     1     -44.345  59.968 -58.510  1.00  0.00     0.280 HD
HETATM    7  C   UNL     1     -44.399  58.169 -57.436  1.00  0.00     0.246 C 
HETATM    8  C   UNL     1     -43.598  57.090 -60.074  1.00  0.00     0.033 C 
HETATM    9  C   UNL     1     -44.320  58.431 -59.917  1.00  0.00     0.236 C 
ENDROOT
BRANCH   1  10
HETATM   10  C   UNL     1     -43.242  56.165 -56.357  1.00  0.00     0.038 A 
HETATM   11  N   UNL     1     -43.708  56.454 -55.095  1.00  0.00    -0.277 N 
HETATM   12  C   UNL     1     -44.760  57.373 -54.718  1.00  0.00     0.179 C 
HETATM   13  N   UNL     1     -43.103  55.756 -54.129  1.00  0.00    -0.172 NA
HETATM   14  C   UNL     1     -42.192  54.993 -54.746  1.00  0.00     0.089 A 
HETATM   15  C   UNL     1     -42.221  55.255 -56.144  1.00  0.00     0.061 A 
BRANCH  14  16
HETATM   16  C   UNL     1     -41.363  54.032 -54.006  1.00  0.00    -0.003 A 
HETATM   17  C   UNL     1     -40.959  54.320 -52.691  1.00  0.00     0.053 A 
HETATM   18  C   UNL     1     -40.198  53.409 -51.948  1.00  0.00     0.102 A 
HETATM   19  C   UNL     1     -39.821  52.183 -52.530  1.00  0.00     0.101 A 
HETATM   20  C   UNL     1     -40.219  51.892 -53.837  1.00  0.00     0.040 A 
HETATM   21  C   UNL     1     -40.983  52.809 -54.569  1.00  0.00     0.017 A 
BRANCH  18  22
HETATM   22  O   UNL     1     -39.777  53.618 -50.658  1.00  0.00    -0.353 OA
HETATM   23  C   UNL     1     -40.766  53.667 -49.639  1.00  0.00     0.210 C 
ENDBRANCH  18  22
BRANCH  19  24
HETATM   24  O   UNL     1     -39.085  51.340 -51.736  1.00  0.00    -0.353 OA
HETATM   25  C   UNL     1     -39.618  50.051 -51.469  1.00  0.00     0.210 C 
ENDBRANCH  19  24
ENDBRANCH  14  16
ENDBRANCH   1  10
BRANCH   4  26
HETATM   26  C   UNL     1     -41.936  60.148 -57.417  1.00  0.00     0.155 C 
BRANCH  26  27
HETATM   27  N   UNL     1     -42.962  61.068 -56.948  1.00  0.00    -0.365 N 
HETATM   28  H   UNL     1     -43.679  61.369 -57.602  1.00  0.00     0.161 HD
BRANCH  27  29
HETATM   29  C   UNL     1     -43.396  61.137 -55.646  1.00  0.00     0.172 C 
HETATM   30  S   UNL     1     -44.990  61.275 -55.168  1.00  0.00    -0.041 SA
BRANCH  29  31
HETATM   31  N   UNL     1     -42.427  61.157 -54.685  1.00  0.00    -0.333 N 
HETATM   32  H   UNL     1     -41.933  62.044 -54.626  1.00  0.00     0.168 HD
BRANCH  31  33
HETATM   33  C   UNL     1     -42.124  60.233 -53.664  1.00  0.00     0.034 A 
HETATM   34  C   UNL     1     -42.516  60.402 -52.333  1.00  0.00     0.031 A 
HETATM   35  C   UNL     1     -42.136  59.471 -51.360  1.00  0.00     0.026 A 
HETATM   36  C   UNL     1     -41.359  58.372 -51.717  1.00  0.00     0.034 A 
HETATM   37 CL   UNL     1     -40.895  57.230 -50.519  1.00  0.00    -0.084 Cl
HETATM   38  C   UNL     1     -40.945  58.205 -53.035  1.00  0.00     0.026 A 
HETATM   39  C   UNL     1     -41.318  59.141 -54.004  1.00  0.00     0.031 A 
ENDBRANCH  31  33
ENDBRANCH  29  31
ENDBRANCH  27  29
ENDBRANCH  26  27
ENDBRANCH   4  26
TORSDOF 9
ENDMDL
MODEL 10
REMARK VINA RESULT:      -8.0      4.390      7.646
REMARK  9 active torsions:
REMARK  status: ('A' for Active; 'I' for Inactive)
REMARK    1  A    between atoms: C_4  and  C_5 
REMARK    2  A    between atoms: C_7  and  O_8 
REMARK    3  A    between atoms: C_10  and  O_11 
REMARK    4  A    between atoms: C_16  and  C_17 
REMARK    5  A    between atoms: C_20  and  C_21 
REMARK    6  A    between atoms: C_21  and  N_22 
REMARK    7  A    between atoms: N_22  and  C_23 
REMARK    8  A    between atoms: C_23  and  N_24 
REMARK    9  A    between atoms: N_24  and  C_25 
ROOT
HETATM    1  C   UNL     1     -44.787  60.362 -52.581  1.00  0.00     0.067 C 
HETATM    2  C   UNL     1     -43.477  61.191 -52.486  1.00  0.00     0.001 C 
HETATM    3  C   UNL     1     -42.252  60.298 -52.784  1.00  0.00     0.040 C 
HETATM    4  C   UNL     1     -42.122  59.179 -51.737  1.00  0.00     0.206 C 
HETATM    5  N   UNL     1     -43.377  59.228 -50.854  1.00  0.00    -0.065 N 
HETATM    6  H   UNL     1     -43.350  58.440 -50.192  1.00  0.00     0.280 HD
HETATM    7  C   UNL     1     -44.670  59.123 -51.669  1.00  0.00     0.246 C 
HETATM    8  C   UNL     1     -43.345  61.693 -51.033  1.00  0.00     0.033 C 
HETATM    9  C   UNL     1     -43.381  60.519 -50.050  1.00  0.00     0.236 C 
ENDROOT
BRANCH   1  10
HETATM   10  C   UNL     1     -45.144  60.039 -54.004  1.00  0.00     0.038 A 
HETATM   11  N   UNL     1     -45.749  60.936 -54.855  1.00  0.00    -0.277 N 
HETATM   12  C   UNL     1     -46.207  62.276 -54.564  1.00  0.00     0.179 C 
HETATM   13  N   UNL     1     -45.886  60.477 -56.103  1.00  0.00    -0.172 NA
HETATM   14  C   UNL     1     -45.385  59.236 -56.094  1.00  0.00     0.089 A 
HETATM   15  C   UNL     1     -44.948  58.909 -54.781  1.00  0.00     0.061 A 
BRANCH  14  16
HETATM   16  C   UNL     1     -45.307  58.428 -57.318  1.00  0.00    -0.003 A 
HETATM   17  C   UNL     1     -44.054  58.023 -57.813  1.00  0.00     0.053 A 
HETATM   18  C   UNL     1     -43.949  57.223 -58.958  1.00  0.00     0.102 A 
HETATM   19  C   UNL     1     -45.118  56.822 -59.634  1.00  0.00     0.101 A 
HETATM   20  C   UNL     1     -46.365  57.223 -59.147  1.00  0.00     0.040 A 
HETATM   21  C   UNL     1     -46.459  58.019 -58.000  1.00  0.00     0.017 A 
BRANCH  18  22
HETATM   22  O   UNL     1     -42.764  56.783 -59.491  1.00  0.00    -0.353 OA
HETATM   23  C   UNL     1     -41.887  57.753 -60.048  1.00  0.00     0.210 C 
ENDBRANCH  18  22
BRANCH  19  24
HETATM   24  O   UNL     1     -44.933  56.033 -60.741  1.00  0.00    -0.353 OA
HETATM   25  C   UNL     1     -45.099  54.631 -60.587  1.00  0.00     0.210 C 
ENDBRANCH  19  24
ENDBRANCH  14  16
ENDBRANCH   1  10
BRANCH   4  26
HETATM   26  C   UNL     1     -41.889  57.762 -52.298  1.00  0.00     0.155 C 
BRANCH  26  27
HETATM   27  N   UNL     1     -41.289  56.823 -51.359  1.00  0.00    -0.365 N 
HETATM   28  H   UNL     1     -40.894  57.188 -50.497  1.00  0.00     0.161 HD
BRANCH  27  29
HETATM   29  C   UNL     1     -41.674  55.511 -51.232  1.00  0.00     0.172 C 
HETATM   30  S   UNL     1     -43.244  54.983 -51.026  1.00  0.00    -0.041 SA
BRANCH  29  31
HETATM   31  N   UNL     1     -40.670  54.585 -51.212  1.00  0.00    -0.333 N 
HETATM   32  H   UNL     1     -40.114  54.610 -50.360  1.00  0.00     0.168 HD
BRANCH  31  33
HETATM   33  C   UNL     1     -40.395  53.507 -52.077  1.00  0.00     0.034 A 
HETATM   34  C   UNL     1     -40.738  53.502 -53.433  1.00  0.00     0.031 A 
HETATM   35  C   UNL     1     -40.482  52.377 -54.223  1.00  0.00     0.026 A 
HETATM   36  C   UNL     1     -39.887  51.252 -53.658  1.00  0.00     0.034 A 
HETATM   37 CL   UNL     1     -39.573  49.872 -54.632  1.00  0.00    -0.084 Cl
HETATM   38  C   UNL     1     -39.561  51.237 -52.304  1.00  0.00     0.026 A 
HETATM   39  C   UNL     1     -39.826  52.360 -51.515  1.00  0.00     0.031 A 
ENDBRANCH  31  33
ENDBRANCH  29  31
ENDBRANCH  27  29
ENDBRANCH  26  27
ENDBRANCH   4  26
TORSDOF 9
ENDMDL
