MODEL 1
REMARK VINA RESULT:      -8.1      0.000      0.000
REMARK  5 active torsions:
REMARK  status: ('A' for Active; 'I' for Inactive)
REMARK    1  A    between atoms: C_2  and  C_3 
REMARK    2  A    between atoms: C_8  and  N_9 
REMARK       I    between atoms: N_9  and  C_10 
REMARK       I    between atoms: C_10  and  N_11 
REMARK    3  A    between atoms: N_11  and  C_12 
REMARK    4  A    between atoms: C_12  and  C_13 
REMARK    5  A    between atoms: C_13  and  C_14 
ROOT
HETATM    1  N   UNL     1     -43.104  56.192 -57.194  1.00  0.00    -0.305 N 
HETATM    2  C   UNL     1     -42.237  56.326 -56.136  1.00  0.00     0.320 C 
HETATM    3  N   UNL     1     -41.685  55.112 -55.788  1.00  0.00    -0.342 N 
HETATM    4  O   UNL     1     -41.942  57.371 -55.574  1.00  0.00    -0.247 OA
HETATM    5  H   UNL     1     -42.941  55.396 -57.792  1.00  0.00     0.171 HD
HETATM    6  H   UNL     1     -42.198  54.280 -56.039  1.00  0.00     0.164 HD
ENDROOT
BRANCH   3   7
HETATM    7  C   UNL     1     -40.762  54.988 -54.668  1.00  0.00     0.138 C 
BRANCH   7   8
HETATM    8  C   UNL     1     -41.343  54.257 -53.426  1.00  0.00     0.003 C 
HETATM    9  C   UNL     1     -41.087  55.117 -52.158  1.00  0.00     0.016 C 
HETATM   10  C   UNL     1     -42.081  54.602 -51.118  1.00  0.00     0.001 C 
HETATM   11  C   UNL     1     -43.252  54.040 -51.919  1.00  0.00     0.001 C 
HETATM   12  C   UNL     1     -42.893  54.277 -53.386  1.00  0.00     0.016 C 
BRANCH   8  13
HETATM   13  C   UNL     1     -40.739  52.838 -53.340  1.00  0.00    -0.048 A 
HETATM   14  C   UNL     1     -39.958  52.434 -52.242  1.00  0.00     0.008 A 
HETATM   15  C   UNL     1     -39.404  51.152 -52.174  1.00  0.00     0.001 A 
HETATM   16  C   UNL     1     -39.596  50.249 -53.213  1.00  0.00     0.000 A 
HETATM   17  C   UNL     1     -40.338  50.632 -54.324  1.00  0.00     0.001 A 
HETATM   18  C   UNL     1     -40.899  51.910 -54.388  1.00  0.00     0.008 A 
ENDBRANCH   8  13
ENDBRANCH   7   8
ENDBRANCH   3   7
BRANCH   1  19
HETATM   19  C   UNL     1     -43.922  57.198 -57.693  1.00  0.00     0.095 A 
HETATM   20  C   UNL     1     -43.932  57.586 -59.018  1.00  0.00     0.107 A 
HETATM   21  O   UNL     1     -44.835  58.586 -59.190  1.00  0.00    -0.215 OA
HETATM   22  N   UNL     1     -45.457  58.860 -57.993  1.00  0.00    -0.131 NA
HETATM   23  C   UNL     1     -44.919  58.024 -57.094  1.00  0.00     0.087 A 
HETATM   24  C   UNL     1     -45.449  58.049 -55.710  1.00  0.00     0.075 C 
BRANCH  20  25
HETATM   25  C   UNL     1     -43.188  57.188 -60.236  1.00  0.00     0.065 C 
HETATM   26  C   UNL     1     -41.787  57.779 -60.256  1.00  0.00     0.012 C 
ENDBRANCH  20  25
ENDBRANCH   1  19
TORSDOF 5
ENDMDL
MODEL 2
REMARK VINA RESULT:      -8.1      1.940      2.791
REMARK  5 active torsions:
REMARK  status: ('A' for Active; 'I' for Inactive)
REMARK    1  A    between atoms: C_2  and  C_3 
REMARK    2  A    between atoms: C_8  and  N_9 
REMARK       I    between atoms: N_9  and  C_10 
REMARK       I    between atoms: C_10  and  N_11 
REMARK    3  A    between atoms: N_11  and  C_12 
REMARK    4  A    between atoms: C_12  and  C_13 
REMARK    5  A    between atoms: C_13  and  C_14 
ROOT
HETATM    1  N   UNL     1     -43.697  56.559 -57.056  1.00  0.00    -0.305 N 
HETATM    2  C   UNL     1     -43.276  55.571 -56.197  1.00  0.00     0.320 C 
HETATM    3  N   UNL     1     -43.902  55.676 -54.973  1.00  0.00    -0.342 N 
HETATM    4  O   UNL     1     -42.480  54.681 -56.457  1.00  0.00    -0.247 OA
HETATM    5  H   UNL     1     -44.608  56.945 -56.862  1.00  0.00     0.171 HD
HETATM    6  H   UNL     1     -44.263  56.581 -54.713  1.00  0.00     0.164 HD
ENDROOT
BRANCH   3   7
HETATM    7  C   UNL     1     -43.594  54.764 -53.880  1.00  0.00     0.138 C 
BRANCH   7   8
HETATM    8  C   UNL     1     -42.495  55.268 -52.904  1.00  0.00     0.003 C 
HETATM    9  C   UNL     1     -41.821  56.535 -53.500  1.00  0.00     0.016 C 
HETATM   10  C   UNL     1     -41.146  57.224 -52.315  1.00  0.00     0.001 C 
HETATM   11  C   UNL     1     -41.957  56.812 -51.090  1.00  0.00     0.001 C 
HETATM   12  C   UNL     1     -43.079  55.922 -51.625  1.00  0.00     0.016 C 
BRANCH   8  13
HETATM   13  C   UNL     1     -41.503  54.121 -52.616  1.00  0.00    -0.048 A 
HETATM   14  C   UNL     1     -40.865  53.418 -53.655  1.00  0.00     0.008 A 
HETATM   15  C   UNL     1     -39.976  52.372 -53.389  1.00  0.00     0.001 A 
HETATM   16  C   UNL     1     -39.721  51.985 -52.079  1.00  0.00     0.000 A 
HETATM   17  C   UNL     1     -40.360  52.641 -51.034  1.00  0.00     0.001 A 
HETATM   18  C   UNL     1     -41.242  53.693 -51.300  1.00  0.00     0.008 A 
ENDBRANCH   8  13
ENDBRANCH   7   8
ENDBRANCH   3   7
BRANCH   1  19
HETATM   19  C   UNL     1     -43.159  56.812 -58.310  1.00  0.00     0.095 A 
HETATM   20  C   UNL     1     -43.415  56.034 -59.421  1.00  0.00     0.107 A 
HETATM   21  O   UNL     1     -42.748  56.538 -60.491  1.00  0.00    -0.215 OA
HETATM   22  N   UNL     1     -42.063  57.671 -60.119  1.00  0.00    -0.131 NA
HETATM   23  C   UNL     1     -42.313  57.845 -58.813  1.00  0.00     0.087 A 
HETATM   24  C   UNL     1     -41.748  59.043 -58.146  1.00  0.00     0.075 C 
BRANCH  20  25
HETATM   25  C   UNL     1     -44.200  54.805 -59.686  1.00  0.00     0.065 C 
HETATM   26  C   UNL     1     -44.957  54.895 -61.002  1.00  0.00     0.012 C 
ENDBRANCH  20  25
ENDBRANCH   1  19
TORSDOF 5
ENDMDL
MODEL 3
REMARK VINA RESULT:      -7.7      1.917      2.683
REMARK  5 active torsions:
REMARK  status: ('A' for Active; 'I' for Inactive)
REMARK    1  A    between atoms: C_2  and  C_3 
REMARK    2  A    between atoms: C_8  and  N_9 
REMARK       I    between atoms: N_9  and  C_10 
REMARK       I    between atoms: C_10  and  N_11 
REMARK    3  A    between atoms: N_11  and  C_12 
REMARK    4  A    between atoms: C_12  and  C_13 
REMARK    5  A    between atoms: C_13  and  C_14 
ROOT
HETATM    1  N   UNL     1     -43.833  56.491 -56.869  1.00  0.00    -0.305 N 
HETATM    2  C   UNL     1     -43.431  55.487 -56.020  1.00  0.00     0.320 C 
HETATM    3  N   UNL     1     -43.926  55.680 -54.749  1.00  0.00    -0.342 N 
HETATM    4  O   UNL     1     -42.750  54.517 -56.323  1.00  0.00    -0.247 OA
HETATM    5  H   UNL     1     -44.682  56.969 -56.606  1.00  0.00     0.171 HD
HETATM    6  H   UNL     1     -44.174  56.623 -54.486  1.00  0.00     0.164 HD
ENDROOT
BRANCH   3   7
HETATM    7  C   UNL     1     -43.607  54.769 -53.659  1.00  0.00     0.138 C 
BRANCH   7   8
HETATM    8  C   UNL     1     -42.444  55.237 -52.741  1.00  0.00     0.003 C 
HETATM    9  C   UNL     1     -41.795  56.513 -53.345  1.00  0.00     0.016 C 
HETATM   10  C   UNL     1     -41.042  57.164 -52.186  1.00  0.00     0.001 C 
HETATM   11  C   UNL     1     -41.779  56.726 -50.924  1.00  0.00     0.001 C 
HETATM   12  C   UNL     1     -42.941  55.860 -51.411  1.00  0.00     0.016 C 
BRANCH   8  13
HETATM   13  C   UNL     1     -41.448  54.074 -52.545  1.00  0.00    -0.048 A 
HETATM   14  C   UNL     1     -41.143  53.570 -51.267  1.00  0.00     0.008 A 
HETATM   15  C   UNL     1     -40.230  52.525 -51.094  1.00  0.00     0.001 A 
HETATM   16  C   UNL     1     -39.581  51.972 -52.192  1.00  0.00     0.000 A 
HETATM   17  C   UNL     1     -39.841  52.469 -53.463  1.00  0.00     0.001 A 
HETATM   18  C   UNL     1     -40.760  53.508 -53.637  1.00  0.00     0.008 A 
ENDBRANCH   8  13
ENDBRANCH   7   8
ENDBRANCH   3   7
BRANCH   1  19
HETATM   19  C   UNL     1     -43.393  56.661 -58.175  1.00  0.00     0.095 A 
HETATM   20  C   UNL     1     -42.541  57.674 -58.567  1.00  0.00     0.107 A 
HETATM   21  O   UNL     1     -42.297  57.571 -59.899  1.00  0.00    -0.215 OA
HETATM   22  N   UNL     1     -42.958  56.477 -60.408  1.00  0.00    -0.131 NA
HETATM   23  C   UNL     1     -43.610  55.922 -59.376  1.00  0.00     0.087 A 
HETATM   24  C   UNL     1     -44.368  54.671 -59.618  1.00  0.00     0.075 C 
BRANCH  20  25
HETATM   25  C   UNL     1     -41.884  58.817 -57.889  1.00  0.00     0.065 C 
HETATM   26  C   UNL     1     -42.898  59.837 -57.397  1.00  0.00     0.012 C 
ENDBRANCH  20  25
ENDBRANCH   1  19
TORSDOF 5
ENDMDL
MODEL 4
REMARK VINA RESULT:      -7.6      1.697      3.659
REMARK  5 active torsions:
REMARK  status: ('A' for Active; 'I' for Inactive)
REMARK    1  A    between atoms: C_2  and  C_3 
REMARK    2  A    between atoms: C_8  and  N_9 
REMARK       I    between atoms: N_9  and  C_10 
REMARK       I    between atoms: C_10  and  N_11 
REMARK    3  A    between atoms: N_11  and  C_12 
REMARK    4  A    between atoms: C_12  and  C_13 
REMARK    5  A    between atoms: C_13  and  C_14 
ROOT
HETATM    1  N   UNL     1     -44.000  56.317 -57.879  1.00  0.00    -0.305 N 
HETATM    2  C   UNL     1     -43.566  56.666 -56.621  1.00  0.00     0.320 C 
HETATM    3  N   UNL     1     -43.633  55.595 -55.756  1.00  0.00    -0.342 N 
HETATM    4  O   UNL     1     -43.139  57.761 -56.285  1.00  0.00    -0.247 OA
HETATM    5  H   UNL     1     -43.929  55.337 -58.107  1.00  0.00     0.171 HD
HETATM    6  H   UNL     1     -44.284  54.857 -55.982  1.00  0.00     0.164 HD
ENDROOT
BRANCH   3   7
HETATM    7  C   UNL     1     -43.264  55.725 -54.354  1.00  0.00     0.138 C 
BRANCH   7   8
HETATM    8  C   UNL     1     -42.010  54.908 -53.935  1.00  0.00     0.003 C 
HETATM    9  C   UNL     1     -42.199  53.425 -54.357  1.00  0.00     0.016 C 
HETATM   10  C   UNL     1     -40.792  52.831 -54.369  1.00  0.00     0.001 C 
HETATM   11  C   UNL     1     -39.857  54.004 -54.648  1.00  0.00     0.001 C 
HETATM   12  C   UNL     1     -40.768  55.221 -54.808  1.00  0.00     0.016 C 
BRANCH   8  13
HETATM   13  C   UNL     1     -41.764  55.091 -52.421  1.00  0.00    -0.048 A 
HETATM   14  C   UNL     1     -41.262  56.295 -51.895  1.00  0.00     0.008 A 
HETATM   15  C   UNL     1     -41.030  56.452 -50.525  1.00  0.00     0.001 A 
HETATM   16  C   UNL     1     -41.270  55.400 -49.649  1.00  0.00     0.000 A 
HETATM   17  C   UNL     1     -41.738  54.189 -50.145  1.00  0.00     0.001 A 
HETATM   18  C   UNL     1     -41.979  54.036 -51.513  1.00  0.00     0.008 A 
ENDBRANCH   8  13
ENDBRANCH   7   8
ENDBRANCH   3   7
BRANCH   1  19
HETATM   19  C   UNL     1     -44.185  57.198 -58.936  1.00  0.00     0.095 A 
HETATM   20  C   UNL     1     -45.415  57.709 -59.297  1.00  0.00     0.107 A 
HETATM   21  O   UNL     1     -45.267  58.538 -60.362  1.00  0.00    -0.215 OA
HETATM   22  N   UNL     1     -43.938  58.614 -60.709  1.00  0.00    -0.131 NA
HETATM   23  C   UNL     1     -43.283  57.818 -59.851  1.00  0.00     0.087 A 
HETATM   24  C   UNL     1     -41.805  57.751 -59.948  1.00  0.00     0.075 C 
BRANCH  20  25
HETATM   25  C   UNL     1     -46.807  57.539 -58.816  1.00  0.00     0.065 C 
HETATM   26  C   UNL     1     -47.164  58.568 -57.755  1.00  0.00     0.012 C 
ENDBRANCH  20  25
ENDBRANCH   1  19
TORSDOF 5
ENDMDL
MODEL 5
REMARK VINA RESULT:      -7.6      2.353      8.056
REMARK  5 active torsions:
REMARK  status: ('A' for Active; 'I' for Inactive)
REMARK    1  A    between atoms: C_2  and  C_3 
REMARK    2  A    between atoms: C_8  and  N_9 
REMARK       I    between atoms: N_9  and  C_10 
REMARK       I    between atoms: C_10  and  N_11 
REMARK    3  A    between atoms: N_11  and  C_12 
REMARK    4  A    between atoms: C_12  and  C_13 
REMARK    5  A    between atoms: C_13  and  C_14 
ROOT
HETATM    1  N   UNL     1     -41.154  54.970 -54.939  1.00  0.00    -0.305 N 
HETATM    2  C   UNL     1     -42.262  54.751 -55.723  1.00  0.00     0.320 C 
HETATM    3  N   UNL     1     -42.207  55.495 -56.882  1.00  0.00    -0.342 N 
HETATM    4  O   UNL     1     -43.180  53.982 -55.475  1.00  0.00    -0.247 OA
HETATM    5  H   UNL     1     -40.331  55.286 -55.428  1.00  0.00     0.171 HD
HETATM    6  H   UNL     1     -41.636  56.327 -56.872  1.00  0.00     0.164 HD
ENDROOT
BRANCH   3   7
HETATM    7  C   UNL     1     -43.287  55.465 -57.859  1.00  0.00     0.138 C 
BRANCH   7   8
HETATM    8  C   UNL     1     -43.297  56.659 -58.852  1.00  0.00     0.003 C 
HETATM    9  C   UNL     1     -42.847  57.948 -58.110  1.00  0.00     0.016 C 
HETATM   10  C   UNL     1     -42.415  58.914 -59.213  1.00  0.00     0.001 C 
HETATM   11  C   UNL     1     -41.970  58.032 -60.376  1.00  0.00     0.001 C 
HETATM   12  C   UNL     1     -42.141  56.594 -59.884  1.00  0.00     0.016 C 
BRANCH   8  13
HETATM   13  C   UNL     1     -44.695  56.777 -59.496  1.00  0.00    -0.048 A 
HETATM   14  C   UNL     1     -45.633  57.728 -59.054  1.00  0.00     0.008 A 
HETATM   15  C   UNL     1     -46.903  57.822 -59.632  1.00  0.00     0.001 A 
HETATM   16  C   UNL     1     -47.277  56.953 -60.650  1.00  0.00     0.000 A 
HETATM   17  C   UNL     1     -46.381  55.983 -61.085  1.00  0.00     0.001 A 
HETATM   18  C   UNL     1     -45.109  55.895 -60.514  1.00  0.00     0.008 A 
ENDBRANCH   8  13
ENDBRANCH   7   8
ENDBRANCH   3   7
BRANCH   1  19
HETATM   19  C   UNL     1     -40.974  54.480 -53.653  1.00  0.00     0.095 A 
HETATM   20  C   UNL     1     -40.564  53.190 -53.377  1.00  0.00     0.107 A 
HETATM   21  O   UNL     1     -40.480  53.018 -52.033  1.00  0.00    -0.215 OA
HETATM   22  N   UNL     1     -40.804  54.193 -51.394  1.00  0.00    -0.131 NA
HETATM   23  C   UNL     1     -41.093  55.076 -52.362  1.00  0.00     0.087 A 
HETATM   24  C   UNL     1     -41.421  56.466 -51.965  1.00  0.00     0.075 C 
BRANCH  20  25
HETATM   25  C   UNL     1     -40.236  51.995 -54.190  1.00  0.00     0.065 C 
HETATM   26  C   UNL     1     -39.484  50.953 -53.378  1.00  0.00     0.012 C 
ENDBRANCH  20  25
ENDBRANCH   1  19
TORSDOF 5
ENDMDL
MODEL 6
REMARK VINA RESULT:      -7.5      5.015      6.868
REMARK  5 active torsions:
REMARK  status: ('A' for Active; 'I' for Inactive)
REMARK    1  A    between atoms: C_2  and  C_3 
REMARK    2  A    between atoms: C_8  and  N_9 
REMARK       I    between atoms: N_9  and  C_10 
REMARK       I    between atoms: C_10  and  N_11 
REMARK    3  A    between atoms: N_11  and  C_12 
REMARK    4  A    between atoms: C_12  and  C_13 
REMARK    5  A    between atoms: C_13  and  C_14 
ROOT
HETATM    1  N   UNL     1     -44.398  59.521 -50.331  1.00  0.00    -0.305 N 
HETATM    2  C   UNL     1     -44.659  58.259 -50.811  1.00  0.00     0.320 C 
HETATM    3  N   UNL     1     -43.491  57.569 -51.056  1.00  0.00    -0.342 N 
HETATM    4  O   UNL     1     -45.765  57.767 -50.981  1.00  0.00    -0.247 OA
HETATM    5  H   UNL     1     -43.508  59.637 -49.872  1.00  0.00     0.171 HD
HETATM    6  H   UNL     1     -42.657  58.112 -51.222  1.00  0.00     0.164 HD
ENDROOT
BRANCH   3   7
HETATM    7  C   UNL     1     -43.504  56.221 -51.607  1.00  0.00     0.138 C 
BRANCH   7   8
HETATM    8  C   UNL     1     -42.233  55.382 -51.302  1.00  0.00     0.003 C 
HETATM    9  C   UNL     1     -41.242  56.238 -50.465  1.00  0.00     0.016 C 
HETATM   10  C   UNL     1     -40.298  55.231 -49.810  1.00  0.00     0.001 C 
HETATM   11  C   UNL     1     -41.103  53.940 -49.687  1.00  0.00     0.001 C 
HETATM   12  C   UNL     1     -42.484  54.266 -50.256  1.00  0.00     0.016 C 
BRANCH   8  13
HETATM   13  C   UNL     1     -41.632  54.865 -52.627  1.00  0.00    -0.048 A 
HETATM   14  C   UNL     1     -41.709  53.509 -52.992  1.00  0.00     0.008 A 
HETATM   15  C   UNL     1     -41.152  53.043 -54.188  1.00  0.00     0.001 A 
HETATM   16  C   UNL     1     -40.483  53.917 -55.036  1.00  0.00     0.000 A 
HETATM   17  C   UNL     1     -40.365  55.256 -54.686  1.00  0.00     0.001 A 
HETATM   18  C   UNL     1     -40.929  55.723 -53.495  1.00  0.00     0.008 A 
ENDBRANCH   8  13
ENDBRANCH   7   8
ENDBRANCH   3   7
BRANCH   1  19
HETATM   19  C   UNL     1     -45.350  60.510 -50.118  1.00  0.00     0.095 A 
HETATM   20  C   UNL     1     -45.563  61.113 -48.895  1.00  0.00     0.107 A 
HETATM   21  O   UNL     1     -46.553  62.035 -49.011  1.00  0.00    -0.215 OA
HETATM   22  N   UNL     1     -46.995  62.080 -50.313  1.00  0.00    -0.131 NA
HETATM   23  C   UNL     1     -46.270  61.173 -50.984  1.00  0.00     0.087 A 
HETATM   24  C   UNL     1     -46.488  61.044 -52.445  1.00  0.00     0.075 C 
BRANCH  20  25
HETATM   25  C   UNL     1     -44.992  60.964 -47.536  1.00  0.00     0.065 C 
HETATM   26  C   UNL     1     -45.970  60.289 -46.587  1.00  0.00     0.012 C 
ENDBRANCH  20  25
ENDBRANCH   1  19
TORSDOF 5
ENDMDL
MODEL 7
REMARK VINA RESULT:      -7.5      2.336      7.442
REMARK  5 active torsions:
REMARK  status: ('A' for Active; 'I' for Inactive)
REMARK    1  A    between atoms: C_2  and  C_3 
REMARK    2  A    between atoms: C_8  and  N_9 
REMARK       I    between atoms: N_9  and  C_10 
REMARK       I    between atoms: C_10  and  N_11 
REMARK    3  A    between atoms: N_11  and  C_12 
REMARK    4  A    between atoms: C_12  and  C_13 
REMARK    5  A    between atoms: C_13  and  C_14 
ROOT
HETATM    1  N   UNL     1     -43.275  54.659 -54.049  1.00  0.00    -0.305 N 
HETATM    2  C   UNL     1     -43.462  55.998 -54.298  1.00  0.00     0.320 C 
HETATM    3  N   UNL     1     -44.120  56.195 -55.493  1.00  0.00    -0.342 N 
HETATM    4  O   UNL     1     -43.133  56.919 -53.566  1.00  0.00    -0.247 OA
HETATM    5  H   UNL     1     -43.927  54.036 -54.502  1.00  0.00     0.171 HD
HETATM    6  H   UNL     1     -44.059  55.461 -56.182  1.00  0.00     0.164 HD
ENDROOT
BRANCH   3   7
HETATM    7  C   UNL     1     -44.402  57.532 -55.996  1.00  0.00     0.138 C 
BRANCH   7   8
HETATM    8  C   UNL     1     -43.769  57.852 -57.378  1.00  0.00     0.003 C 
HETATM    9  C   UNL     1     -43.997  59.353 -57.711  1.00  0.00     0.016 C 
HETATM   10  C   UNL     1     -42.960  59.685 -58.784  1.00  0.00     0.001 C 
HETATM   11  C   UNL     1     -41.808  58.712 -58.551  1.00  0.00     0.001 C 
HETATM   12  C   UNL     1     -42.220  57.877 -57.339  1.00  0.00     0.016 C 
BRANCH   8  13
HETATM   13  C   UNL     1     -44.347  56.892 -58.439  1.00  0.00    -0.048 A 
HETATM   14  C   UNL     1     -43.644  55.748 -58.860  1.00  0.00     0.008 A 
HETATM   15  C   UNL     1     -44.167  54.887 -59.831  1.00  0.00     0.001 A 
HETATM   16  C   UNL     1     -45.393  55.161 -60.423  1.00  0.00     0.000 A 
HETATM   17  C   UNL     1     -46.095  56.300 -60.049  1.00  0.00     0.001 A 
HETATM   18  C   UNL     1     -45.578  57.156 -59.072  1.00  0.00     0.008 A 
ENDBRANCH   8  13
ENDBRANCH   7   8
ENDBRANCH   3   7
BRANCH   1  19
HETATM   19  C   UNL     1     -42.527  54.135 -53.002  1.00  0.00     0.095 A 
HETATM   20  C   UNL     1     -41.340  53.452 -53.179  1.00  0.00     0.107 A 
HETATM   21  O   UNL     1     -40.853  53.070 -51.971  1.00  0.00    -0.215 OA
HETATM   22  N   UNL     1     -41.689  53.513 -50.972  1.00  0.00    -0.131 NA
HETATM   23  C   UNL     1     -42.691  54.161 -51.585  1.00  0.00     0.087 A 
HETATM   24  C   UNL     1     -43.724  54.809 -50.743  1.00  0.00     0.075 C 
BRANCH  20  25
HETATM   25  C   UNL     1     -40.530  53.039 -54.349  1.00  0.00     0.065 C 
HETATM   26  C   UNL     1     -40.229  51.548 -54.325  1.00  0.00     0.012 C 
ENDBRANCH  20  25
ENDBRANCH   1  19
TORSDOF 5
ENDMDL
MODEL 8
REMARK VINA RESULT:      -7.5      3.354      7.649
REMARK  5 active torsions:
REMARK  status: ('A' for Active; 'I' for Inactive)
REMARK    1  A    between atoms: C_2  and  C_3 
REMARK    2  A    between atoms: C_8  and  N_9 
REMARK       I    between atoms: N_9  and  C_10 
REMARK       I    between atoms: C_10  and  N_11 
REMARK    3  A    between atoms: N_11  and  C_12 
REMARK    4  A    between atoms: C_12  and  C_13 
REMARK    5  A    between atoms: C_13  and  C_14 
ROOT
HETATM    1  N   UNL     1     -39.822  53.299 -52.880  1.00  0.00    -0.305 N 
HETATM    2  C   UNL     1     -40.825  53.733 -53.715  1.00  0.00     0.320 C 
HETATM    3  N   UNL     1     -40.525  54.965 -54.255  1.00  0.00    -0.342 N 
HETATM    4  O   UNL     1     -41.846  53.122 -53.992  1.00  0.00    -0.247 OA
HETATM    5  H   UNL     1     -38.908  53.685 -53.060  1.00  0.00     0.171 HD
HETATM    6  H   UNL     1     -39.873  55.547 -53.749  1.00  0.00     0.164 HD
ENDROOT
BRANCH   3   7
HETATM    7  C   UNL     1     -41.451  55.654 -55.143  1.00  0.00     0.138 C 
BRANCH   7   8
HETATM    8  C   UNL     1     -42.397  56.663 -54.438  1.00  0.00     0.003 C 
HETATM    9  C   UNL     1     -42.847  57.745 -55.458  1.00  0.00     0.016 C 
HETATM   10  C   UNL     1     -44.105  58.366 -54.855  1.00  0.00     0.001 C 
HETATM   11  C   UNL     1     -44.716  57.277 -53.978  1.00  0.00     0.001 C 
HETATM   12  C   UNL     1     -43.795  56.066 -54.133  1.00  0.00     0.016 C 
BRANCH   8  13
HETATM   13  C   UNL     1     -41.689  57.246 -53.196  1.00  0.00    -0.048 A 
HETATM   14  C   UNL     1     -41.951  56.761 -51.901  1.00  0.00     0.008 A 
HETATM   15  C   UNL     1     -41.315  57.300 -50.778  1.00  0.00     0.001 A 
HETATM   16  C   UNL     1     -40.420  58.354 -50.918  1.00  0.00     0.000 A 
HETATM   17  C   UNL     1     -40.165  58.873 -52.182  1.00  0.00     0.001 A 
HETATM   18  C   UNL     1     -40.793  58.328 -53.305  1.00  0.00     0.008 A 
ENDBRANCH   8  13
ENDBRANCH   7   8
ENDBRANCH   3   7
BRANCH   1  19
HETATM   19  C   UNL     1     -39.881  52.167 -52.078  1.00  0.00     0.095 A 
HETATM   20  C   UNL     1     -40.231  52.195 -50.743  1.00  0.00     0.107 A 
HETATM   21  O   UNL     1     -40.196  50.934 -50.239  1.00  0.00    -0.215 OA
HETATM   22  N   UNL     1     -39.852  50.047 -51.232  1.00  0.00    -0.131 NA
HETATM   23  C   UNL     1     -39.670  50.781 -52.340  1.00  0.00     0.087 A 
HETATM   24  C   UNL     1     -39.347  50.073 -53.603  1.00  0.00     0.075 C 
BRANCH  20  25
HETATM   25  C   UNL     1     -40.593  53.255 -49.773  1.00  0.00     0.065 C 
HETATM   26  C   UNL     1     -39.459  54.249 -49.578  1.00  0.00     0.012 C 
ENDBRANCH  20  25
ENDBRANCH   1  19
TORSDOF 5
ENDMDL
MODEL 9
REMARK VINA RESULT:      -7.5      2.094      3.987
REMARK  5 active torsions:
REMARK  status: ('A' for Active; 'I' for Inactive)
REMARK    1  A    between atoms: C_2  and  C_3 
REMARK    2  A    between atoms: C_8  and  N_9 
REMARK       I    between atoms: N_9  and  C_10 
REMARK       I    between atoms: C_10  and  N_11 
REMARK    3  A    between atoms: N_11  and  C_12 
REMARK    4  A    between atoms: C_12  and  C_13 
REMARK    5  A    between atoms: C_13  and  C_14 
ROOT
HETATM    1  N   UNL     1     -42.774  55.957 -57.702  1.00  0.00    -0.305 N 
HETATM    2  C   UNL     1     -43.297  56.088 -56.438  1.00  0.00     0.320 C 
HETATM    3  N   UNL     1     -43.088  54.949 -55.692  1.00  0.00    -0.342 N 
HETATM    4  O   UNL     1     -43.852  57.080 -55.987  1.00  0.00    -0.247 OA
HETATM    5  H   UNL     1     -42.023  55.291 -57.796  1.00  0.00     0.171 HD
HETATM    6  H   UNL     1     -42.946  54.085 -56.194  1.00  0.00     0.164 HD
ENDROOT
BRANCH   3   7
HETATM    7  C   UNL     1     -43.585  54.828 -54.328  1.00  0.00     0.138 C 
BRANCH   7   8
HETATM    8  C   UNL     1     -42.483  54.820 -53.234  1.00  0.00     0.003 C 
HETATM    9  C   UNL     1     -42.999  54.044 -51.990  1.00  0.00     0.016 C 
HETATM   10  C   UNL     1     -41.744  53.664 -51.206  1.00  0.00     0.001 C 
HETATM   11  C   UNL     1     -40.628  53.577 -52.243  1.00  0.00     0.001 C 
HETATM   12  C   UNL     1     -41.293  53.889 -53.584  1.00  0.00     0.016 C 
BRANCH   8  13
HETATM   13  C   UNL     1     -42.061  56.272 -52.922  1.00  0.00    -0.048 A 
HETATM   14  C   UNL     1     -40.981  56.885 -53.583  1.00  0.00     0.008 A 
HETATM   15  C   UNL     1     -40.596  58.197 -53.289  1.00  0.00     0.001 A 
HETATM   16  C   UNL     1     -41.265  58.921 -52.309  1.00  0.00     0.000 A 
HETATM   17  C   UNL     1     -42.316  58.329 -51.619  1.00  0.00     0.001 A 
HETATM   18  C   UNL     1     -42.707  57.022 -51.919  1.00  0.00     0.008 A 
ENDBRANCH   8  13
ENDBRANCH   7   8
ENDBRANCH   3   7
BRANCH   1  19
HETATM   19  C   UNL     1     -42.939  56.869 -58.736  1.00  0.00     0.095 A 
HETATM   20  C   UNL     1     -43.669  56.605 -59.878  1.00  0.00     0.107 A 
HETATM   21  O   UNL     1     -43.643  57.690 -60.694  1.00  0.00    -0.215 OA
HETATM   22  N   UNL     1     -42.922  58.700 -60.099  1.00  0.00    -0.131 NA
HETATM   23  C   UNL     1     -42.505  58.216 -58.921  1.00  0.00     0.087 A 
HETATM   24  C   UNL     1     -41.746  59.119 -58.022  1.00  0.00     0.075 C 
BRANCH  20  25
HETATM   25  C   UNL     1     -44.419  55.438 -60.400  1.00  0.00     0.065 C 
HETATM   26  C   UNL     1     -45.922  55.658 -60.325  1.00  0.00     0.012 C 
ENDBRANCH  20  25
ENDBRANCH   1  19
TORSDOF 5
ENDMDL
MODEL 10
REMARK VINA RESULT:      -7.5      1.874      3.217
REMARK  5 active torsions:
REMARK  status: ('A' for Active; 'I' for Inactive)
REMARK    1  A    between atoms: C_2  and  C_3 
REMARK    2  A    between atoms: C_8  and  N_9 
REMARK       I    between atoms: N_9  and  C_10 
REMARK       I    between atoms: C_10  and  N_11 
REMARK    3  A    between atoms: N_11  and  C_12 
REMARK    4  A    between atoms: C_12  and  C_13 
REMARK    5  A    between atoms: C_13  and  C_14 
ROOT
HETATM    1  N   UNL     1     -43.985  56.624 -57.442  1.00  0.00    -0.305 N 
HETATM    2  C   UNL     1     -44.007  57.195 -56.192  1.00  0.00     0.320 C 
HETATM    3  N   UNL     1     -43.963  56.235 -55.205  1.00  0.00    -0.342 N 
HETATM    4  O   UNL     1     -44.029  58.393 -55.947  1.00  0.00    -0.247 OA
HETATM    5  H   UNL     1     -43.567  55.707 -57.494  1.00  0.00     0.171 HD
HETATM    6  H   UNL     1     -44.282  55.308 -55.445  1.00  0.00     0.164 HD
ENDROOT
BRANCH   3   7
HETATM    7  C   UNL     1     -44.014  56.590 -53.793  1.00  0.00     0.138 C 
BRANCH   7   8
HETATM    8  C   UNL     1     -42.651  56.507 -53.053  1.00  0.00     0.003 C 
HETATM    9  C   UNL     1     -41.920  57.872 -53.169  1.00  0.00     0.016 C 
HETATM   10  C   UNL     1     -40.883  57.868 -52.047  1.00  0.00     0.001 C 
HETATM   11  C   UNL     1     -41.452  56.947 -50.971  1.00  0.00     0.001 C 
HETATM   12  C   UNL     1     -42.804  56.480 -51.510  1.00  0.00     0.016 C 
BRANCH   8  13
HETATM   13  C   UNL     1     -41.836  55.322 -53.615  1.00  0.00    -0.048 A 
HETATM   14  C   UNL     1     -42.045  54.004 -53.168  1.00  0.00     0.008 A 
HETATM   15  C   UNL     1     -41.296  52.936 -53.672  1.00  0.00     0.001 A 
HETATM   16  C   UNL     1     -40.302  53.161 -54.617  1.00  0.00     0.000 A 
HETATM   17  C   UNL     1     -40.053  54.457 -55.054  1.00  0.00     0.001 A 
HETATM   18  C   UNL     1     -40.808  55.523 -54.557  1.00  0.00     0.008 A 
ENDBRANCH   8  13
ENDBRANCH   7   8
ENDBRANCH   3   7
BRANCH   1  19
HETATM   19  C   UNL     1     -44.155  57.307 -58.639  1.00  0.00     0.095 A 
HETATM   20  C   UNL     1     -45.390  57.638 -59.159  1.00  0.00     0.107 A 
HETATM   21  O   UNL     1     -45.224  58.300 -60.333  1.00  0.00    -0.215 OA
HETATM   22  N   UNL     1     -43.882  58.445 -60.599  1.00  0.00    -0.131 NA
HETATM   23  C   UNL     1     -43.236  57.858 -59.581  1.00  0.00     0.087 A 
HETATM   24  C   UNL     1     -41.755  57.916 -59.567  1.00  0.00     0.075 C 
BRANCH  20  25
HETATM   25  C   UNL     1     -46.797  57.416 -58.751  1.00  0.00     0.065 C 
HETATM   26  C   UNL     1     -47.222  58.379 -57.653  1.00  0.00     0.012 C 
ENDBRANCH  20  25
ENDBRANCH   1  19
TORSDOF 5
ENDMDL
