MODEL 1
REMARK VINA RESULT:      -9.4      0.000      0.000
REMARK  5 active torsions:
REMARK  status: ('A' for Active; 'I' for Inactive)
REMARK    1  A    between atoms: C_3  and  N_4 
REMARK       I    between atoms: N_4  and  C_5 
REMARK    2  A    between atoms: C_9  and  N_10 
REMARK       I    between atoms: N_10  and  C_11 
REMARK    3  A    between atoms: C_11  and  C_12 
REMARK    4  A    between atoms: C_17  and  C_18 
REMARK    5  A    between atoms: C_24  and  C_25 
ROOT
HETATM    1  C   UNL     1     -42.557  55.585 -56.106  1.00  0.00     0.148 A 
HETATM    2  N   UNL     1     -42.905  55.148 -57.339  1.00  0.00    -0.165 NA
HETATM    3  N   UNL     1     -42.888  56.270 -58.084  1.00  0.00    -0.240 N 
HETATM    4  C   UNL     1     -42.515  57.390 -57.394  1.00  0.00     0.123 A 
HETATM    5  N   UNL     1     -42.401  58.591 -58.002  1.00  0.00    -0.364 N 
HETATM    6  C   UNL     1     -42.890  58.790 -59.369  1.00  0.00     0.143 C 
HETATM    7  C   UNL     1     -42.627  57.510 -60.186  1.00  0.00     0.068 C 
HETATM    8  C   UNL     1     -43.219  56.264 -59.497  1.00  0.00     0.221 C 
HETATM    9  C   UNL     1     -42.299  56.984 -56.105  1.00  0.00     0.089 A 
HETATM   10  H   UNL     1     -42.349  59.442 -57.443  1.00  0.00     0.162 HD
ENDROOT
BRANCH   1  11
HETATM   11  C   UNL     1     -42.479  54.684 -54.943  1.00  0.00     0.276 C 
HETATM   12  N   UNL     1     -41.208  54.174 -54.763  1.00  0.00    -0.322 N 
HETATM   13  H   UNL     1     -40.537  54.505 -55.454  1.00  0.00     0.169 HD
HETATM   14  O   UNL     1     -43.469  54.439 -54.261  1.00  0.00    -0.266 OA
BRANCH  12  15
HETATM   15  C   UNL     1     -40.770  53.243 -53.804  1.00  0.00     0.037 A 
HETATM   16  C   UNL     1     -40.839  53.455 -52.426  1.00  0.00     0.059 A 
HETATM   17  C   UNL     1     -40.427  52.477 -51.497  1.00  0.00     0.042 A 
HETATM   18  C   UNL     1     -39.856  51.285 -51.971  1.00  0.00    -0.035 A 
HETATM   19  C   UNL     1     -39.249  50.218 -51.104  1.00  0.00     0.050 C 
HETATM   20  C   UNL     1     -39.804  51.073 -53.362  1.00  0.00     0.011 A 
HETATM   21  C   UNL     1     -40.254  52.037 -54.267  1.00  0.00     0.030 A 
BRANCH  17  22
HETATM   22  N   UNL     1     -40.602  52.846 -50.140  1.00  0.00    -0.327 N 
HETATM   23  C   UNL     1     -39.926  53.814 -49.423  1.00  0.00     0.218 C 
HETATM   24  C   UNL     1     -40.447  53.939 -48.013  1.00  0.00     0.117 C 
HETATM   25  O   UNL     1     -38.998  54.513 -49.809  1.00  0.00    -0.274 OA
HETATM   26  H   UNL     1     -41.089  52.162 -49.574  1.00  0.00     0.169 HD
ENDBRANCH  17  22
ENDBRANCH  12  15
ENDBRANCH   1  11
BRANCH   8  27
HETATM   27  C   UNL     1     -44.719  56.174 -59.671  1.00  0.00     0.409 C 
HETATM   28  F   UNL     1     -45.172  54.902 -59.627  1.00  0.00    -0.169 F 
HETATM   29  F   UNL     1     -45.403  56.887 -58.753  1.00  0.00    -0.169 F 
HETATM   30  F   UNL     1     -45.073  56.664 -60.888  1.00  0.00    -0.169 F 
ENDBRANCH   8  27
BRANCH   6  31
HETATM   31  C   UNL     1     -42.256  59.967 -60.043  1.00  0.00     0.075 A 
HETATM   32  O   UNL     1     -41.679  60.898 -59.229  1.00  0.00    -0.325 OA
HETATM   33  C   UNL     1     -41.152  61.857 -60.035  1.00  0.00     0.142 A 
HETATM   34  C   UNL     1     -41.389  61.559 -61.356  1.00  0.00     0.027 A 
HETATM   35  C   UNL     1     -42.105  60.339 -61.364  1.00  0.00     0.037 A 
ENDBRANCH   6  31
TORSDOF 5
ENDMDL
MODEL 2
REMARK VINA RESULT:      -9.4      2.267      3.384
REMARK  5 active torsions:
REMARK  status: ('A' for Active; 'I' for Inactive)
REMARK    1  A    between atoms: C_3  and  N_4 
REMARK       I    between atoms: N_4  and  C_5 
REMARK    2  A    between atoms: C_9  and  N_10 
REMARK       I    between atoms: N_10  and  C_11 
REMARK    3  A    between atoms: C_11  and  C_12 
REMARK    4  A    between atoms: C_17  and  C_18 
REMARK    5  A    between atoms: C_24  and  C_25 
ROOT
HETATM    1  C   UNL     1     -42.065  55.910 -55.859  1.00  0.00     0.148 A 
HETATM    2  N   UNL     1     -42.099  57.242 -56.093  1.00  0.00    -0.165 NA
HETATM    3  N   UNL     1     -42.905  57.349 -57.167  1.00  0.00    -0.240 N 
HETATM    4  C   UNL     1     -43.409  56.157 -57.605  1.00  0.00     0.123 A 
HETATM    5  N   UNL     1     -44.270  56.092 -58.643  1.00  0.00    -0.364 N 
HETATM    6  C   UNL     1     -44.523  57.263 -59.485  1.00  0.00     0.143 C 
HETATM    7  C   UNL     1     -44.510  58.526 -58.601  1.00  0.00     0.068 C 
HETATM    8  C   UNL     1     -43.213  58.630 -57.776  1.00  0.00     0.221 C 
HETATM    9  C   UNL     1     -42.880  55.199 -56.783  1.00  0.00     0.089 A 
HETATM   10  H   UNL     1     -44.454  55.197 -59.096  1.00  0.00     0.162 HD
ENDROOT
BRANCH   1  11
HETATM   11  C   UNL     1     -41.260  55.320 -54.774  1.00  0.00     0.276 C 
HETATM   12  N   UNL     1     -41.457  53.957 -54.662  1.00  0.00    -0.322 N 
HETATM   13  H   UNL     1     -42.115  53.585 -55.343  1.00  0.00     0.169 HD
HETATM   14  O   UNL     1     -40.532  56.014 -54.072  1.00  0.00    -0.266 OA
BRANCH  12  15
HETATM   15  C   UNL     1     -40.912  53.073 -53.712  1.00  0.00     0.037 A 
HETATM   16  C   UNL     1     -40.946  53.294 -52.334  1.00  0.00     0.059 A 
HETATM   17  C   UNL     1     -40.426  52.362 -51.413  1.00  0.00     0.042 A 
HETATM   18  C   UNL     1     -39.782  51.212 -51.899  1.00  0.00    -0.035 A 
HETATM   19  C   UNL     1     -39.061  50.205 -51.047  1.00  0.00     0.050 C 
HETATM   20  C   UNL     1     -39.765  50.989 -53.289  1.00  0.00     0.011 A 
HETATM   21  C   UNL     1     -40.322  51.905 -54.184  1.00  0.00     0.030 A 
BRANCH  17  22
HETATM   22  N   UNL     1     -40.578  52.731 -50.055  1.00  0.00    -0.327 N 
HETATM   23  C   UNL     1     -39.968  53.769 -49.376  1.00  0.00     0.218 C 
HETATM   24  C   UNL     1     -40.440  53.863 -47.946  1.00  0.00     0.117 C 
HETATM   25  O   UNL     1     -39.128  54.547 -49.808  1.00  0.00    -0.274 OA
HETATM   26  H   UNL     1     -40.974  52.011 -49.461  1.00  0.00     0.169 HD
ENDBRANCH  17  22
ENDBRANCH  12  15
ENDBRANCH   1  11
BRANCH   8  27
HETATM   27  C   UNL     1     -42.040  59.096 -58.611  1.00  0.00     0.409 C 
HETATM   28  F   UNL     1     -41.196  59.896 -57.923  1.00  0.00    -0.169 F 
HETATM   29  F   UNL     1     -41.319  58.078 -59.124  1.00  0.00    -0.169 F 
HETATM   30  F   UNL     1     -42.486  59.828 -59.665  1.00  0.00    -0.169 F 
ENDBRANCH   8  27
BRANCH   6  31
HETATM   31  C   UNL     1     -45.818  57.172 -60.229  1.00  0.00     0.075 A 
HETATM   32  O   UNL     1     -46.443  58.352 -60.513  1.00  0.00    -0.325 OA
HETATM   33  C   UNL     1     -47.574  58.046 -61.200  1.00  0.00     0.142 A 
HETATM   34  C   UNL     1     -47.691  56.685 -61.355  1.00  0.00     0.027 A 
HETATM   35  C   UNL     1     -46.558  56.117 -60.726  1.00  0.00     0.037 A 
ENDBRANCH   6  31
TORSDOF 5
ENDMDL
MODEL 3
REMARK VINA RESULT:      -9.1      1.229      2.435
REMARK  5 active torsions:
REMARK  status: ('A' for Active; 'I' for Inactive)
REMARK    1  A    between atoms: C_3  and  N_4 
REMARK       I    between atoms: N_4  and  C_5 
REMARK    2  A    between atoms: C_9  and  N_10 
REMARK       I    between atoms: N_10  and  C_11 
REMARK    3  A    between atoms: C_11  and  C_12 
REMARK    4  A    between atoms: C_17  and  C_18 
REMARK    5  A    between atoms: C_24  and  C_25 
ROOT
HETATM    1  C   UNL     1     -42.701  56.053 -55.657  1.00  0.00     0.148 A 
HETATM    2  N   UNL     1     -42.695  55.387 -56.835  1.00  0.00    -0.165 NA
HETATM    3  N   UNL     1     -42.696  56.374 -57.751  1.00  0.00    -0.240 N 
HETATM    4  C   UNL     1     -42.670  57.631 -57.214  1.00  0.00     0.123 A 
HETATM    5  N   UNL     1     -42.622  58.733 -57.994  1.00  0.00    -0.364 N 
HETATM    6  C   UNL     1     -42.825  58.638 -59.442  1.00  0.00     0.143 C 
HETATM    7  C   UNL     1     -42.186  57.332 -59.952  1.00  0.00     0.068 C 
HETATM    8  C   UNL     1     -42.705  56.104 -59.178  1.00  0.00     0.221 C 
HETATM    9  C   UNL     1     -42.679  57.461 -55.857  1.00  0.00     0.089 A 
HETATM   10  H   UNL     1     -42.832  59.648 -57.596  1.00  0.00     0.162 HD
ENDROOT
BRANCH   1  11
HETATM   11  C   UNL     1     -42.735  55.357 -54.358  1.00  0.00     0.276 C 
HETATM   12  N   UNL     1     -41.681  55.724 -53.543  1.00  0.00    -0.322 N 
HETATM   13  H   UNL     1     -41.062  56.411 -53.967  1.00  0.00     0.169 HD
HETATM   14  O   UNL     1     -43.614  54.543 -54.096  1.00  0.00    -0.266 OA
BRANCH  12  15
HETATM   15  C   UNL     1     -41.353  55.229 -52.268  1.00  0.00     0.037 A 
HETATM   16  C   UNL     1     -41.074  53.887 -52.002  1.00  0.00     0.059 A 
HETATM   17  C   UNL     1     -40.708  53.440 -50.716  1.00  0.00     0.042 A 
HETATM   18  C   UNL     1     -40.700  54.357 -49.652  1.00  0.00    -0.035 A 
HETATM   19  C   UNL     1     -40.467  54.001 -48.211  1.00  0.00     0.050 C 
HETATM   20  C   UNL     1     -40.967  55.711 -49.932  1.00  0.00     0.011 A 
HETATM   21  C   UNL     1     -41.289  56.143 -51.220  1.00  0.00     0.030 A 
BRANCH  17  22
HETATM   22  N   UNL     1     -40.425  52.054 -50.635  1.00  0.00    -0.327 N 
HETATM   23  C   UNL     1     -39.660  51.286 -51.491  1.00  0.00     0.218 C 
HETATM   24  C   UNL     1     -39.556  49.855 -51.024  1.00  0.00     0.117 C 
HETATM   25  O   UNL     1     -39.115  51.645 -52.526  1.00  0.00    -0.274 OA
HETATM   26  H   UNL     1     -41.051  51.527 -50.037  1.00  0.00     0.169 HD
ENDBRANCH  17  22
ENDBRANCH  12  15
ENDBRANCH   1  11
BRANCH   8  27
HETATM   27  C   UNL     1     -44.095  55.699 -59.614  1.00  0.00     0.409 C 
HETATM   28  F   UNL     1     -45.064  56.329 -58.914  1.00  0.00    -0.169 F 
HETATM   29  F   UNL     1     -44.324  55.918 -60.926  1.00  0.00    -0.169 F 
HETATM   30  F   UNL     1     -44.275  54.369 -59.404  1.00  0.00    -0.169 F 
ENDBRANCH   8  27
BRANCH   6  31
HETATM   31  C   UNL     1     -42.258  59.809 -60.183  1.00  0.00     0.075 A 
HETATM   32  O   UNL     1     -41.756  60.825 -59.423  1.00  0.00    -0.325 OA
HETATM   33  C   UNL     1     -41.279  61.764 -60.282  1.00  0.00     0.142 A 
HETATM   34  C   UNL     1     -41.474  61.369 -61.585  1.00  0.00     0.027 A 
HETATM   35  C   UNL     1     -42.109  60.106 -61.523  1.00  0.00     0.037 A 
ENDBRANCH   6  31
TORSDOF 5
ENDMDL
MODEL 4
REMARK VINA RESULT:      -8.8      6.809     10.292
REMARK  5 active torsions:
REMARK  status: ('A' for Active; 'I' for Inactive)
REMARK    1  A    between atoms: C_3  and  N_4 
REMARK       I    between atoms: N_4  and  C_5 
REMARK    2  A    between atoms: C_9  and  N_10 
REMARK       I    between atoms: N_10  and  C_11 
REMARK    3  A    between atoms: C_11  and  C_12 
REMARK    4  A    between atoms: C_17  and  C_18 
REMARK    5  A    between atoms: C_24  and  C_25 
ROOT
HETATM    1  C   UNL     1     -41.478  57.570 -51.491  1.00  0.00     0.148 A 
HETATM    2  N   UNL     1     -40.843  56.947 -50.471  1.00  0.00    -0.165 NA
HETATM    3  N   UNL     1     -40.754  55.671 -50.891  1.00  0.00    -0.240 N 
HETATM    4  C   UNL     1     -41.271  55.459 -52.139  1.00  0.00     0.123 A 
HETATM    5  N   UNL     1     -41.222  54.245 -52.728  1.00  0.00    -0.364 N 
HETATM    6  C   UNL     1     -40.820  53.057 -51.971  1.00  0.00     0.143 C 
HETATM    7  C   UNL     1     -39.712  53.451 -50.974  1.00  0.00     0.068 C 
HETATM    8  C   UNL     1     -40.142  54.632 -50.083  1.00  0.00     0.221 C 
HETATM    9  C   UNL     1     -41.755  56.669 -52.556  1.00  0.00     0.089 A 
HETATM   10  H   UNL     1     -41.803  54.051 -53.543  1.00  0.00     0.162 HD
ENDROOT
BRANCH   1  11
HETATM   11  C   UNL     1     -41.822  59.002 -51.449  1.00  0.00     0.276 C 
HETATM   12  N   UNL     1     -43.053  59.225 -50.862  1.00  0.00    -0.322 N 
HETATM   13  H   UNL     1     -43.514  58.372 -50.553  1.00  0.00     0.169 HD
HETATM   14  O   UNL     1     -41.069  59.851 -51.915  1.00  0.00    -0.266 OA
BRANCH  12  15
HETATM   15  C   UNL     1     -43.734  60.445 -50.702  1.00  0.00     0.037 A 
HETATM   16  C   UNL     1     -44.033  61.013 -49.463  1.00  0.00     0.059 A 
HETATM   17  C   UNL     1     -44.681  62.260 -49.348  1.00  0.00     0.042 A 
HETATM   18  C   UNL     1     -45.110  62.915 -50.514  1.00  0.00    -0.035 A 
HETATM   19  C   UNL     1     -45.930  64.174 -50.542  1.00  0.00     0.050 C 
HETATM   20  C   UNL     1     -44.790  62.343 -51.761  1.00  0.00     0.011 A 
HETATM   21  C   UNL     1     -44.112  61.126 -51.856  1.00  0.00     0.030 A 
BRANCH  17  22
HETATM   22  N   UNL     1     -44.873  62.702 -48.016  1.00  0.00    -0.327 N 
HETATM   23  C   UNL     1     -45.932  62.435 -47.170  1.00  0.00     0.218 C 
HETATM   24  C   UNL     1     -45.733  63.048 -45.805  1.00  0.00     0.117 C 
HETATM   25  O   UNL     1     -46.948  61.802 -47.427  1.00  0.00    -0.274 OA
HETATM   26  H   UNL     1     -44.304  63.496 -47.746  1.00  0.00     0.169 HD
ENDBRANCH  17  22
ENDBRANCH  12  15
ENDBRANCH   1  11
BRANCH   8  27
HETATM   27  C   UNL     1     -41.097  54.205 -48.989  1.00  0.00     0.409 C 
HETATM   28  F   UNL     1     -40.972  54.950 -47.869  1.00  0.00    -0.169 F 
HETATM   29  F   UNL     1     -42.390  54.245 -49.370  1.00  0.00    -0.169 F 
HETATM   30  F   UNL     1     -40.836  52.922 -48.625  1.00  0.00    -0.169 F 
ENDBRANCH   8  27
BRANCH   6  31
HETATM   31  C   UNL     1     -40.344  51.944 -52.851  1.00  0.00     0.075 A 
HETATM   32  O   UNL     1     -39.805  50.859 -52.224  1.00  0.00    -0.325 OA
HETATM   33  C   UNL     1     -39.462  49.970 -53.193  1.00  0.00     0.142 A 
HETATM   34  C   UNL     1     -39.766  50.472 -54.436  1.00  0.00     0.027 A 
HETATM   35  C   UNL     1     -40.334  51.750 -54.218  1.00  0.00     0.037 A 
ENDBRANCH   6  31
TORSDOF 5
ENDMDL
MODEL 5
REMARK VINA RESULT:      -8.3      6.330     10.534
REMARK  5 active torsions:
REMARK  status: ('A' for Active; 'I' for Inactive)
REMARK    1  A    between atoms: C_3  and  N_4 
REMARK       I    between atoms: N_4  and  C_5 
REMARK    2  A    between atoms: C_9  and  N_10 
REMARK       I    between atoms: N_10  and  C_11 
REMARK    3  A    between atoms: C_11  and  C_12 
REMARK    4  A    between atoms: C_17  and  C_18 
REMARK    5  A    between atoms: C_24  and  C_25 
ROOT
HETATM    1  C   UNL     1     -41.541  57.507 -51.360  1.00  0.00     0.148 A 
HETATM    2  N   UNL     1     -40.863  56.887 -50.366  1.00  0.00    -0.165 NA
HETATM    3  N   UNL     1     -40.762  55.617 -50.803  1.00  0.00    -0.240 N 
HETATM    4  C   UNL     1     -41.312  55.407 -52.037  1.00  0.00     0.123 A 
HETATM    5  N   UNL     1     -41.256  54.201 -52.641  1.00  0.00    -0.364 N 
HETATM    6  C   UNL     1     -40.808  53.014 -51.909  1.00  0.00     0.143 C 
HETATM    7  C   UNL     1     -39.678  53.420 -50.942  1.00  0.00     0.068 C 
HETATM    8  C   UNL     1     -40.104  54.583 -50.025  1.00  0.00     0.221 C 
HETATM    9  C   UNL     1     -41.833  56.611 -52.426  1.00  0.00     0.089 A 
HETATM   10  H   UNL     1     -41.858  54.003 -53.440  1.00  0.00     0.162 HD
ENDROOT
BRANCH   1  11
HETATM   11  C   UNL     1     -41.913  58.931 -51.292  1.00  0.00     0.276 C 
HETATM   12  N   UNL     1     -43.259  59.107 -51.035  1.00  0.00    -0.322 N 
HETATM   13  H   UNL     1     -43.769  58.232 -50.931  1.00  0.00     0.169 HD
HETATM   14  O   UNL     1     -41.081  59.815 -51.469  1.00  0.00    -0.266 OA
BRANCH  12  15
HETATM   15  C   UNL     1     -43.983  60.311 -50.960  1.00  0.00     0.037 A 
HETATM   16  C   UNL     1     -44.691  60.860 -52.030  1.00  0.00     0.059 A 
HETATM   17  C   UNL     1     -45.439  62.049 -51.901  1.00  0.00     0.042 A 
HETATM   18  C   UNL     1     -45.406  62.745 -50.682  1.00  0.00    -0.035 A 
HETATM   19  C   UNL     1     -46.035  64.088 -50.440  1.00  0.00     0.050 C 
HETATM   20  C   UNL     1     -44.701  62.176 -49.603  1.00  0.00     0.011 A 
HETATM   21  C   UNL     1     -43.999  60.977 -49.738  1.00  0.00     0.030 A 
BRANCH  17  22
HETATM   22  N   UNL     1     -46.124  62.442 -53.076  1.00  0.00    -0.327 N 
HETATM   23  C   UNL     1     -47.470  62.316 -53.364  1.00  0.00     0.218 C 
HETATM   24  C   UNL     1     -47.817  62.910 -54.707  1.00  0.00     0.117 C 
HETATM   25  O   UNL     1     -48.332  61.787 -52.675  1.00  0.00    -0.274 OA
HETATM   26  H   UNL     1     -45.531  62.596 -53.883  1.00  0.00     0.169 HD
ENDBRANCH  17  22
ENDBRANCH  12  15
ENDBRANCH   1  11
BRANCH   8  27
HETATM   27  C   UNL     1     -41.016  54.124 -48.908  1.00  0.00     0.409 C 
HETATM   28  F   UNL     1     -42.324  54.215 -49.234  1.00  0.00    -0.169 F 
HETATM   29  F   UNL     1     -40.776  52.857 -48.514  1.00  0.00    -0.169 F 
HETATM   30  F   UNL     1     -40.839  54.913 -47.816  1.00  0.00    -0.169 F 
ENDBRANCH   8  27
BRANCH   6  31
HETATM   31  C   UNL     1     -40.337  51.920 -52.815  1.00  0.00     0.075 A 
HETATM   32  O   UNL     1     -39.792  50.823 -52.215  1.00  0.00    -0.325 OA
HETATM   33  C   UNL     1     -39.454  49.955 -53.204  1.00  0.00     0.142 A 
HETATM   34  C   UNL     1     -39.768  50.482 -54.435  1.00  0.00     0.027 A 
HETATM   35  C   UNL     1     -40.337  51.754 -54.186  1.00  0.00     0.037 A 
ENDBRANCH   6  31
TORSDOF 5
ENDMDL
MODEL 6
REMARK VINA RESULT:      -8.2      3.859     10.226
REMARK  5 active torsions:
REMARK  status: ('A' for Active; 'I' for Inactive)
REMARK    1  A    between atoms: C_3  and  N_4 
REMARK       I    between atoms: N_4  and  C_5 
REMARK    2  A    between atoms: C_9  and  N_10 
REMARK       I    between atoms: N_10  and  C_11 
REMARK    3  A    between atoms: C_11  and  C_12 
REMARK    4  A    between atoms: C_17  and  C_18 
REMARK    5  A    between atoms: C_24  and  C_25 
ROOT
HETATM    1  C   UNL     1     -43.267  56.566 -57.373  1.00  0.00     0.148 A 
HETATM    2  N   UNL     1     -42.624  57.257 -56.403  1.00  0.00    -0.165 NA
HETATM    3  N   UNL     1     -42.195  56.293 -55.566  1.00  0.00    -0.240 N 
HETATM    4  C   UNL     1     -42.504  55.025 -55.973  1.00  0.00     0.123 A 
HETATM    5  N   UNL     1     -42.108  53.941 -55.273  1.00  0.00    -0.364 N 
HETATM    6  C   UNL     1     -41.529  54.081 -53.933  1.00  0.00     0.143 C 
HETATM    7  C   UNL     1     -40.663  55.355 -53.894  1.00  0.00     0.068 C 
HETATM    8  C   UNL     1     -41.453  56.595 -54.355  1.00  0.00     0.221 C 
HETATM    9  C   UNL     1     -43.205  55.165 -57.140  1.00  0.00     0.089 A 
HETATM   10  H   UNL     1     -42.532  53.032 -55.457  1.00  0.00     0.162 HD
ENDROOT
BRANCH   1  11
HETATM   11  C   UNL     1     -43.937  57.233 -58.504  1.00  0.00     0.276 C 
HETATM   12  N   UNL     1     -45.256  56.841 -58.633  1.00  0.00    -0.322 N 
HETATM   13  H   UNL     1     -45.548  56.166 -57.930  1.00  0.00     0.169 HD
HETATM   14  O   UNL     1     -43.335  58.023 -59.224  1.00  0.00    -0.266 OA
BRANCH  12  15
HETATM   15  C   UNL     1     -46.183  57.214 -59.622  1.00  0.00     0.037 A 
HETATM   16  C   UNL     1     -46.571  58.533 -59.866  1.00  0.00     0.059 A 
HETATM   17  C   UNL     1     -47.473  58.869 -60.897  1.00  0.00     0.042 A 
HETATM   18  C   UNL     1     -48.061  57.839 -61.650  1.00  0.00    -0.035 A 
HETATM   19  C   UNL     1     -49.137  58.033 -62.681  1.00  0.00     0.050 C 
HETATM   20  C   UNL     1     -47.652  56.513 -61.407  1.00  0.00     0.011 A 
HETATM   21  C   UNL     1     -46.727  56.203 -60.408  1.00  0.00     0.030 A 
BRANCH  17  22
HETATM   22  N   UNL     1     -47.726  60.256 -61.027  1.00  0.00    -0.327 N 
HETATM   23  C   UNL     1     -48.721  61.004 -60.426  1.00  0.00     0.218 C 
HETATM   24  C   UNL     1     -48.617  62.467 -60.779  1.00  0.00     0.117 C 
HETATM   25  O   UNL     1     -49.619  60.600 -59.699  1.00  0.00    -0.274 OA
HETATM   26  H   UNL     1     -47.296  60.693 -61.834  1.00  0.00     0.169 HD
ENDBRANCH  17  22
ENDBRANCH  12  15
ENDBRANCH   1  11
BRANCH   8  27
HETATM   27  C   UNL     1     -42.400  57.099 -53.287  1.00  0.00     0.409 C 
HETATM   28  F   UNL     1     -42.548  58.442 -53.315  1.00  0.00    -0.169 F 
HETATM   29  F   UNL     1     -43.628  56.546 -53.365  1.00  0.00    -0.169 F 
HETATM   30  F   UNL     1     -41.911  56.794 -52.057  1.00  0.00    -0.169 F 
ENDBRANCH   8  27
BRANCH   6  31
HETATM   31  C   UNL     1     -40.712  52.894 -53.530  1.00  0.00     0.075 A 
HETATM   32  O   UNL     1     -40.263  52.872 -52.242  1.00  0.00    -0.325 OA
HETATM   33  C   UNL     1     -39.570  51.714 -52.083  1.00  0.00     0.142 A 
HETATM   34  C   UNL     1     -39.560  50.994 -53.254  1.00  0.00     0.027 A 
HETATM   35  C   UNL     1     -40.295  51.756 -54.193  1.00  0.00     0.037 A 
ENDBRANCH   6  31
TORSDOF 5
ENDMDL
MODEL 7
REMARK VINA RESULT:      -8.2      1.977      3.091
REMARK  5 active torsions:
REMARK  status: ('A' for Active; 'I' for Inactive)
REMARK    1  A    between atoms: C_3  and  N_4 
REMARK       I    between atoms: N_4  and  C_5 
REMARK    2  A    between atoms: C_9  and  N_10 
REMARK       I    between atoms: N_10  and  C_11 
REMARK    3  A    between atoms: C_11  and  C_12 
REMARK    4  A    between atoms: C_17  and  C_18 
REMARK    5  A    between atoms: C_24  and  C_25 
ROOT
HETATM    1  C   UNL     1     -42.458  57.243 -56.431  1.00  0.00     0.148 A 
HETATM    2  N   UNL     1     -42.671  56.948 -57.734  1.00  0.00    -0.165 NA
HETATM    3  N   UNL     1     -42.500  58.131 -58.353  1.00  0.00    -0.240 N 
HETATM    4  C   UNL     1     -42.157  59.155 -57.514  1.00  0.00     0.123 A 
HETATM    5  N   UNL     1     -41.904  60.397 -57.979  1.00  0.00    -0.364 N 
HETATM    6  C   UNL     1     -42.206  60.756 -59.367  1.00  0.00     0.143 C 
HETATM    7  C   UNL     1     -41.912  59.544 -60.272  1.00  0.00     0.068 C 
HETATM    8  C   UNL     1     -42.651  58.280 -59.790  1.00  0.00     0.221 C 
HETATM    9  C   UNL     1     -42.127  58.615 -56.257  1.00  0.00     0.089 A 
HETATM   10  H   UNL     1     -41.877  61.186 -57.334  1.00  0.00     0.162 HD
ENDROOT
BRANCH   1  11
HETATM   11  C   UNL     1     -42.575  56.233 -55.364  1.00  0.00     0.276 C 
HETATM   12  N   UNL     1     -41.380  56.038 -54.697  1.00  0.00    -0.322 N 
HETATM   13  H   UNL     1     -40.623  56.622 -55.045  1.00  0.00     0.169 HD
HETATM   14  O   UNL     1     -43.634  55.652 -55.152  1.00  0.00    -0.266 OA
BRANCH  12  15
HETATM   15  C   UNL     1     -41.095  55.119 -53.671  1.00  0.00     0.037 A 
HETATM   16  C   UNL     1     -40.537  53.858 -53.889  1.00  0.00     0.059 A 
HETATM   17  C   UNL     1     -40.227  52.983 -52.827  1.00  0.00     0.042 A 
HETATM   18  C   UNL     1     -40.563  53.358 -51.516  1.00  0.00    -0.035 A 
HETATM   19  C   UNL     1     -40.422  52.477 -50.306  1.00  0.00     0.050 C 
HETATM   20  C   UNL     1     -41.112  54.638 -51.303  1.00  0.00     0.011 A 
HETATM   21  C   UNL     1     -41.375  55.507 -52.364  1.00  0.00     0.030 A 
BRANCH  17  22
HETATM   22  N   UNL     1     -39.633  51.762 -53.227  1.00  0.00    -0.327 N 
HETATM   23  C   UNL     1     -40.174  50.766 -54.018  1.00  0.00     0.218 C 
HETATM   24  C   UNL     1     -39.195  49.643 -54.259  1.00  0.00     0.117 C 
HETATM   25  O   UNL     1     -41.304  50.720 -54.488  1.00  0.00    -0.274 OA
HETATM   26  H   UNL     1     -38.835  51.476 -52.673  1.00  0.00     0.169 HD
ENDBRANCH  17  22
ENDBRANCH  12  15
ENDBRANCH   1  11
BRANCH   8  27
HETATM   27  C   UNL     1     -44.120  58.305 -60.151  1.00  0.00     0.409 C 
HETATM   28  F   UNL     1     -44.908  58.613 -59.098  1.00  0.00    -0.169 F 
HETATM   29  F   UNL     1     -44.406  59.168 -61.148  1.00  0.00    -0.169 F 
HETATM   30  F   UNL     1     -44.511  57.075 -60.574  1.00  0.00    -0.169 F 
ENDBRANCH   8  27
BRANCH   6  31
HETATM   31  C   UNL     1     -41.430  61.946 -59.837  1.00  0.00     0.075 A 
HETATM   32  O   UNL     1     -42.021  62.720 -60.793  1.00  0.00    -0.325 OA
HETATM   33  C   UNL     1     -41.167  63.744 -61.058  1.00  0.00     0.142 A 
HETATM   34  C   UNL     1     -40.032  63.635 -60.291  1.00  0.00     0.027 A 
HETATM   35  C   UNL     1     -40.198  62.472 -59.503  1.00  0.00     0.037 A 
ENDBRANCH   6  31
TORSDOF 5
ENDMDL
MODEL 8
REMARK VINA RESULT:      -8.0      2.411      2.729
REMARK  5 active torsions:
REMARK  status: ('A' for Active; 'I' for Inactive)
REMARK    1  A    between atoms: C_3  and  N_4 
REMARK       I    between atoms: N_4  and  C_5 
REMARK    2  A    between atoms: C_9  and  N_10 
REMARK       I    between atoms: N_10  and  C_11 
REMARK    3  A    between atoms: C_11  and  C_12 
REMARK    4  A    between atoms: C_17  and  C_18 
REMARK    5  A    between atoms: C_24  and  C_25 
ROOT
HETATM    1  C   UNL     1     -42.734  56.576 -55.373  1.00  0.00     0.148 A 
HETATM    2  N   UNL     1     -42.226  56.676 -56.624  1.00  0.00    -0.165 NA
HETATM    3  N   UNL     1     -43.200  57.308 -57.306  1.00  0.00    -0.240 N 
HETATM    4  C   UNL     1     -44.285  57.643 -56.545  1.00  0.00     0.123 A 
HETATM    5  N   UNL     1     -45.330  58.322 -57.064  1.00  0.00    -0.364 N 
HETATM    6  C   UNL     1     -45.450  58.528 -58.510  1.00  0.00     0.143 C 
HETATM    7  C   UNL     1     -44.044  58.753 -59.100  1.00  0.00     0.068 C 
HETATM    8  C   UNL     1     -43.078  57.615 -58.720  1.00  0.00     0.221 C 
HETATM    9  C   UNL     1     -44.019  57.178 -55.286  1.00  0.00     0.089 A 
HETATM   10  H   UNL     1     -46.214  58.363 -56.556  1.00  0.00     0.162 HD
ENDROOT
BRANCH   1  11
HETATM   11  C   UNL     1     -42.007  55.910 -54.278  1.00  0.00     0.276 C 
HETATM   12  N   UNL     1     -41.781  54.572 -54.540  1.00  0.00    -0.322 N 
HETATM   13  H   UNL     1     -42.146  54.269 -55.440  1.00  0.00     0.169 HD
HETATM   14  O   UNL     1     -41.682  56.522 -53.265  1.00  0.00    -0.266 OA
BRANCH  12  15
HETATM   15  C   UNL     1     -41.178  53.611 -53.709  1.00  0.00     0.037 A 
HETATM   16  C   UNL     1     -41.131  53.705 -52.317  1.00  0.00     0.059 A 
HETATM   17  C   UNL     1     -40.553  52.697 -51.518  1.00  0.00     0.042 A 
HETATM   18  C   UNL     1     -39.935  51.603 -52.144  1.00  0.00    -0.035 A 
HETATM   19  C   UNL     1     -39.161  50.529 -51.432  1.00  0.00     0.050 C 
HETATM   20  C   UNL     1     -40.000  51.508 -53.547  1.00  0.00     0.011 A 
HETATM   21  C   UNL     1     -40.612  52.496 -54.320  1.00  0.00     0.030 A 
BRANCH  17  22
HETATM   22  N   UNL     1     -40.625  52.939 -50.124  1.00  0.00    -0.327 N 
HETATM   23  C   UNL     1     -39.892  53.837 -49.373  1.00  0.00     0.218 C 
HETATM   24  C   UNL     1     -40.309  53.832 -47.922  1.00  0.00     0.117 C 
HETATM   25  O   UNL     1     -38.990  54.569 -49.759  1.00  0.00    -0.274 OA
HETATM   26  H   UNL     1     -41.076  52.206 -49.589  1.00  0.00     0.169 HD
ENDBRANCH  17  22
ENDBRANCH  12  15
ENDBRANCH   1  11
BRANCH   8  27
HETATM   27  C   UNL     1     -43.318  56.364 -59.537  1.00  0.00     0.409 C 
HETATM   28  F   UNL     1     -42.175  55.708 -59.833  1.00  0.00    -0.169 F 
HETATM   29  F   UNL     1     -44.153  55.491 -58.936  1.00  0.00    -0.169 F 
HETATM   30  F   UNL     1     -43.888  56.693 -60.726  1.00  0.00    -0.169 F 
ENDBRANCH   8  27
BRANCH   6  31
HETATM   31  C   UNL     1     -46.341  59.680 -58.857  1.00  0.00     0.075 A 
HETATM   32  O   UNL     1     -47.685  59.455 -58.782  1.00  0.00    -0.325 OA
HETATM   33  C   UNL     1     -48.301  60.619 -59.114  1.00  0.00     0.142 A 
HETATM   34  C   UNL     1     -47.372  61.589 -59.408  1.00  0.00     0.027 A 
HETATM   35  C   UNL     1     -46.104  60.983 -59.246  1.00  0.00     0.037 A 
ENDBRANCH   6  31
TORSDOF 5
ENDMDL
MODEL 9
REMARK VINA RESULT:      -8.0      4.087     10.429
REMARK  5 active torsions:
REMARK  status: ('A' for Active; 'I' for Inactive)
REMARK    1  A    between atoms: C_3  and  N_4 
REMARK       I    between atoms: N_4  and  C_5 
REMARK    2  A    between atoms: C_9  and  N_10 
REMARK       I    between atoms: N_10  and  C_11 
REMARK    3  A    between atoms: C_11  and  C_12 
REMARK    4  A    between atoms: C_17  and  C_18 
REMARK    5  A    between atoms: C_24  and  C_25 
ROOT
HETATM    1  C   UNL     1     -43.221  56.817 -56.866  1.00  0.00     0.148 A 
HETATM    2  N   UNL     1     -42.607  57.381 -55.800  1.00  0.00    -0.165 NA
HETATM    3  N   UNL     1     -42.196  56.320 -55.080  1.00  0.00    -0.240 N 
HETATM    4  C   UNL     1     -42.489  55.113 -55.651  1.00  0.00     0.123 A 
HETATM    5  N   UNL     1     -42.107  53.950 -55.082  1.00  0.00    -0.364 N 
HETATM    6  C   UNL     1     -41.565  53.921 -53.721  1.00  0.00     0.143 C 
HETATM    7  C   UNL     1     -40.705  55.180 -53.499  1.00  0.00     0.068 C 
HETATM    8  C   UNL     1     -41.488  56.468 -53.821  1.00  0.00     0.221 C 
HETATM    9  C   UNL     1     -43.160  55.398 -56.809  1.00  0.00     0.089 A 
HETATM   10  H   UNL     1     -42.523  53.071 -55.391  1.00  0.00     0.162 HD
ENDROOT
BRANCH   1  11
HETATM   11  C   UNL     1     -43.864  57.621 -57.922  1.00  0.00     0.276 C 
HETATM   12  N   UNL     1     -45.242  57.600 -57.826  1.00  0.00    -0.322 N 
HETATM   13  H   UNL     1     -45.585  57.042 -57.047  1.00  0.00     0.169 HD
HETATM   14  O   UNL     1     -43.199  58.204 -58.771  1.00  0.00    -0.266 OA
BRANCH  12  15
HETATM   15  C   UNL     1     -46.185  58.194 -58.685  1.00  0.00     0.037 A 
HETATM   16  C   UNL     1     -46.412  57.777 -59.997  1.00  0.00     0.059 A 
HETATM   17  C   UNL     1     -47.397  58.373 -60.812  1.00  0.00     0.042 A 
HETATM   18  C   UNL     1     -48.117  59.471 -60.316  1.00  0.00    -0.035 A 
HETATM   19  C   UNL     1     -49.094  60.291 -61.112  1.00  0.00     0.050 C 
HETATM   20  C   UNL     1     -47.893  59.876 -58.985  1.00  0.00     0.011 A 
HETATM   21  C   UNL     1     -46.941  59.247 -58.180  1.00  0.00     0.030 A 
BRANCH  17  22
HETATM   22  N   UNL     1     -47.517  57.801 -62.102  1.00  0.00    -0.327 N 
HETATM   23  C   UNL     1     -48.596  57.129 -62.643  1.00  0.00     0.218 C 
HETATM   24  C   UNL     1     -48.346  56.721 -64.074  1.00  0.00     0.117 C 
HETATM   25  O   UNL     1     -49.651  56.848 -62.090  1.00  0.00    -0.274 OA
HETATM   26  H   UNL     1     -46.637  57.646 -62.581  1.00  0.00     0.169 HD
ENDBRANCH  17  22
ENDBRANCH  12  15
ENDBRANCH   1  11
BRANCH   8  27
HETATM   27  C   UNL     1     -42.464  56.833 -52.724  1.00  0.00     0.409 C 
HETATM   28  F   UNL     1     -42.598  58.168 -52.570  1.00  0.00    -0.169 F 
HETATM   29  F   UNL     1     -43.695  56.314 -52.917  1.00  0.00    -0.169 F 
HETATM   30  F   UNL     1     -42.020  56.353 -51.534  1.00  0.00    -0.169 F 
ENDBRANCH   8  27
BRANCH   6  31
HETATM   31  C   UNL     1     -40.753  52.693 -53.449  1.00  0.00     0.075 A 
HETATM   32  O   UNL     1     -40.693  51.768 -54.450  1.00  0.00    -0.325 OA
HETATM   33  C   UNL     1     -39.900  50.756 -54.008  1.00  0.00     0.142 A 
HETATM   34  C   UNL     1     -39.456  51.015 -52.733  1.00  0.00     0.027 A 
HETATM   35  C   UNL     1     -40.009  52.265 -52.367  1.00  0.00     0.037 A 
ENDBRANCH   6  31
TORSDOF 5
ENDMDL
MODEL 10
REMARK VINA RESULT:      -7.8      3.979     10.173
REMARK  5 active torsions:
REMARK  status: ('A' for Active; 'I' for Inactive)
REMARK    1  A    between atoms: C_3  and  N_4 
REMARK       I    between atoms: N_4  and  C_5 
REMARK    2  A    between atoms: C_9  and  N_10 
REMARK       I    between atoms: N_10  and  C_11 
REMARK    3  A    between atoms: C_11  and  C_12 
REMARK    4  A    between atoms: C_17  and  C_18 
REMARK    5  A    between atoms: C_24  and  C_25 
ROOT
HETATM    1  C   UNL     1     -41.422  57.595 -53.895  1.00  0.00     0.148 A 
HETATM    2  N   UNL     1     -41.304  57.260 -52.589  1.00  0.00    -0.165 NA
HETATM    3  N   UNL     1     -41.189  55.918 -52.622  1.00  0.00    -0.240 N 
HETATM    4  C   UNL     1     -41.194  55.390 -53.882  1.00  0.00     0.123 A 
HETATM    5  N   UNL     1     -41.041  54.065 -54.094  1.00  0.00    -0.364 N 
HETATM    6  C   UNL     1     -41.091  53.114 -52.981  1.00  0.00     0.143 C 
HETATM    7  C   UNL     1     -40.429  53.756 -51.746  1.00  0.00     0.068 C 
HETATM    8  C   UNL     1     -41.051  55.126 -51.413  1.00  0.00     0.221 C 
HETATM    9  C   UNL     1     -41.350  56.449 -54.734  1.00  0.00     0.089 A 
HETATM   10  H   UNL     1     -41.273  53.665 -55.003  1.00  0.00     0.162 HD
ENDROOT
BRANCH   1  11
HETATM   11  C   UNL     1     -41.608  58.989 -54.337  1.00  0.00     0.276 C 
HETATM   12  N   UNL     1     -42.266  59.067 -55.550  1.00  0.00    -0.322 N 
HETATM   13  H   UNL     1     -42.517  58.159 -55.934  1.00  0.00     0.169 HD
HETATM   14  O   UNL     1     -41.188  59.929 -53.671  1.00  0.00    -0.266 OA
BRANCH  12  15
HETATM   15  C   UNL     1     -42.564  60.215 -56.307  1.00  0.00     0.037 A 
HETATM   16  C   UNL     1     -41.730  60.730 -57.300  1.00  0.00     0.059 A 
HETATM   17  C   UNL     1     -42.087  61.860 -58.065  1.00  0.00     0.042 A 
HETATM   18  C   UNL     1     -43.281  62.535 -57.767  1.00  0.00    -0.035 A 
HETATM   19  C   UNL     1     -43.722  63.825 -58.400  1.00  0.00     0.050 C 
HETATM   20  C   UNL     1     -44.125  61.999 -56.774  1.00  0.00     0.011 A 
HETATM   21  C   UNL     1     -43.773  60.856 -56.053  1.00  0.00     0.030 A 
BRANCH  17  22
HETATM   22  N   UNL     1     -41.139  62.223 -59.053  1.00  0.00    -0.327 N 
HETATM   23  C   UNL     1     -40.198  63.233 -59.005  1.00  0.00     0.218 C 
HETATM   24  C   UNL     1     -39.335  63.260 -60.243  1.00  0.00     0.117 C 
HETATM   25  O   UNL     1     -40.033  64.055 -58.113  1.00  0.00    -0.274 OA
HETATM   26  H   UNL     1     -41.340  61.875 -59.983  1.00  0.00     0.169 HD
ENDBRANCH  17  22
ENDBRANCH  12  15
ENDBRANCH   1  11
BRANCH   8  27
HETATM   27  C   UNL     1     -42.396  54.992 -50.732  1.00  0.00     0.409 C 
HETATM   28  F   UNL     1     -42.856  56.169 -50.255  1.00  0.00    -0.169 F 
HETATM   29  F   UNL     1     -43.347  54.472 -51.536  1.00  0.00    -0.169 F 
HETATM   30  F   UNL     1     -42.291  54.161 -49.663  1.00  0.00    -0.169 F 
ENDBRANCH   8  27
BRANCH   6  31
HETATM   31  C   UNL     1     -40.425  51.813 -53.301  1.00  0.00     0.075 A 
HETATM   32  O   UNL     1     -39.932  51.104 -52.245  1.00  0.00    -0.325 OA
HETATM   33  C   UNL     1     -39.394  49.963 -52.749  1.00  0.00     0.142 A 
HETATM   34  C   UNL     1     -39.527  49.931 -54.117  1.00  0.00     0.027 A 
HETATM   35  C   UNL     1     -40.190  51.128 -54.477  1.00  0.00     0.037 A 
ENDBRANCH   6  31
TORSDOF 5
ENDMDL
