MODEL 1
REMARK VINA RESULT:      -8.1      0.000      0.000
REMARK  9 active torsions:
REMARK  status: ('A' for Active; 'I' for Inactive)
REMARK    1  A    between atoms: C_2  and  N_3 
REMARK    2  A    between atoms: C_2  and  C_23 
REMARK       I    between atoms: N_3  and  C_4 
REMARK       I    between atoms: C_4  and  N_5 
REMARK    3  A    between atoms: N_5  and  C_6 
REMARK    4  A    between atoms: C_6  and  C_7 
REMARK    5  A    between atoms: C_7  and  N_8 
REMARK    6  A    between atoms: C_7  and  C_14 
REMARK    7  A    between atoms: C_16  and  O_17 
REMARK    8  A    between atoms: C_23  and  C_24 
REMARK    9  A    between atoms: C_27  and  O_28 
ROOT
HETATM    1  N   UNL     1     -42.390  55.568 -53.734  1.00  0.00    -0.339 N 
HETATM    2  C   UNL     1     -42.118  55.686 -55.069  1.00  0.00     0.316 C 
HETATM    3  N   UNL     1     -42.596  56.869 -55.578  1.00  0.00    -0.341 N 
HETATM    4  O   UNL     1     -41.453  54.905 -55.732  1.00  0.00    -0.248 OA
HETATM    5  H   UNL     1     -43.150  56.134 -53.388  1.00  0.00     0.164 HD
HETATM    6  H   UNL     1     -43.397  57.260 -55.099  1.00  0.00     0.164 HD
ENDROOT
BRANCH   3   7
HETATM    7  C   UNL     1     -42.437  57.188 -56.990  1.00  0.00     0.162 C 
BRANCH   7   8
HETATM    8  C   UNL     1     -43.699  57.814 -57.660  1.00  0.00     0.238 C 
BRANCH   8   9
HETATM    9  N   UNL     1     -43.504  59.187 -58.283  1.00  0.00    -0.061 N 
HETATM   10  H   UNL     1     -44.387  59.357 -58.782  1.00  0.00     0.280 HD
HETATM   11  C   UNL     1     -42.440  59.362 -59.347  1.00  0.00     0.236 C 
HETATM   12  C   UNL     1     -41.771  60.691 -59.028  1.00  0.00     0.029 C 
HETATM   13  C   UNL     1     -42.782  61.439 -58.182  1.00  0.00     0.029 C 
HETATM   14  C   UNL     1     -43.385  60.347 -57.327  1.00  0.00     0.236 C 
ENDBRANCH   8   9
BRANCH   8  15
HETATM   15  C   UNL     1     -44.373  56.878 -58.655  1.00  0.00    -0.023 A 
HETATM   16  C   UNL     1     -45.716  57.040 -59.051  1.00  0.00     0.046 A 
HETATM   17  C   UNL     1     -46.307  56.152 -59.954  1.00  0.00     0.068 A 
HETATM   18  C   UNL     1     -45.564  55.079 -60.446  1.00  0.00     0.037 A 
HETATM   19  C   UNL     1     -44.241  54.894 -60.056  1.00  0.00     0.003 A 
HETATM   20  C   UNL     1     -43.647  55.787 -59.166  1.00  0.00     0.009 A 
BRANCH  17  21
HETATM   21  O   UNL     1     -47.590  56.215 -60.416  1.00  0.00    -0.356 OA
HETATM   22  C   UNL     1     -47.784  56.566 -61.781  1.00  0.00     0.210 C 
ENDBRANCH  17  21
ENDBRANCH   8  15
ENDBRANCH   7   8
ENDBRANCH   3   7
BRANCH   1  23
HETATM   23  C   UNL     1     -42.194  54.332 -52.966  1.00  0.00     0.086 C 
HETATM   24  C   UNL     1     -43.125  54.209 -51.761  1.00  0.00     0.032 C 
BRANCH  23  25
HETATM   25  C   UNL     1     -40.717  54.132 -52.560  1.00  0.00     0.063 C 
BRANCH  25  26
HETATM   26  C   UNL     1     -40.290  52.678 -52.611  1.00  0.00    -0.056 A 
HETATM   27  C   UNL     1     -40.296  51.981 -53.828  1.00  0.00     0.010 A 
HETATM   28  C   UNL     1     -39.934  50.631 -53.876  1.00  0.00     0.037 A 
HETATM   29  C   UNL     1     -39.571  49.980 -52.704  1.00  0.00     0.065 A 
HETATM   30  C   UNL     1     -39.552  50.655 -51.490  1.00  0.00     0.037 A 
HETATM   31  C   UNL     1     -39.902  52.005 -51.443  1.00  0.00     0.010 A 
BRANCH  29  32
HETATM   32  O   UNL     1     -39.221  48.663 -52.700  1.00  0.00    -0.361 OA
HETATM   33  H   UNL     1     -39.621  48.232 -51.926  1.00  0.00     0.217 HD
ENDBRANCH  29  32
ENDBRANCH  25  26
ENDBRANCH  23  25
ENDBRANCH   1  23
TORSDOF 9
ENDMDL
MODEL 2
REMARK VINA RESULT:      -8.1      1.822      3.748
REMARK  9 active torsions:
REMARK  status: ('A' for Active; 'I' for Inactive)
REMARK    1  A    between atoms: C_2  and  N_3 
REMARK    2  A    between atoms: C_2  and  C_23 
REMARK       I    between atoms: N_3  and  C_4 
REMARK       I    between atoms: C_4  and  N_5 
REMARK    3  A    between atoms: N_5  and  C_6 
REMARK    4  A    between atoms: C_6  and  C_7 
REMARK    5  A    between atoms: C_7  and  N_8 
REMARK    6  A    between atoms: C_7  and  C_14 
REMARK    7  A    between atoms: C_16  and  O_17 
REMARK    8  A    between atoms: C_23  and  C_24 
REMARK    9  A    between atoms: C_27  and  O_28 
ROOT
HETATM    1  N   UNL     1     -43.056  54.821 -53.946  1.00  0.00    -0.339 N 
HETATM    2  C   UNL     1     -42.888  55.960 -54.683  1.00  0.00     0.316 C 
HETATM    3  N   UNL     1     -43.830  56.063 -55.676  1.00  0.00    -0.341 N 
HETATM    4  O   UNL     1     -42.074  56.843 -54.454  1.00  0.00    -0.248 OA
HETATM    5  H   UNL     1     -43.573  54.079 -54.394  1.00  0.00     0.164 HD
HETATM    6  H   UNL     1     -44.205  55.187 -56.016  1.00  0.00     0.164 HD
ENDROOT
BRANCH   3   7
HETATM    7  C   UNL     1     -43.819  57.190 -56.598  1.00  0.00     0.162 C 
BRANCH   7   8
HETATM    8  C   UNL     1     -43.489  56.817 -58.076  1.00  0.00     0.238 C 
BRANCH   8   9
HETATM    9  N   UNL     1     -44.575  56.061 -58.826  1.00  0.00    -0.061 N 
HETATM   10  H   UNL     1     -45.122  55.615 -58.079  1.00  0.00     0.280 HD
HETATM   11  C   UNL     1     -44.175  54.912 -59.728  1.00  0.00     0.236 C 
HETATM   12  C   UNL     1     -45.038  55.062 -60.972  1.00  0.00     0.029 C 
HETATM   13  C   UNL     1     -46.214  55.908 -60.526  1.00  0.00     0.029 C 
HETATM   14  C   UNL     1     -45.581  56.899 -59.575  1.00  0.00     0.236 C 
ENDBRANCH   8   9
BRANCH   8  15
HETATM   15  C   UNL     1     -43.015  58.007 -58.901  1.00  0.00    -0.023 A 
HETATM   16  C   UNL     1     -43.356  59.335 -58.572  1.00  0.00     0.046 A 
HETATM   17  C   UNL     1     -42.917  60.401 -59.362  1.00  0.00     0.068 A 
HETATM   18  C   UNL     1     -42.156  60.142 -60.502  1.00  0.00     0.037 A 
HETATM   19  C   UNL     1     -41.821  58.838 -60.850  1.00  0.00     0.003 A 
HETATM   20  C   UNL     1     -42.247  57.775 -60.056  1.00  0.00     0.009 A 
BRANCH  17  21
HETATM   21  O   UNL     1     -43.174  61.723 -59.137  1.00  0.00    -0.356 OA
HETATM   22  C   UNL     1     -42.228  62.458 -58.370  1.00  0.00     0.210 C 
ENDBRANCH  17  21
ENDBRANCH   8  15
ENDBRANCH   7   8
ENDBRANCH   3   7
BRANCH   1  23
HETATM   23  C   UNL     1     -42.084  54.333 -52.961  1.00  0.00     0.086 C 
HETATM   24  C   UNL     1     -41.893  55.275 -51.772  1.00  0.00     0.032 C 
BRANCH  23  25
HETATM   25  C   UNL     1     -40.731  53.971 -53.614  1.00  0.00     0.063 C 
BRANCH  25  26
HETATM   26  C   UNL     1     -40.307  52.545 -53.325  1.00  0.00    -0.056 A 
HETATM   27  C   UNL     1     -40.362  51.571 -54.333  1.00  0.00     0.010 A 
HETATM   28  C   UNL     1     -40.002  50.247 -54.063  1.00  0.00     0.037 A 
HETATM   29  C   UNL     1     -39.592  49.899 -52.782  1.00  0.00     0.065 A 
HETATM   30  C   UNL     1     -39.524  50.850 -51.772  1.00  0.00     0.037 A 
HETATM   31  C   UNL     1     -39.871  52.174 -52.044  1.00  0.00     0.010 A 
BRANCH  29  32
HETATM   32  O   UNL     1     -39.242  48.620 -52.470  1.00  0.00    -0.361 OA
HETATM   33  H   UNL     1     -39.839  48.289 -51.778  1.00  0.00     0.217 HD
ENDBRANCH  29  32
ENDBRANCH  25  26
ENDBRANCH  23  25
ENDBRANCH   1  23
TORSDOF 9
ENDMDL
MODEL 3
REMARK VINA RESULT:      -7.9      1.885      8.654
REMARK  9 active torsions:
REMARK  status: ('A' for Active; 'I' for Inactive)
REMARK    1  A    between atoms: C_2  and  N_3 
REMARK    2  A    between atoms: C_2  and  C_23 
REMARK       I    between atoms: N_3  and  C_4 
REMARK       I    between atoms: C_4  and  N_5 
REMARK    3  A    between atoms: N_5  and  C_6 
REMARK    4  A    between atoms: C_6  and  C_7 
REMARK    5  A    between atoms: C_7  and  N_8 
REMARK    6  A    between atoms: C_7  and  C_14 
REMARK    7  A    between atoms: C_16  and  O_17 
REMARK    8  A    between atoms: C_23  and  C_24 
REMARK    9  A    between atoms: C_27  and  O_28 
ROOT
HETATM    1  N   UNL     1     -44.707  57.423 -56.006  1.00  0.00    -0.339 N 
HETATM    2  C   UNL     1     -43.793  56.462 -55.674  1.00  0.00     0.316 C 
HETATM    3  N   UNL     1     -44.211  55.718 -54.597  1.00  0.00    -0.341 N 
HETATM    4  O   UNL     1     -42.772  56.206 -56.294  1.00  0.00    -0.248 OA
HETATM    5  H   UNL     1     -45.350  57.691 -55.275  1.00  0.00     0.164 HD
HETATM    6  H   UNL     1     -44.835  56.190 -53.956  1.00  0.00     0.164 HD
ENDROOT
BRANCH   3   7
HETATM    7  C   UNL     1     -43.376  54.654 -54.060  1.00  0.00     0.162 C 
BRANCH   7   8
HETATM    8  C   UNL     1     -42.109  55.146 -53.295  1.00  0.00     0.238 C 
BRANCH   8   9
HETATM    9  N   UNL     1     -42.363  56.118 -52.152  1.00  0.00    -0.061 N 
HETATM   10  H   UNL     1     -41.644  55.872 -51.459  1.00  0.00     0.280 HD
HETATM   11  C   UNL     1     -43.665  56.020 -51.386  1.00  0.00     0.236 C 
HETATM   12  C   UNL     1     -44.111  57.459 -51.170  1.00  0.00     0.029 C 
HETATM   13  C   UNL     1     -42.848  58.282 -51.325  1.00  0.00     0.029 C 
HETATM   14  C   UNL     1     -42.116  57.577 -52.445  1.00  0.00     0.236 C 
ENDBRANCH   8   9
BRANCH   8  15
HETATM   15  C   UNL     1     -41.215  54.007 -52.824  1.00  0.00    -0.023 A 
HETATM   16  C   UNL     1     -40.656  53.070 -53.716  1.00  0.00     0.046 A 
HETATM   17  C   UNL     1     -39.853  52.026 -53.247  1.00  0.00     0.068 A 
HETATM   18  C   UNL     1     -39.628  51.899 -51.876  1.00  0.00     0.037 A 
HETATM   19  C   UNL     1     -40.182  52.806 -50.978  1.00  0.00     0.003 A 
HETATM   20  C   UNL     1     -40.972  53.854 -51.447  1.00  0.00     0.009 A 
BRANCH  17  21
HETATM   21  O   UNL     1     -39.252  51.071 -54.014  1.00  0.00    -0.356 OA
HETATM   22  C   UNL     1     -39.852  49.782 -54.052  1.00  0.00     0.210 C 
ENDBRANCH  17  21
ENDBRANCH   8  15
ENDBRANCH   7   8
ENDBRANCH   3   7
BRANCH   1  23
HETATM   23  C   UNL     1     -44.447  58.500 -56.968  1.00  0.00     0.086 C 
HETATM   24  C   UNL     1     -44.228  59.864 -56.314  1.00  0.00     0.032 C 
BRANCH  23  25
HETATM   25  C   UNL     1     -45.534  58.570 -58.065  1.00  0.00     0.063 C 
BRANCH  25  26
HETATM   26  C   UNL     1     -45.372  57.490 -59.116  1.00  0.00    -0.056 A 
HETATM   27  C   UNL     1     -46.500  56.910 -59.715  1.00  0.00     0.010 A 
HETATM   28  C   UNL     1     -46.358  55.891 -60.661  1.00  0.00     0.037 A 
HETATM   29  C   UNL     1     -45.086  55.451 -61.004  1.00  0.00     0.065 A 
HETATM   30  C   UNL     1     -43.956  56.017 -60.428  1.00  0.00     0.037 A 
HETATM   31  C   UNL     1     -44.097  57.043 -59.492  1.00  0.00     0.010 A 
BRANCH  29  32
HETATM   32  O   UNL     1     -44.898  54.454 -61.914  1.00  0.00    -0.361 OA
HETATM   33  H   UNL     1     -44.155  53.898 -61.625  1.00  0.00     0.217 HD
ENDBRANCH  29  32
ENDBRANCH  25  26
ENDBRANCH  23  25
ENDBRANCH   1  23
TORSDOF 9
ENDMDL
MODEL 4
REMARK VINA RESULT:      -7.9      2.409      8.852
REMARK  9 active torsions:
REMARK  status: ('A' for Active; 'I' for Inactive)
REMARK    1  A    between atoms: C_2  and  N_3 
REMARK    2  A    between atoms: C_2  and  C_23 
REMARK       I    between atoms: N_3  and  C_4 
REMARK       I    between atoms: C_4  and  N_5 
REMARK    3  A    between atoms: N_5  and  C_6 
REMARK    4  A    between atoms: C_6  and  C_7 
REMARK    5  A    between atoms: C_7  and  N_8 
REMARK    6  A    between atoms: C_7  and  C_14 
REMARK    7  A    between atoms: C_16  and  O_17 
REMARK    8  A    between atoms: C_23  and  C_24 
REMARK    9  A    between atoms: C_27  and  O_28 
ROOT
HETATM    1  N   UNL     1     -43.364  55.235 -57.920  1.00  0.00    -0.339 N 
HETATM    2  C   UNL     1     -43.293  55.609 -56.607  1.00  0.00     0.316 C 
HETATM    3  N   UNL     1     -43.218  54.518 -55.776  1.00  0.00    -0.341 N 
HETATM    4  O   UNL     1     -43.207  56.756 -56.197  1.00  0.00    -0.248 OA
HETATM    5  H   UNL     1     -43.688  54.296 -58.094  1.00  0.00     0.164 HD
HETATM    6  H   UNL     1     -43.639  53.669 -56.129  1.00  0.00     0.164 HD
ENDROOT
BRANCH   3   7
HETATM    7  C   UNL     1     -43.160  54.688 -54.331  1.00  0.00     0.162 C 
BRANCH   7   8
HETATM    8  C   UNL     1     -41.767  55.126 -53.783  1.00  0.00     0.238 C 
BRANCH   8   9
HETATM    9  N   UNL     1     -41.764  56.359 -52.892  1.00  0.00    -0.061 N 
HETATM   10  H   UNL     1     -41.321  56.032 -52.024  1.00  0.00     0.280 HD
HETATM   11  C   UNL     1     -43.090  56.933 -52.437  1.00  0.00     0.236 C 
HETATM   12  C   UNL     1     -42.932  58.442 -52.553  1.00  0.00     0.029 C 
HETATM   13  C   UNL     1     -41.435  58.676 -52.540  1.00  0.00     0.029 C 
HETATM   14  C   UNL     1     -40.901  57.511 -53.342  1.00  0.00     0.236 C 
ENDBRANCH   8   9
BRANCH   8  15
HETATM   15  C   UNL     1     -41.005  53.992 -53.110  1.00  0.00    -0.023 A 
HETATM   16  C   UNL     1     -40.493  52.896 -53.832  1.00  0.00     0.046 A 
HETATM   17  C   UNL     1     -39.813  51.864 -53.178  1.00  0.00     0.068 A 
HETATM   18  C   UNL     1     -39.667  51.910 -51.792  1.00  0.00     0.037 A 
HETATM   19  C   UNL     1     -40.178  52.977 -51.060  1.00  0.00     0.003 A 
HETATM   20  C   UNL     1     -40.844  54.013 -51.713  1.00  0.00     0.009 A 
BRANCH  17  21
HETATM   21  O   UNL     1     -39.266  50.763 -53.772  1.00  0.00    -0.356 OA
HETATM   22  C   UNL     1     -40.132  49.919 -54.521  1.00  0.00     0.210 C 
ENDBRANCH  17  21
ENDBRANCH   8  15
ENDBRANCH   7   8
ENDBRANCH   3   7
BRANCH   1  23
HETATM   23  C   UNL     1     -43.666  56.162 -59.018  1.00  0.00     0.086 C 
HETATM   24  C   UNL     1     -44.738  55.644 -59.977  1.00  0.00     0.032 C 
BRANCH  23  25
HETATM   25  C   UNL     1     -42.391  56.592 -59.778  1.00  0.00     0.063 C 
BRANCH  25  26
HETATM   26  C   UNL     1     -42.140  58.085 -59.698  1.00  0.00    -0.056 A 
HETATM   27  C   UNL     1     -41.944  58.704 -58.454  1.00  0.00     0.010 A 
HETATM   28  C   UNL     1     -41.744  60.085 -58.371  1.00  0.00     0.037 A 
HETATM   29  C   UNL     1     -41.746  60.846 -59.533  1.00  0.00     0.065 A 
HETATM   30  C   UNL     1     -41.931  60.251 -60.775  1.00  0.00     0.037 A 
HETATM   31  C   UNL     1     -42.119  58.871 -60.860  1.00  0.00     0.010 A 
BRANCH  29  32
HETATM   32  O   UNL     1     -41.566  62.196 -59.501  1.00  0.00    -0.361 OA
HETATM   33  H   UNL     1     -40.854  62.405 -58.873  1.00  0.00     0.217 HD
ENDBRANCH  29  32
ENDBRANCH  25  26
ENDBRANCH  23  25
ENDBRANCH   1  23
TORSDOF 9
ENDMDL
MODEL 5
REMARK VINA RESULT:      -7.6      2.573      8.237
REMARK  9 active torsions:
REMARK  status: ('A' for Active; 'I' for Inactive)
REMARK    1  A    between atoms: C_2  and  N_3 
REMARK    2  A    between atoms: C_2  and  C_23 
REMARK       I    between atoms: N_3  and  C_4 
REMARK       I    between atoms: C_4  and  N_5 
REMARK    3  A    between atoms: N_5  and  C_6 
REMARK    4  A    between atoms: C_6  and  C_7 
REMARK    5  A    between atoms: C_7  and  N_8 
REMARK    6  A    between atoms: C_7  and  C_14 
REMARK    7  A    between atoms: C_16  and  O_17 
REMARK    8  A    between atoms: C_23  and  C_24 
REMARK    9  A    between atoms: C_27  and  O_28 
ROOT
HETATM    1  N   UNL     1     -45.069  57.295 -56.276  1.00  0.00    -0.339 N 
HETATM    2  C   UNL     1     -44.567  57.180 -55.010  1.00  0.00     0.316 C 
HETATM    3  N   UNL     1     -43.999  55.946 -54.803  1.00  0.00    -0.341 N 
HETATM    4  O   UNL     1     -44.525  58.072 -54.176  1.00  0.00    -0.248 OA
HETATM    5  H   UNL     1     -45.273  56.428 -56.750  1.00  0.00     0.164 HD
HETATM    6  H   UNL     1     -44.375  55.192 -55.363  1.00  0.00     0.164 HD
ENDROOT
BRANCH   3   7
HETATM    7  C   UNL     1     -43.425  55.600 -53.510  1.00  0.00     0.162 C 
BRANCH   7   8
HETATM    8  C   UNL     1     -41.877  55.769 -53.421  1.00  0.00     0.238 C 
BRANCH   8   9
HETATM    9  N   UNL     1     -41.386  56.932 -52.573  1.00  0.00    -0.061 N 
HETATM   10  H   UNL     1     -40.603  56.533 -52.040  1.00  0.00     0.280 HD
HETATM   11  C   UNL     1     -42.304  57.500 -51.510  1.00  0.00     0.236 C 
HETATM   12  C   UNL     1     -42.139  59.009 -51.605  1.00  0.00     0.029 C 
HETATM   13  C   UNL     1     -40.804  59.210 -52.294  1.00  0.00     0.029 C 
HETATM   14  C   UNL     1     -40.778  58.095 -53.316  1.00  0.00     0.236 C 
ENDBRANCH   8   9
BRANCH   8  15
HETATM   15  C   UNL     1     -41.158  54.488 -53.018  1.00  0.00    -0.023 A 
HETATM   16  C   UNL     1     -40.765  53.517 -53.961  1.00  0.00     0.046 A 
HETATM   17  C   UNL     1     -40.122  52.344 -53.553  1.00  0.00     0.068 A 
HETATM   18  C   UNL     1     -39.894  52.125 -52.195  1.00  0.00     0.037 A 
HETATM   19  C   UNL     1     -40.288  53.065 -51.248  1.00  0.00     0.003 A 
HETATM   20  C   UNL     1     -40.917  54.240 -51.655  1.00  0.00     0.009 A 
BRANCH  17  21
HETATM   21  O   UNL     1     -39.687  51.343 -54.373  1.00  0.00    -0.356 OA
HETATM   22  C   UNL     1     -40.366  50.095 -54.306  1.00  0.00     0.210 C 
ENDBRANCH  17  21
ENDBRANCH   8  15
ENDBRANCH   7   8
ENDBRANCH   3   7
BRANCH   1  23
HETATM   23  C   UNL     1     -45.917  58.408 -56.721  1.00  0.00     0.086 C 
HETATM   24  C   UNL     1     -47.272  57.962 -57.269  1.00  0.00     0.032 C 
BRANCH  23  25
HETATM   25  C   UNL     1     -45.182  59.331 -57.719  1.00  0.00     0.063 C 
BRANCH  25  26
HETATM   26  C   UNL     1     -44.086  58.612 -58.480  1.00  0.00    -0.056 A 
HETATM   27  C   UNL     1     -44.405  57.776 -59.560  1.00  0.00     0.010 A 
HETATM   28  C   UNL     1     -43.402  57.085 -60.245  1.00  0.00     0.037 A 
HETATM   29  C   UNL     1     -42.079  57.228 -59.845  1.00  0.00     0.065 A 
HETATM   30  C   UNL     1     -41.742  58.056 -58.782  1.00  0.00     0.037 A 
HETATM   31  C   UNL     1     -42.741  58.755 -58.105  1.00  0.00     0.010 A 
BRANCH  29  32
HETATM   32  O   UNL     1     -41.068  56.566 -60.475  1.00  0.00    -0.361 OA
HETATM   33  H   UNL     1     -41.415  55.737 -60.845  1.00  0.00     0.217 HD
ENDBRANCH  29  32
ENDBRANCH  25  26
ENDBRANCH  23  25
ENDBRANCH   1  23
TORSDOF 9
ENDMDL
MODEL 6
REMARK VINA RESULT:      -7.6      1.237      1.767
REMARK  9 active torsions:
REMARK  status: ('A' for Active; 'I' for Inactive)
REMARK    1  A    between atoms: C_2  and  N_3 
REMARK    2  A    between atoms: C_2  and  C_23 
REMARK       I    between atoms: N_3  and  C_4 
REMARK       I    between atoms: C_4  and  N_5 
REMARK    3  A    between atoms: N_5  and  C_6 
REMARK    4  A    between atoms: C_6  and  C_7 
REMARK    5  A    between atoms: C_7  and  N_8 
REMARK    6  A    between atoms: C_7  and  C_14 
REMARK    7  A    between atoms: C_16  and  O_17 
REMARK    8  A    between atoms: C_23  and  C_24 
REMARK    9  A    between atoms: C_27  and  O_28 
ROOT
HETATM    1  N   UNL     1     -42.596  54.755 -55.557  1.00  0.00    -0.339 N 
HETATM    2  C   UNL     1     -42.225  56.055 -55.759  1.00  0.00     0.316 C 
HETATM    3  N   UNL     1     -42.481  56.459 -57.046  1.00  0.00    -0.341 N 
HETATM    4  O   UNL     1     -41.806  56.817 -54.901  1.00  0.00    -0.248 OA
HETATM    5  H   UNL     1     -42.671  54.184 -56.385  1.00  0.00     0.164 HD
HETATM    6  H   UNL     1     -42.478  55.726 -57.743  1.00  0.00     0.164 HD
ENDROOT
BRANCH   3   7
HETATM    7  C   UNL     1     -42.138  57.804 -57.485  1.00  0.00     0.162 C 
BRANCH   7   8
HETATM    8  C   UNL     1     -43.341  58.795 -57.543  1.00  0.00     0.238 C 
BRANCH   8   9
HETATM    9  N   UNL     1     -43.059  60.139 -58.197  1.00  0.00    -0.061 N 
HETATM   10  H   UNL     1     -43.980  60.442 -58.540  1.00  0.00     0.280 HD
HETATM   11  C   UNL     1     -42.175  60.182 -59.425  1.00  0.00     0.236 C 
HETATM   12  C   UNL     1     -41.280  61.397 -59.230  1.00  0.00     0.029 C 
HETATM   13  C   UNL     1     -42.017  62.264 -58.229  1.00  0.00     0.029 C 
HETATM   14  C   UNL     1     -42.618  61.252 -57.279  1.00  0.00     0.236 C 
ENDBRANCH   8   9
BRANCH   8  15
HETATM   15  C   UNL     1     -44.597  58.175 -58.140  1.00  0.00    -0.023 A 
HETATM   16  C   UNL     1     -44.567  57.392 -59.312  1.00  0.00     0.046 A 
HETATM   17  C   UNL     1     -45.743  56.852 -59.841  1.00  0.00     0.068 A 
HETATM   18  C   UNL     1     -46.961  57.118 -59.215  1.00  0.00     0.037 A 
HETATM   19  C   UNL     1     -47.013  57.900 -58.066  1.00  0.00     0.003 A 
HETATM   20  C   UNL     1     -45.840  58.427 -57.530  1.00  0.00     0.009 A 
BRANCH  17  21
HETATM   21  O   UNL     1     -45.835  56.074 -60.959  1.00  0.00    -0.356 OA
HETATM   22  C   UNL     1     -44.993  54.930 -61.037  1.00  0.00     0.210 C 
ENDBRANCH  17  21
ENDBRANCH   8  15
ENDBRANCH   7   8
ENDBRANCH   3   7
BRANCH   1  23
HETATM   23  C   UNL     1     -42.254  53.984 -54.355  1.00  0.00     0.086 C 
HETATM   24  C   UNL     1     -42.923  54.505 -53.084  1.00  0.00     0.032 C 
BRANCH  23  25
HETATM   25  C   UNL     1     -40.725  53.849 -54.172  1.00  0.00     0.063 C 
BRANCH  25  26
HETATM   26  C   UNL     1     -40.315  52.471 -53.690  1.00  0.00    -0.056 A 
HETATM   27  C   UNL     1     -40.389  51.368 -54.555  1.00  0.00     0.010 A 
HETATM   28  C   UNL     1     -40.043  50.090 -54.107  1.00  0.00     0.037 A 
HETATM   29  C   UNL     1     -39.628  49.916 -52.792  1.00  0.00     0.065 A 
HETATM   30  C   UNL     1     -39.541  50.996 -51.923  1.00  0.00     0.037 A 
HETATM   31  C   UNL     1     -39.875  52.274 -52.373  1.00  0.00     0.010 A 
BRANCH  29  32
HETATM   32  O   UNL     1     -39.290  48.688 -52.309  1.00  0.00    -0.361 OA
HETATM   33  H   UNL     1     -39.678  48.005 -52.881  1.00  0.00     0.217 HD
ENDBRANCH  29  32
ENDBRANCH  25  26
ENDBRANCH  23  25
ENDBRANCH   1  23
TORSDOF 9
ENDMDL
MODEL 7
REMARK VINA RESULT:      -7.6      2.117      4.196
REMARK  9 active torsions:
REMARK  status: ('A' for Active; 'I' for Inactive)
REMARK    1  A    between atoms: C_2  and  N_3 
REMARK    2  A    between atoms: C_2  and  C_23 
REMARK       I    between atoms: N_3  and  C_4 
REMARK       I    between atoms: C_4  and  N_5 
REMARK    3  A    between atoms: N_5  and  C_6 
REMARK    4  A    between atoms: C_6  and  C_7 
REMARK    5  A    between atoms: C_7  and  N_8 
REMARK    6  A    between atoms: C_7  and  C_14 
REMARK    7  A    between atoms: C_16  and  O_17 
REMARK    8  A    between atoms: C_23  and  C_24 
REMARK    9  A    between atoms: C_27  and  O_28 
ROOT
HETATM    1  N   UNL     1     -42.720  54.931 -55.013  1.00  0.00    -0.339 N 
HETATM    2  C   UNL     1     -42.434  56.260 -55.154  1.00  0.00     0.316 C 
HETATM    3  N   UNL     1     -42.774  56.720 -56.402  1.00  0.00    -0.341 N 
HETATM    4  O   UNL     1     -42.019  56.997 -54.271  1.00  0.00    -0.248 OA
HETATM    5  H   UNL     1     -42.801  54.405 -55.870  1.00  0.00     0.164 HD
HETATM    6  H   UNL     1     -42.762  56.030 -57.141  1.00  0.00     0.164 HD
ENDROOT
BRANCH   3   7
HETATM    7  C   UNL     1     -42.530  58.106 -56.775  1.00  0.00     0.162 C 
BRANCH   7   8
HETATM    8  C   UNL     1     -42.932  58.466 -58.239  1.00  0.00     0.238 C 
BRANCH   8   9
HETATM    9  N   UNL     1     -44.426  58.535 -58.517  1.00  0.00    -0.061 N 
HETATM   10  H   UNL     1     -44.500  59.210 -59.288  1.00  0.00     0.280 HD
HETATM   11  C   UNL     1     -45.342  59.092 -57.448  1.00  0.00     0.236 C 
HETATM   12  C   UNL     1     -46.560  58.180 -57.451  1.00  0.00     0.029 C 
HETATM   13  C   UNL     1     -46.541  57.514 -58.812  1.00  0.00     0.029 C 
HETATM   14  C   UNL     1     -45.067  57.281 -59.056  1.00  0.00     0.236 C 
ENDBRANCH   8   9
BRANCH   8  15
HETATM   15  C   UNL     1     -42.245  59.723 -58.755  1.00  0.00    -0.023 A 
HETATM   16  C   UNL     1     -42.232  60.067 -60.122  1.00  0.00     0.046 A 
HETATM   17  C   UNL     1     -41.577  61.221 -60.562  1.00  0.00     0.068 A 
HETATM   18  C   UNL     1     -40.906  62.022 -59.639  1.00  0.00     0.037 A 
HETATM   19  C   UNL     1     -40.894  61.691 -58.288  1.00  0.00     0.003 A 
HETATM   20  C   UNL     1     -41.559  60.548 -57.846  1.00  0.00     0.009 A 
BRANCH  17  21
HETATM   21  O   UNL     1     -41.508  61.659 -61.853  1.00  0.00    -0.356 OA
HETATM   22  C   UNL     1     -40.500  62.610 -62.174  1.00  0.00     0.210 C 
ENDBRANCH  17  21
ENDBRANCH   8  15
ENDBRANCH   7   8
ENDBRANCH   3   7
BRANCH   1  23
HETATM   23  C   UNL     1     -42.277  54.115 -53.876  1.00  0.00     0.086 C 
HETATM   24  C   UNL     1     -42.800  54.610 -52.528  1.00  0.00     0.032 C 
BRANCH  23  25
HETATM   25  C   UNL     1     -40.742  53.940 -53.854  1.00  0.00     0.063 C 
BRANCH  25  26
HETATM   26  C   UNL     1     -40.321  52.532 -53.481  1.00  0.00    -0.056 A 
HETATM   27  C   UNL     1     -40.375  51.502 -54.432  1.00  0.00     0.010 A 
HETATM   28  C   UNL     1     -40.019  50.195 -54.086  1.00  0.00     0.037 A 
HETATM   29  C   UNL     1     -39.613  49.920 -52.785  1.00  0.00     0.065 A 
HETATM   30  C   UNL     1     -39.545  50.928 -51.832  1.00  0.00     0.037 A 
HETATM   31  C   UNL     1     -39.889  52.235 -52.180  1.00  0.00     0.010 A 
BRANCH  29  32
HETATM   32  O   UNL     1     -39.266  48.661 -52.399  1.00  0.00    -0.361 OA
HETATM   33  H   UNL     1     -39.180  48.100 -53.188  1.00  0.00     0.217 HD
ENDBRANCH  29  32
ENDBRANCH  25  26
ENDBRANCH  23  25
ENDBRANCH   1  23
TORSDOF 9
ENDMDL
MODEL 8
REMARK VINA RESULT:      -7.5      2.074      4.009
REMARK  9 active torsions:
REMARK  status: ('A' for Active; 'I' for Inactive)
REMARK    1  A    between atoms: C_2  and  N_3 
REMARK    2  A    between atoms: C_2  and  C_23 
REMARK       I    between atoms: N_3  and  C_4 
REMARK       I    between atoms: C_4  and  N_5 
REMARK    3  A    between atoms: N_5  and  C_6 
REMARK    4  A    between atoms: C_6  and  C_7 
REMARK    5  A    between atoms: C_7  and  N_8 
REMARK    6  A    between atoms: C_7  and  C_14 
REMARK    7  A    between atoms: C_16  and  O_17 
REMARK    8  A    between atoms: C_23  and  C_24 
REMARK    9  A    between atoms: C_27  and  O_28 
ROOT
HETATM    1  N   UNL     1     -43.329  54.371 -55.818  1.00  0.00    -0.339 N 
HETATM    2  C   UNL     1     -42.872  55.279 -56.731  1.00  0.00     0.316 C 
HETATM    3  N   UNL     1     -43.432  55.075 -57.969  1.00  0.00    -0.341 N 
HETATM    4  O   UNL     1     -42.136  56.224 -56.489  1.00  0.00    -0.248 OA
HETATM    5  H   UNL     1     -43.707  53.516 -56.197  1.00  0.00     0.164 HD
HETATM    6  H   UNL     1     -43.717  54.125 -58.169  1.00  0.00     0.164 HD
ENDROOT
BRANCH   3   7
HETATM    7  C   UNL     1     -43.063  55.917 -59.099  1.00  0.00     0.162 C 
BRANCH   7   8
HETATM    8  C   UNL     1     -44.087  57.046 -59.429  1.00  0.00     0.238 C 
BRANCH   8   9
HETATM    9  N   UNL     1     -45.271  57.164 -58.480  1.00  0.00    -0.061 N 
HETATM   10  H   UNL     1     -45.326  56.235 -58.042  1.00  0.00     0.280 HD
HETATM   11  C   UNL     1     -46.653  57.381 -59.060  1.00  0.00     0.236 C 
HETATM   12  C   UNL     1     -47.308  58.412 -58.154  1.00  0.00     0.029 C 
HETATM   13  C   UNL     1     -46.531  58.335 -56.855  1.00  0.00     0.029 C 
HETATM   14  C   UNL     1     -45.109  58.115 -57.321  1.00  0.00     0.236 C 
ENDBRANCH   8   9
BRANCH   8  15
HETATM   15  C   UNL     1     -43.433  58.408 -59.622  1.00  0.00    -0.023 A 
HETATM   16  C   UNL     1     -42.435  58.894 -58.753  1.00  0.00     0.046 A 
HETATM   17  C   UNL     1     -41.868  60.156 -58.951  1.00  0.00     0.068 A 
HETATM   18  C   UNL     1     -42.318  60.952 -60.005  1.00  0.00     0.037 A 
HETATM   19  C   UNL     1     -43.313  60.495 -60.865  1.00  0.00     0.003 A 
HETATM   20  C   UNL     1     -43.868  59.231 -60.676  1.00  0.00     0.009 A 
BRANCH  17  21
HETATM   21  O   UNL     1     -40.892  60.724 -58.186  1.00  0.00    -0.356 OA
HETATM   22  C   UNL     1     -40.721  62.134 -58.274  1.00  0.00     0.210 C 
ENDBRANCH  17  21
ENDBRANCH   8  15
ENDBRANCH   7   8
ENDBRANCH   3   7
BRANCH   1  23
HETATM   23  C   UNL     1     -42.758  54.203 -54.475  1.00  0.00     0.086 C 
HETATM   24  C   UNL     1     -43.291  55.208 -53.455  1.00  0.00     0.032 C 
BRANCH  23  25
HETATM   25  C   UNL     1     -41.213  54.194 -54.502  1.00  0.00     0.063 C 
BRANCH  25  26
HETATM   26  C   UNL     1     -40.622  53.094 -53.642  1.00  0.00    -0.056 A 
HETATM   27  C   UNL     1     -40.289  51.854 -54.209  1.00  0.00     0.010 A 
HETATM   28  C   UNL     1     -39.774  50.825 -53.415  1.00  0.00     0.037 A 
HETATM   29  C   UNL     1     -39.597  51.037 -52.053  1.00  0.00     0.065 A 
HETATM   30  C   UNL     1     -39.914  52.260 -51.475  1.00  0.00     0.037 A 
HETATM   31  C   UNL     1     -40.417  53.291 -52.269  1.00  0.00     0.010 A 
BRANCH  29  32
HETATM   32  O   UNL     1     -39.107  50.061 -51.238  1.00  0.00    -0.361 OA
HETATM   33  H   UNL     1     -39.221  49.200 -51.673  1.00  0.00     0.217 HD
ENDBRANCH  29  32
ENDBRANCH  25  26
ENDBRANCH  23  25
ENDBRANCH   1  23
TORSDOF 9
ENDMDL
MODEL 9
REMARK VINA RESULT:      -7.3      2.520      3.577
REMARK  9 active torsions:
REMARK  status: ('A' for Active; 'I' for Inactive)
REMARK    1  A    between atoms: C_2  and  N_3 
REMARK    2  A    between atoms: C_2  and  C_23 
REMARK       I    between atoms: N_3  and  C_4 
REMARK       I    between atoms: C_4  and  N_5 
REMARK    3  A    between atoms: N_5  and  C_6 
REMARK    4  A    between atoms: C_6  and  C_7 
REMARK    5  A    between atoms: C_7  and  N_8 
REMARK    6  A    between atoms: C_7  and  C_14 
REMARK    7  A    between atoms: C_16  and  O_17 
REMARK    8  A    between atoms: C_23  and  C_24 
REMARK    9  A    between atoms: C_27  and  O_28 
ROOT
HETATM    1  N   UNL     1     -42.366  55.004 -54.940  1.00  0.00    -0.339 N 
HETATM    2  C   UNL     1     -43.061  56.147 -54.658  1.00  0.00     0.316 C 
HETATM    3  N   UNL     1     -43.995  56.420 -55.627  1.00  0.00    -0.341 N 
HETATM    4  O   UNL     1     -42.958  56.810 -53.637  1.00  0.00    -0.248 OA
HETATM    5  H   UNL     1     -42.362  54.717 -55.907  1.00  0.00     0.164 HD
HETATM    6  H   UNL     1     -43.783  56.068 -56.551  1.00  0.00     0.164 HD
ENDROOT
BRANCH   3   7
HETATM    7  C   UNL     1     -44.831  57.609 -55.538  1.00  0.00     0.162 C 
BRANCH   7   8
HETATM    8  C   UNL     1     -44.586  58.661 -56.663  1.00  0.00     0.238 C 
BRANCH   8   9
HETATM    9  N   UNL     1     -43.959  59.973 -56.217  1.00  0.00    -0.061 N 
HETATM   10  H   UNL     1     -43.102  60.038 -56.783  1.00  0.00     0.280 HD
HETATM   11  C   UNL     1     -43.470  60.099 -54.789  1.00  0.00     0.236 C 
HETATM   12  C   UNL     1     -43.894  61.491 -54.344  1.00  0.00     0.029 C 
HETATM   13  C   UNL     1     -44.105  62.262 -55.632  1.00  0.00     0.029 C 
HETATM   14  C   UNL     1     -44.723  61.230 -56.549  1.00  0.00     0.236 C 
ENDBRANCH   8   9
BRANCH   8  15
HETATM   15  C   UNL     1     -43.825  58.095 -57.855  1.00  0.00    -0.023 A 
HETATM   16  C   UNL     1     -44.421  57.214 -58.780  1.00  0.00     0.046 A 
HETATM   17  C   UNL     1     -43.687  56.701 -59.853  1.00  0.00     0.068 A 
HETATM   18  C   UNL     1     -42.342  57.046 -59.991  1.00  0.00     0.037 A 
HETATM   19  C   UNL     1     -41.733  57.903 -59.080  1.00  0.00     0.003 A 
HETATM   20  C   UNL     1     -42.468  58.425 -58.018  1.00  0.00     0.009 A 
BRANCH  17  21
HETATM   21  O   UNL     1     -44.159  55.853 -60.814  1.00  0.00    -0.356 OA
HETATM   22  C   UNL     1     -45.039  54.815 -60.402  1.00  0.00     0.210 C 
ENDBRANCH  17  21
ENDBRANCH   8  15
ENDBRANCH   7   8
ENDBRANCH   3   7
BRANCH   1  23
HETATM   23  C   UNL     1     -41.168  54.574 -54.207  1.00  0.00     0.086 C 
HETATM   24  C   UNL     1     -39.978  54.259 -55.113  1.00  0.00     0.032 C 
BRANCH  23  25
HETATM   25  C   UNL     1     -41.469  53.403 -53.245  1.00  0.00     0.063 C 
BRANCH  25  26
HETATM   26  C   UNL     1     -41.288  53.784 -51.789  1.00  0.00    -0.056 A 
HETATM   27  C   UNL     1     -40.111  53.440 -51.107  1.00  0.00     0.010 A 
HETATM   28  C   UNL     1     -39.952  53.760 -49.756  1.00  0.00     0.037 A 
HETATM   29  C   UNL     1     -40.974  54.420 -49.086  1.00  0.00     0.065 A 
HETATM   30  C   UNL     1     -42.145  54.775 -49.744  1.00  0.00     0.037 A 
HETATM   31  C   UNL     1     -42.300  54.467 -51.096  1.00  0.00     0.010 A 
BRANCH  29  32
HETATM   32  O   UNL     1     -40.869  54.744 -47.767  1.00  0.00    -0.361 OA
HETATM   33  H   UNL     1     -41.626  55.299 -47.516  1.00  0.00     0.217 HD
ENDBRANCH  29  32
ENDBRANCH  25  26
ENDBRANCH  23  25
ENDBRANCH   1  23
TORSDOF 9
ENDMDL
MODEL 10
REMARK VINA RESULT:      -7.3      1.855      4.314
REMARK  9 active torsions:
REMARK  status: ('A' for Active; 'I' for Inactive)
REMARK    1  A    between atoms: C_2  and  N_3 
REMARK    2  A    between atoms: C_2  and  C_23 
REMARK       I    between atoms: N_3  and  C_4 
REMARK       I    between atoms: C_4  and  N_5 
REMARK    3  A    between atoms: N_5  and  C_6 
REMARK    4  A    between atoms: C_6  and  C_7 
REMARK    5  A    between atoms: C_7  and  N_8 
REMARK    6  A    between atoms: C_7  and  C_14 
REMARK    7  A    between atoms: C_16  and  O_17 
REMARK    8  A    between atoms: C_23  and  C_24 
REMARK    9  A    between atoms: C_27  and  O_28 
ROOT
HETATM    1  N   UNL     1     -42.130  55.650 -53.187  1.00  0.00    -0.339 N 
HETATM    2  C   UNL     1     -42.954  55.678 -54.277  1.00  0.00     0.316 C 
HETATM    3  N   UNL     1     -42.854  56.869 -54.955  1.00  0.00    -0.341 N 
HETATM    4  O   UNL     1     -43.633  54.746 -54.681  1.00  0.00    -0.248 OA
HETATM    5  H   UNL     1     -41.842  56.549 -52.829  1.00  0.00     0.164 HD
HETATM    6  H   UNL     1     -42.581  57.667 -54.398  1.00  0.00     0.164 HD
ENDROOT
BRANCH   3   7
HETATM    7  C   UNL     1     -43.667  57.121 -56.136  1.00  0.00     0.162 C 
BRANCH   7   8
HETATM    8  C   UNL     1     -42.861  57.570 -57.395  1.00  0.00     0.238 C 
BRANCH   8   9
HETATM    9  N   UNL     1     -43.417  57.111 -58.734  1.00  0.00    -0.061 N 
HETATM   10  H   UNL     1     -42.829  57.597 -59.422  1.00  0.00     0.280 HD
HETATM   11  C   UNL     1     -44.830  57.505 -59.112  1.00  0.00     0.236 C 
HETATM   12  C   UNL     1     -45.435  56.262 -59.747  1.00  0.00     0.029 C 
HETATM   13  C   UNL     1     -44.244  55.432 -60.183  1.00  0.00     0.029 C 
HETATM   14  C   UNL     1     -43.250  55.649 -59.065  1.00  0.00     0.236 C 
ENDBRANCH   8   9
BRANCH   8  15
HETATM   15  C   UNL     1     -42.589  59.068 -57.427  1.00  0.00    -0.023 A 
HETATM   16  C   UNL     1     -43.241  59.971 -56.562  1.00  0.00     0.046 A 
HETATM   17  C   UNL     1     -42.978  61.342 -56.631  1.00  0.00     0.068 A 
HETATM   18  C   UNL     1     -42.081  61.821 -57.586  1.00  0.00     0.037 A 
HETATM   19  C   UNL     1     -41.439  60.947 -58.457  1.00  0.00     0.003 A 
HETATM   20  C   UNL     1     -41.690  59.579 -58.380  1.00  0.00     0.009 A 
BRANCH  17  21
HETATM   21  O   UNL     1     -43.538  62.305 -55.841  1.00  0.00    -0.356 OA
HETATM   22  C   UNL     1     -43.423  63.657 -56.269  1.00  0.00     0.210 C 
ENDBRANCH  17  21
ENDBRANCH   8  15
ENDBRANCH   7   8
ENDBRANCH   3   7
BRANCH   1  23
HETATM   23  C   UNL     1     -42.173  54.606 -52.156  1.00  0.00     0.086 C 
HETATM   24  C   UNL     1     -43.009  54.988 -50.934  1.00  0.00     0.032 C 
BRANCH  23  25
HETATM   25  C   UNL     1     -40.758  54.140 -51.746  1.00  0.00     0.063 C 
BRANCH  25  26
HETATM   26  C   UNL     1     -40.396  52.790 -52.332  1.00  0.00    -0.056 A 
HETATM   27  C   UNL     1     -39.815  51.800 -51.525  1.00  0.00     0.010 A 
HETATM   28  C   UNL     1     -39.450  50.565 -52.067  1.00  0.00     0.037 A 
HETATM   29  C   UNL     1     -39.662  50.323 -53.419  1.00  0.00     0.065 A 
HETATM   30  C   UNL     1     -40.242  51.288 -54.233  1.00  0.00     0.037 A 
HETATM   31  C   UNL     1     -40.618  52.517 -53.690  1.00  0.00     0.010 A 
BRANCH  29  32
HETATM   32  O   UNL     1     -39.313  49.139 -53.994  1.00  0.00    -0.361 OA
HETATM   33  H   UNL     1     -38.816  48.608 -53.349  1.00  0.00     0.217 HD
ENDBRANCH  29  32
ENDBRANCH  25  26
ENDBRANCH  23  25
ENDBRANCH   1  23
TORSDOF 9
ENDMDL
