MODEL 1
REMARK VINA RESULT:      -8.7      0.000      0.000
REMARK  4 active torsions:
REMARK  status: ('A' for Active; 'I' for Inactive)
REMARK    1  A    between atoms: O_2  and  C_3 
REMARK    2  A    between atoms: C_4  and  O_5 
REMARK    3  A    between atoms: C_9  and  C_10 
REMARK    4  A    between atoms: C_10  and  N_11 
ROOT
HETATM    1  N   UNL     1     -42.260  55.105 -54.947  1.00  0.00    -0.066 N 
HETATM    2  H   UNL     1     -42.380  54.226 -55.467  1.00  0.00     0.280 HD
HETATM    3  C   UNL     1     -43.289  55.018 -53.830  1.00  0.00     0.246 C 
HETATM    4  C   UNL     1     -43.729  56.387 -53.277  1.00  0.00     0.062 C 
HETATM    5  C   UNL     1     -44.220  57.269 -54.417  1.00  0.00     0.020 C 
HETATM    6  C   UNL     1     -43.040  57.511 -55.346  1.00  0.00     0.031 C 
HETATM    7  C   UNL     1     -41.956  58.288 -54.594  1.00  0.00     0.138 C 
HETATM    8  N   UNL     1     -41.739  57.911 -53.196  1.00  0.00    -0.317 N 
HETATM    9  C   UNL     1     -42.618  57.070 -52.509  1.00  0.00     0.020 A 
HETATM   10  C   UNL     1     -42.462  56.875 -51.188  1.00  0.00     0.026 A 
HETATM   11  C   UNL     1     -40.665  58.551 -52.557  1.00  0.00     0.247 A 
HETATM   12  O   UNL     1     -39.856  59.265 -53.140  1.00  0.00    -0.268 OA
HETATM   13  C   UNL     1     -40.516  58.299 -51.103  1.00  0.00     0.074 A 
HETATM   14  C   UNL     1     -41.384  57.504 -50.470  1.00  0.00     0.007 A 
HETATM   15  C   UNL     1     -42.547  56.194 -55.957  1.00  0.00     0.241 C 
ENDROOT
BRANCH   1  16
HETATM   16  C   UNL     1     -40.798  55.030 -54.538  1.00  0.00     0.273 C 
BRANCH  16  17
HETATM   17  C   UNL     1     -40.457  53.853 -53.663  1.00  0.00    -0.028 A 
HETATM   18  C   UNL     1     -40.175  52.603 -54.240  1.00  0.00     0.031 A 
HETATM   19  C   UNL     1     -39.891  51.494 -53.437  1.00  0.00     0.047 A 
HETATM   20  C   UNL     1     -39.895  51.617 -52.048  1.00  0.00     0.116 A 
HETATM   21 BR   UNL     1     -39.543  49.839 -54.290  1.00  0.00    -0.048 Br
HETATM   22  C   UNL     1     -40.127  52.866 -51.467  1.00  0.00     0.103 A 
HETATM   23  C   UNL     1     -40.428  53.974 -52.265  1.00  0.00     0.048 A 
BRANCH  20  24
HETATM   24  O   UNL     1     -39.715  50.513 -51.265  1.00  0.00    -0.357 OA
HETATM   25  H   UNL     1     -40.012  49.739 -51.778  1.00  0.00     0.218 HD
ENDBRANCH  20  24
BRANCH  22  26
HETATM   26  O   UNL     1     -40.154  53.056 -50.111  1.00  0.00    -0.353 OA
HETATM   27  C   UNL     1     -39.580  54.310 -49.724  1.00  0.00     0.210 C 
ENDBRANCH  22  26
ENDBRANCH  16  17
ENDBRANCH   1  16
TORSDOF 4
ENDMDL
MODEL 2
REMARK VINA RESULT:      -8.3      1.409      2.263
REMARK  4 active torsions:
REMARK  status: ('A' for Active; 'I' for Inactive)
REMARK    1  A    between atoms: O_2  and  C_3 
REMARK    2  A    between atoms: C_4  and  O_5 
REMARK    3  A    between atoms: C_9  and  C_10 
REMARK    4  A    between atoms: C_10  and  N_11 
ROOT
HETATM    1  N   UNL     1     -42.259  54.972 -55.215  1.00  0.00    -0.066 N 
HETATM    2  H   UNL     1     -42.331  54.091 -55.739  1.00  0.00     0.280 HD
HETATM    3  C   UNL     1     -43.321  54.848 -54.134  1.00  0.00     0.246 C 
HETATM    4  C   UNL     1     -43.826  56.200 -53.594  1.00  0.00     0.062 C 
HETATM    5  C   UNL     1     -44.307  57.068 -54.750  1.00  0.00     0.020 C 
HETATM    6  C   UNL     1     -43.105  57.351 -55.637  1.00  0.00     0.031 C 
HETATM    7  C   UNL     1     -42.074  58.163 -54.849  1.00  0.00     0.138 C 
HETATM    8  N   UNL     1     -41.892  57.790 -53.445  1.00  0.00    -0.317 N 
HETATM    9  C   UNL     1     -42.765  56.919 -52.789  1.00  0.00     0.020 A 
HETATM   10  C   UNL     1     -42.647  56.726 -51.463  1.00  0.00     0.026 A 
HETATM   11  C   UNL     1     -40.863  58.464 -52.769  1.00  0.00     0.247 A 
HETATM   12  O   UNL     1     -40.059  59.207 -53.324  1.00  0.00    -0.268 OA
HETATM   13  C   UNL     1     -40.754  58.215 -51.311  1.00  0.00     0.074 A 
HETATM   14  C   UNL     1     -41.616  57.390 -50.709  1.00  0.00     0.007 A 
HETATM   15  C   UNL     1     -42.548  56.053 -56.233  1.00  0.00     0.241 C 
ENDROOT
BRANCH   1  16
HETATM   16  C   UNL     1     -40.810  54.946 -54.757  1.00  0.00     0.273 C 
BRANCH  16  17
HETATM   17  C   UNL     1     -40.492  53.862 -53.760  1.00  0.00    -0.028 A 
HETATM   18  C   UNL     1     -40.568  54.127 -52.382  1.00  0.00     0.031 A 
HETATM   19  C   UNL     1     -40.242  53.140 -51.447  1.00  0.00     0.047 A 
HETATM   20  C   UNL     1     -39.826  51.881 -51.876  1.00  0.00     0.116 A 
HETATM   21 BR   UNL     1     -40.350  53.582 -49.607  1.00  0.00    -0.048 Br
HETATM   22  C   UNL     1     -39.792  51.594 -53.242  1.00  0.00     0.103 A 
HETATM   23  C   UNL     1     -40.101  52.582 -54.181  1.00  0.00     0.048 A 
BRANCH  20  24
HETATM   24  O   UNL     1     -39.414  50.951 -50.964  1.00  0.00    -0.357 OA
HETATM   25  H   UNL     1     -40.128  50.293 -50.875  1.00  0.00     0.218 HD
ENDBRANCH  20  24
BRANCH  22  26
HETATM   26  O   UNL     1     -39.385  50.382 -53.732  1.00  0.00    -0.353 OA
HETATM   27  C   UNL     1     -40.294  49.852 -54.704  1.00  0.00     0.210 C 
ENDBRANCH  22  26
ENDBRANCH  16  17
ENDBRANCH   1  16
TORSDOF 4
ENDMDL
MODEL 3
REMARK VINA RESULT:      -7.0      1.982      3.349
REMARK  4 active torsions:
REMARK  status: ('A' for Active; 'I' for Inactive)
REMARK    1  A    between atoms: O_2  and  C_3 
REMARK    2  A    between atoms: C_4  and  O_5 
REMARK    3  A    between atoms: C_9  and  C_10 
REMARK    4  A    between atoms: C_10  and  N_11 
ROOT
HETATM    1  N   UNL     1     -42.383  56.874 -51.150  1.00  0.00    -0.066 N 
HETATM    2  H   UNL     1     -41.960  56.427 -50.328  1.00  0.00     0.280 HD
HETATM    3  C   UNL     1     -41.990  58.337 -51.021  1.00  0.00     0.246 C 
HETATM    4  C   UNL     1     -42.936  59.307 -51.753  1.00  0.00     0.062 C 
HETATM    5  C   UNL     1     -44.369  59.074 -51.293  1.00  0.00     0.020 C 
HETATM    6  C   UNL     1     -44.755  57.662 -51.706  1.00  0.00     0.031 C 
HETATM    7  C   UNL     1     -44.738  57.558 -53.233  1.00  0.00     0.138 C 
HETATM    8  N   UNL     1     -43.654  58.264 -53.918  1.00  0.00    -0.317 N 
HETATM    9  C   UNL     1     -42.827  59.176 -53.257  1.00  0.00     0.020 A 
HETATM   10  C   UNL     1     -41.947  59.911 -53.958  1.00  0.00     0.026 A 
HETATM   11  C   UNL     1     -43.585  58.064 -55.306  1.00  0.00     0.247 A 
HETATM   12  O   UNL     1     -44.272  57.247 -55.910  1.00  0.00    -0.268 OA
HETATM   13  C   UNL     1     -42.591  58.882 -56.043  1.00  0.00     0.074 A 
HETATM   14  C   UNL     1     -41.827  59.759 -55.385  1.00  0.00     0.007 A 
HETATM   15  C   UNL     1     -43.868  56.626 -51.004  1.00  0.00     0.241 C 
ENDROOT
BRANCH   1  16
HETATM   16  C   UNL     1     -41.750  56.094 -52.291  1.00  0.00     0.273 C 
BRANCH  16  17
HETATM   17  C   UNL     1     -41.183  54.757 -51.892  1.00  0.00    -0.028 A 
HETATM   18  C   UNL     1     -40.760  53.848 -52.875  1.00  0.00     0.031 A 
HETATM   19  C   UNL     1     -40.264  52.590 -52.519  1.00  0.00     0.047 A 
HETATM   20  C   UNL     1     -40.193  52.222 -51.176  1.00  0.00     0.116 A 
HETATM   21 BR   UNL     1     -39.735  51.412 -53.906  1.00  0.00    -0.048 Br
HETATM   22  C   UNL     1     -40.567  53.137 -50.189  1.00  0.00     0.103 A 
HETATM   23  C   UNL     1     -41.079  54.389 -50.542  1.00  0.00     0.048 A 
BRANCH  20  24
HETATM   24  O   UNL     1     -39.802  50.958 -50.835  1.00  0.00    -0.357 OA
HETATM   25  H   UNL     1     -40.513  50.349 -51.107  1.00  0.00     0.218 HD
ENDBRANCH  20  24
BRANCH  22  26
HETATM   26  O   UNL     1     -40.532  52.837 -48.854  1.00  0.00    -0.353 OA
HETATM   27  C   UNL     1     -40.278  53.990 -48.042  1.00  0.00     0.210 C 
ENDBRANCH  22  26
ENDBRANCH  16  17
ENDBRANCH   1  16
TORSDOF 4
ENDMDL
MODEL 4
REMARK VINA RESULT:      -6.9      3.903      6.576
REMARK  4 active torsions:
REMARK  status: ('A' for Active; 'I' for Inactive)
REMARK    1  A    between atoms: O_2  and  C_3 
REMARK    2  A    between atoms: C_4  and  O_5 
REMARK    3  A    between atoms: C_9  and  C_10 
REMARK    4  A    between atoms: C_10  and  N_11 
ROOT
HETATM    1  N   UNL     1     -42.431  54.829 -55.233  1.00  0.00    -0.066 N 
HETATM    2  H   UNL     1     -42.426  54.227 -56.065  1.00  0.00     0.280 HD
HETATM    3  C   UNL     1     -40.975  55.233 -55.060  1.00  0.00     0.246 C 
HETATM    4  C   UNL     1     -40.602  55.630 -53.618  1.00  0.00     0.062 C 
HETATM    5  C   UNL     1     -40.985  54.509 -52.661  1.00  0.00     0.020 C 
HETATM    6  C   UNL     1     -42.497  54.360 -52.716  1.00  0.00     0.031 C 
HETATM    7  C   UNL     1     -43.151  55.647 -52.205  1.00  0.00     0.138 C 
HETATM    8  N   UNL     1     -42.511  56.902 -52.604  1.00  0.00    -0.317 N 
HETATM    9  C   UNL     1     -41.250  56.934 -53.205  1.00  0.00     0.020 A 
HETATM   10  C   UNL     1     -40.638  58.112 -53.414  1.00  0.00     0.026 A 
HETATM   11  C   UNL     1     -43.187  58.072 -52.226  1.00  0.00     0.247 A 
HETATM   12  O   UNL     1     -44.309  58.078 -51.729  1.00  0.00    -0.268 OA
HETATM   13  C   UNL     1     -42.487  59.353 -52.486  1.00  0.00     0.074 A 
HETATM   14  C   UNL     1     -41.273  59.351 -53.046  1.00  0.00     0.007 A 
HETATM   15  C   UNL     1     -42.955  53.947 -54.121  1.00  0.00     0.241 C 
ENDROOT
BRANCH   1  16
HETATM   16  C   UNL     1     -43.401  55.925 -55.643  1.00  0.00     0.273 C 
BRANCH  16  17
HETATM   17  C   UNL     1     -43.044  56.622 -56.930  1.00  0.00    -0.028 A 
HETATM   18  C   UNL     1     -42.545  57.934 -56.906  1.00  0.00     0.031 A 
HETATM   19  C   UNL     1     -42.242  58.605 -58.095  1.00  0.00     0.047 A 
HETATM   20  C   UNL     1     -42.445  57.977 -59.323  1.00  0.00     0.116 A 
HETATM   21 BR   UNL     1     -41.593  60.382 -57.979  1.00  0.00    -0.048 Br
HETATM   22  C   UNL     1     -42.897  56.655 -59.354  1.00  0.00     0.103 A 
HETATM   23  C   UNL     1     -43.216  55.987 -58.169  1.00  0.00     0.048 A 
BRANCH  20  24
HETATM   24  O   UNL     1     -42.243  58.666 -60.484  1.00  0.00    -0.357 OA
HETATM   25  H   UNL     1     -41.438  59.204 -60.368  1.00  0.00     0.218 HD
ENDBRANCH  20  24
BRANCH  22  26
HETATM   26  O   UNL     1     -43.126  55.982 -60.525  1.00  0.00    -0.353 OA
HETATM   27  C   UNL     1     -44.491  55.566 -60.657  1.00  0.00     0.210 C 
ENDBRANCH  22  26
ENDBRANCH  16  17
ENDBRANCH   1  16
TORSDOF 4
ENDMDL
MODEL 5
REMARK VINA RESULT:      -6.7      3.136      6.481
REMARK  4 active torsions:
REMARK  status: ('A' for Active; 'I' for Inactive)
REMARK    1  A    between atoms: O_2  and  C_3 
REMARK    2  A    between atoms: C_4  and  O_5 
REMARK    3  A    between atoms: C_9  and  C_10 
REMARK    4  A    between atoms: C_10  and  N_11 
ROOT
HETATM    1  N   UNL     1     -41.164  55.944 -54.812  1.00  0.00    -0.066 N 
HETATM    2  H   UNL     1     -40.874  56.561 -55.581  1.00  0.00     0.280 HD
HETATM    3  C   UNL     1     -40.428  54.642 -55.085  1.00  0.00     0.246 C 
HETATM    4  C   UNL     1     -41.098  53.401 -54.465  1.00  0.00     0.062 C 
HETATM    5  C   UNL     1     -42.552  53.323 -54.914  1.00  0.00     0.020 C 
HETATM    6  C   UNL     1     -43.264  54.549 -54.365  1.00  0.00     0.031 C 
HETATM    7  C   UNL     1     -43.251  54.499 -52.834  1.00  0.00     0.138 C 
HETATM    8  N   UNL     1     -42.017  54.013 -52.213  1.00  0.00    -0.317 N 
HETATM    9  C   UNL     1     -41.002  53.403 -52.954  1.00  0.00     0.020 A 
HETATM   10  C   UNL     1     -39.960  52.837 -52.322  1.00  0.00     0.026 A 
HETATM   11  C   UNL     1     -41.979  54.083 -50.811  1.00  0.00     0.247 A 
HETATM   12  O   UNL     1     -42.836  54.643 -50.135  1.00  0.00    -0.268 OA
HETATM   13  C   UNL     1     -40.805  53.462 -50.150  1.00  0.00     0.074 A 
HETATM   14  C   UNL     1     -39.860  52.869 -50.886  1.00  0.00     0.007 A 
HETATM   15  C   UNL     1     -42.667  55.835 -54.948  1.00  0.00     0.241 C 
ENDROOT
BRANCH   1  16
HETATM   16  C   UNL     1     -40.724  56.735 -53.591  1.00  0.00     0.273 C 
BRANCH  16  17
HETATM   17  C   UNL     1     -41.312  58.119 -53.502  1.00  0.00    -0.028 A 
HETATM   18  C   UNL     1     -41.583  58.691 -52.248  1.00  0.00     0.031 A 
HETATM   19  C   UNL     1     -42.160  59.961 -52.152  1.00  0.00     0.047 A 
HETATM   20  C   UNL     1     -42.485  60.670 -53.307  1.00  0.00     0.116 A 
HETATM   21 BR   UNL     1     -42.514  60.653 -50.424  1.00  0.00    -0.048 Br
HETATM   22  C   UNL     1     -42.176  60.129 -54.558  1.00  0.00     0.103 A 
HETATM   23  C   UNL     1     -41.614  58.854 -54.659  1.00  0.00     0.048 A 
BRANCH  20  24
HETATM   24  O   UNL     1     -43.138  61.866 -53.213  1.00  0.00    -0.357 OA
HETATM   25  H   UNL     1     -43.986  61.700 -52.761  1.00  0.00     0.218 HD
ENDBRANCH  20  24
BRANCH  22  26
HETATM   26  O   UNL     1     -42.476  60.767 -55.732  1.00  0.00    -0.353 OA
HETATM   27  C   UNL     1     -42.110  59.995 -56.882  1.00  0.00     0.210 C 
ENDBRANCH  22  26
ENDBRANCH  16  17
ENDBRANCH   1  16
TORSDOF 4
ENDMDL
MODEL 6
REMARK VINA RESULT:      -6.7      3.677      5.968
REMARK  4 active torsions:
REMARK  status: ('A' for Active; 'I' for Inactive)
REMARK    1  A    between atoms: O_2  and  C_3 
REMARK    2  A    between atoms: C_4  and  O_5 
REMARK    3  A    between atoms: C_9  and  C_10 
REMARK    4  A    between atoms: C_10  and  N_11 
ROOT
HETATM    1  N   UNL     1     -42.541  55.152 -53.675  1.00  0.00    -0.066 N 
HETATM    2  H   UNL     1     -42.247  54.554 -54.457  1.00  0.00     0.280 HD
HETATM    3  C   UNL     1     -41.269  55.878 -53.266  1.00  0.00     0.246 C 
HETATM    4  C   UNL     1     -41.271  56.371 -51.806  1.00  0.00     0.062 C 
HETATM    5  C   UNL     1     -41.572  55.207 -50.871  1.00  0.00     0.020 C 
HETATM    6  C   UNL     1     -42.977  54.719 -51.189  1.00  0.00     0.031 C 
HETATM    7  C   UNL     1     -43.981  55.833 -50.879  1.00  0.00     0.138 C 
HETATM    8  N   UNL     1     -43.568  57.194 -51.228  1.00  0.00    -0.317 N 
HETATM    9  C   UNL     1     -42.255  57.500 -51.592  1.00  0.00     0.020 A 
HETATM   10  C   UNL     1     -41.888  58.784 -51.755  1.00  0.00     0.026 A 
HETATM   11  C   UNL     1     -44.543  58.187 -51.046  1.00  0.00     0.247 A 
HETATM   12  O   UNL     1     -45.713  57.947 -50.761  1.00  0.00    -0.268 OA
HETATM   13  C   UNL     1     -44.105  59.589 -51.249  1.00  0.00     0.074 A 
HETATM   14  C   UNL     1     -42.837  59.852 -51.579  1.00  0.00     0.007 A 
HETATM   15  C   UNL     1     -43.059  54.192 -52.627  1.00  0.00     0.241 C 
ENDROOT
BRANCH   1  16
HETATM   16  C   UNL     1     -43.632  55.993 -54.316  1.00  0.00     0.273 C 
BRANCH  16  17
HETATM   17  C   UNL     1     -43.180  56.794 -55.509  1.00  0.00    -0.028 A 
HETATM   18  C   UNL     1     -43.208  56.223 -56.793  1.00  0.00     0.031 A 
HETATM   19  C   UNL     1     -42.758  56.943 -57.904  1.00  0.00     0.047 A 
HETATM   20  C   UNL     1     -42.266  58.238 -57.745  1.00  0.00     0.116 A 
HETATM   21 BR   UNL     1     -42.807  56.095 -59.598  1.00  0.00    -0.048 Br
HETATM   22  C   UNL     1     -42.278  58.830 -56.480  1.00  0.00     0.103 A 
HETATM   23  C   UNL     1     -42.711  58.108 -55.364  1.00  0.00     0.048 A 
BRANCH  20  24
HETATM   24  O   UNL     1     -41.736  58.902 -58.815  1.00  0.00    -0.357 OA
HETATM   25  H   UNL     1     -40.973  58.383 -59.132  1.00  0.00     0.218 HD
ENDBRANCH  20  24
BRANCH  22  26
HETATM   26  O   UNL     1     -41.801  60.093 -56.252  1.00  0.00    -0.353 OA
HETATM   27  C   UNL     1     -42.850  61.065 -56.167  1.00  0.00     0.210 C 
ENDBRANCH  22  26
ENDBRANCH  16  17
ENDBRANCH   1  16
TORSDOF 4
ENDMDL
MODEL 7
REMARK VINA RESULT:      -6.6      4.137      6.305
REMARK  4 active torsions:
REMARK  status: ('A' for Active; 'I' for Inactive)
REMARK    1  A    between atoms: O_2  and  C_3 
REMARK    2  A    between atoms: C_4  and  O_5 
REMARK    3  A    between atoms: C_9  and  C_10 
REMARK    4  A    between atoms: C_10  and  N_11 
ROOT
HETATM    1  N   UNL     1     -42.246  56.853 -57.818  1.00  0.00    -0.066 N 
HETATM    2  H   UNL     1     -41.425  56.525 -57.295  1.00  0.00     0.280 HD
HETATM    3  C   UNL     1     -42.069  56.249 -59.202  1.00  0.00     0.246 C 
HETATM    4  C   UNL     1     -42.799  57.018 -60.320  1.00  0.00     0.062 C 
HETATM    5  C   UNL     1     -42.382  58.482 -60.295  1.00  0.00     0.020 C 
HETATM    6  C   UNL     1     -42.840  59.063 -58.966  1.00  0.00     0.031 C 
HETATM    7  C   UNL     1     -44.369  59.018 -58.894  1.00  0.00     0.138 C 
HETATM    8  N   UNL     1     -45.008  57.821 -59.444  1.00  0.00    -0.317 N 
HETATM    9  C   UNL     1     -44.303  56.886 -60.206  1.00  0.00     0.020 A 
HETATM   10  C   UNL     1     -44.963  55.886 -60.816  1.00  0.00     0.026 A 
HETATM   11  C   UNL     1     -46.398  57.743 -59.266  1.00  0.00     0.247 A 
HETATM   12  O   UNL     1     -47.040  58.528 -58.574  1.00  0.00    -0.268 OA
HETATM   13  C   UNL     1     -47.089  56.618 -59.941  1.00  0.00     0.074 A 
HETATM   14  C   UNL     1     -46.390  55.750 -60.678  1.00  0.00     0.007 A 
HETATM   15  C   UNL     1     -42.143  58.362 -57.794  1.00  0.00     0.241 C 
ENDROOT
BRANCH   1  16
HETATM   16  C   UNL     1     -43.390  56.312 -56.977  1.00  0.00     0.273 C 
BRANCH  16  17
HETATM   17  C   UNL     1     -42.971  55.749 -55.644  1.00  0.00    -0.028 A 
HETATM   18  C   UNL     1     -42.027  54.711 -55.582  1.00  0.00     0.031 A 
HETATM   19  C   UNL     1     -41.655  54.157 -54.353  1.00  0.00     0.047 A 
HETATM   20  C   UNL     1     -42.231  54.625 -53.173  1.00  0.00     0.116 A 
HETATM   21 BR   UNL     1     -40.391  52.745 -54.355  1.00  0.00    -0.048 Br
HETATM   22  C   UNL     1     -43.135  55.688 -53.221  1.00  0.00     0.103 A 
HETATM   23  C   UNL     1     -43.522  56.234 -54.448  1.00  0.00     0.048 A 
BRANCH  20  24
HETATM   24  O   UNL     1     -41.941  54.017 -51.984  1.00  0.00    -0.357 OA
HETATM   25  H   UNL     1     -41.576  53.136 -52.189  1.00  0.00     0.218 HD
ENDBRANCH  20  24
BRANCH  22  26
HETATM   26  O   UNL     1     -43.744  56.190 -52.102  1.00  0.00    -0.353 OA
HETATM   27  C   UNL     1     -43.121  57.393 -51.634  1.00  0.00     0.210 C 
ENDBRANCH  22  26
ENDBRANCH  16  17
ENDBRANCH   1  16
TORSDOF 4
ENDMDL
MODEL 8
REMARK VINA RESULT:      -6.5      3.455      6.639
REMARK  4 active torsions:
REMARK  status: ('A' for Active; 'I' for Inactive)
REMARK    1  A    between atoms: O_2  and  C_3 
REMARK    2  A    between atoms: C_4  and  O_5 
REMARK    3  A    between atoms: C_9  and  C_10 
REMARK    4  A    between atoms: C_10  and  N_11 
ROOT
HETATM    1  N   UNL     1     -43.273  55.367 -55.360  1.00  0.00    -0.066 N 
HETATM    2  H   UNL     1     -43.789  55.474 -56.242  1.00  0.00     0.280 HD
HETATM    3  C   UNL     1     -42.103  56.328 -55.497  1.00  0.00     0.246 C 
HETATM    4  C   UNL     1     -40.888  55.964 -54.622  1.00  0.00     0.062 C 
HETATM    5  C   UNL     1     -40.464  54.528 -54.904  1.00  0.00     0.020 C 
HETATM    6  C   UNL     1     -41.613  53.624 -54.487  1.00  0.00     0.031 C 
HETATM    7  C   UNL     1     -41.835  53.752 -52.977  1.00  0.00     0.138 C 
HETATM    8  N   UNL     1     -41.704  55.097 -52.415  1.00  0.00    -0.317 N 
HETATM    9  C   UNL     1     -41.172  56.160 -53.149  1.00  0.00     0.020 A 
HETATM   10  C   UNL     1     -40.929  57.336 -52.544  1.00  0.00     0.026 A 
HETATM   11  C   UNL     1     -42.024  55.217 -51.053  1.00  0.00     0.247 A 
HETATM   12  O   UNL     1     -42.525  54.313 -50.391  1.00  0.00    -0.268 OA
HETATM   13  C   UNL     1     -41.757  56.533 -50.425  1.00  0.00     0.074 A 
HETATM   14  C   UNL     1     -41.231  57.525 -51.149  1.00  0.00     0.007 A 
HETATM   15  C   UNL     1     -42.865  53.911 -55.325  1.00  0.00     0.241 C 
ENDROOT
BRANCH   1  16
HETATM   16  C   UNL     1     -44.334  55.723 -54.331  1.00  0.00     0.273 C 
BRANCH  16  17
HETATM   17  C   UNL     1     -44.613  57.198 -54.210  1.00  0.00    -0.028 A 
HETATM   18  C   UNL     1     -44.511  57.835 -52.963  1.00  0.00     0.031 A 
HETATM   19  C   UNL     1     -44.802  59.197 -52.831  1.00  0.00     0.047 A 
HETATM   20  C   UNL     1     -45.209  59.935 -53.941  1.00  0.00     0.116 A 
HETATM   21 BR   UNL     1     -44.662  59.978 -51.110  1.00  0.00    -0.048 Br
HETATM   22  C   UNL     1     -45.268  59.321 -55.194  1.00  0.00     0.103 A 
HETATM   23  C   UNL     1     -44.994  57.957 -55.328  1.00  0.00     0.048 A 
BRANCH  20  24
HETATM   24  O   UNL     1     -45.587  61.239 -53.792  1.00  0.00    -0.357 OA
HETATM   25  H   UNL     1     -44.881  61.693 -53.296  1.00  0.00     0.218 HD
ENDBRANCH  20  24
BRANCH  22  26
HETATM   26  O   UNL     1     -45.668  59.984 -56.323  1.00  0.00    -0.353 OA
HETATM   27  C   UNL     1     -46.317  59.120 -57.263  1.00  0.00     0.210 C 
ENDBRANCH  22  26
ENDBRANCH  16  17
ENDBRANCH   1  16
TORSDOF 4
ENDMDL
MODEL 9
REMARK VINA RESULT:      -6.5     14.717     17.022
REMARK  4 active torsions:
REMARK  status: ('A' for Active; 'I' for Inactive)
REMARK    1  A    between atoms: O_2  and  C_3 
REMARK    2  A    between atoms: C_4  and  O_5 
REMARK    3  A    between atoms: C_9  and  C_10 
REMARK    4  A    between atoms: C_10  and  N_11 
ROOT
HETATM    1  N   UNL     1     -34.988  40.803 -57.447  1.00  0.00    -0.066 N 
HETATM    2  H   UNL     1     -34.452  40.752 -58.322  1.00  0.00     0.280 HD
HETATM    3  C   UNL     1     -35.417  39.366 -57.192  1.00  0.00     0.246 C 
HETATM    4  C   UNL     1     -36.676  39.235 -56.313  1.00  0.00     0.062 C 
HETATM    5  C   UNL     1     -37.810  40.057 -56.913  1.00  0.00     0.020 C 
HETATM    6  C   UNL     1     -37.381  41.516 -56.881  1.00  0.00     0.031 C 
HETATM    7  C   UNL     1     -37.208  41.960 -55.426  1.00  0.00     0.138 C 
HETATM    8  N   UNL     1     -36.601  40.985 -54.518  1.00  0.00    -0.317 N 
HETATM    9  C   UNL     1     -36.412  39.650 -54.882  1.00  0.00     0.020 A 
HETATM   10  C   UNL     1     -35.993  38.760 -53.965  1.00  0.00     0.026 A 
HETATM   11  C   UNL     1     -36.343  41.449 -53.219  1.00  0.00     0.247 A 
HETATM   12  O   UNL     1     -36.465  42.621 -52.878  1.00  0.00    -0.268 OA
HETATM   13  C   UNL     1     -35.868  40.441 -52.240  1.00  0.00     0.074 A 
HETATM   14  C   UNL     1     -35.714  39.167 -52.613  1.00  0.00     0.007 A 
HETATM   15  C   UNL     1     -36.137  41.739 -57.749  1.00  0.00     0.241 C 
ENDROOT
BRANCH   1  16
HETATM   16  C   UNL     1     -33.966  41.391 -56.487  1.00  0.00     0.273 C 
BRANCH  16  17
HETATM   17  C   UNL     1     -32.962  40.399 -55.962  1.00  0.00    -0.028 A 
HETATM   18  C   UNL     1     -32.216  39.611 -56.855  1.00  0.00     0.031 A 
HETATM   19  C   UNL     1     -31.306  38.661 -56.380  1.00  0.00     0.047 A 
HETATM   20  C   UNL     1     -31.138  38.480 -55.008  1.00  0.00     0.116 A 
HETATM   21 BR   UNL     1     -30.355  37.623 -57.648  1.00  0.00    -0.048 Br
HETATM   22  C   UNL     1     -31.840  39.291 -54.114  1.00  0.00     0.103 A 
HETATM   23  C   UNL     1     -32.763  40.229 -54.584  1.00  0.00     0.048 A 
BRANCH  20  24
HETATM   24  O   UNL     1     -30.323  37.485 -54.547  1.00  0.00    -0.357 OA
HETATM   25  H   UNL     1     -29.641  37.328 -55.226  1.00  0.00     0.218 HD
ENDBRANCH  20  24
BRANCH  22  26
HETATM   26  O   UNL     1     -31.729  39.160 -52.756  1.00  0.00    -0.353 OA
HETATM   27  C   UNL     1     -32.103  40.354 -52.059  1.00  0.00     0.210 C 
ENDBRANCH  22  26
ENDBRANCH  16  17
ENDBRANCH   1  16
TORSDOF 4
ENDMDL
MODEL 10
REMARK VINA RESULT:      -6.5      2.564      4.141
REMARK  4 active torsions:
REMARK  status: ('A' for Active; 'I' for Inactive)
REMARK    1  A    between atoms: O_2  and  C_3 
REMARK    2  A    between atoms: C_4  and  O_5 
REMARK    3  A    between atoms: C_9  and  C_10 
REMARK    4  A    between atoms: C_10  and  N_11 
ROOT
HETATM    1  N   UNL     1     -42.522  57.780 -51.274  1.00  0.00    -0.066 N 
HETATM    2  H   UNL     1     -42.133  57.588 -50.342  1.00  0.00     0.280 HD
HETATM    3  C   UNL     1     -42.527  59.298 -51.367  1.00  0.00     0.246 C 
HETATM    4  C   UNL     1     -43.559  59.861 -52.363  1.00  0.00     0.062 C 
HETATM    5  C   UNL     1     -44.944  59.319 -52.030  1.00  0.00     0.020 C 
HETATM    6  C   UNL     1     -44.900  57.811 -52.221  1.00  0.00     0.031 C 
HETATM    7  C   UNL     1     -44.623  57.496 -53.694  1.00  0.00     0.138 C 
HETATM    8  N   UNL     1     -43.655  58.360 -54.371  1.00  0.00    -0.317 N 
HETATM    9  C   UNL     1     -43.191  59.547 -53.797  1.00  0.00     0.020 A 
HETATM   10  C   UNL     1     -42.423  60.382 -54.518  1.00  0.00     0.026 A 
HETATM   11  C   UNL     1     -43.325  57.987 -55.683  1.00  0.00     0.247 A 
HETATM   12  O   UNL     1     -43.688  56.936 -56.202  1.00  0.00    -0.268 OA
HETATM   13  C   UNL     1     -42.464  58.926 -56.441  1.00  0.00     0.074 A 
HETATM   14  C   UNL     1     -42.051  60.063 -55.871  1.00  0.00     0.007 A 
HETATM   15  C   UNL     1     -43.904  57.166 -51.251  1.00  0.00     0.241 C 
ENDROOT
BRANCH   1  16
HETATM   16  C   UNL     1     -41.548  57.043 -52.178  1.00  0.00     0.273 C 
BRANCH  16  17
HETATM   17  C   UNL     1     -41.206  55.649 -51.720  1.00  0.00    -0.028 A 
HETATM   18  C   UNL     1     -41.030  55.380 -50.352  1.00  0.00     0.031 A 
HETATM   19  C   UNL     1     -40.678  54.099 -49.916  1.00  0.00     0.047 A 
HETATM   20  C   UNL     1     -40.487  53.074 -50.842  1.00  0.00     0.116 A 
HETATM   21 BR   UNL     1     -40.439  53.822 -48.057  1.00  0.00    -0.048 Br
HETATM   22  C   UNL     1     -40.706  53.321 -52.199  1.00  0.00     0.103 A 
HETATM   23  C   UNL     1     -41.041  54.604 -52.641  1.00  0.00     0.048 A 
BRANCH  20  24
HETATM   24  O   UNL     1     -40.048  51.850 -50.424  1.00  0.00    -0.357 OA
HETATM   25  H   UNL     1     -39.695  51.384 -51.205  1.00  0.00     0.218 HD
ENDBRANCH  20  24
BRANCH  22  26
HETATM   26  O   UNL     1     -40.527  52.363 -53.161  1.00  0.00    -0.353 OA
HETATM   27  C   UNL     1     -40.519  52.913 -54.484  1.00  0.00     0.210 C 
ENDBRANCH  22  26
ENDBRANCH  16  17
ENDBRANCH   1  16
TORSDOF 4
ENDMDL
