MODEL 1
REMARK VINA RESULT:      -8.0      0.000      0.000
REMARK  12 active torsions:
REMARK  status: ('A' for Active; 'I' for Inactive)
REMARK    1  A    between atoms: C_2  and  O_3 
REMARK    2  A    between atoms: O_3  and  C_4 
REMARK    3  A    between atoms: C_5  and  N_6 
REMARK    4  A    between atoms: C_7  and  S_8 
REMARK    5  A    between atoms: S_8  and  C_9 
REMARK    6  A    between atoms: C_9  and  C_10 
REMARK       I    between atoms: C_10  and  N_11 
REMARK    7  A    between atoms: N_11  and  C_12 
REMARK    8  A    between atoms: C_12  and  C_13 
REMARK    9  A    between atoms: C_13  and  C_14 
REMARK   10  A    between atoms: C_17  and  S_18 
REMARK   11  A    between atoms: S_18  and  N_19 
REMARK   12  A    between atoms: C_28  and  N_29 
ROOT
HETATM    1  N   UNL     1     -42.524  55.833 -52.956  1.00  0.00    -0.273 N 
HETATM    2  C   UNL     1     -42.499  55.782 -54.315  1.00  0.00     0.177 A 
HETATM    3  N   UNL     1     -41.816  54.875 -55.051  1.00  0.00    -0.204 NA
HETATM    4  C   UNL     1     -41.172  53.998 -54.280  1.00  0.00     0.162 A 
HETATM    5  C   UNL     1     -41.169  53.952 -52.901  1.00  0.00     0.081 A 
HETATM    6  C   UNL     1     -41.904  54.904 -52.176  1.00  0.00     0.124 A 
HETATM    7  N   UNL     1     -40.393  52.965 -54.713  1.00  0.00    -0.260 N 
HETATM    8  H   UNL     1     -40.181  52.704 -55.671  1.00  0.00     0.191 HD
HETATM    9  N   UNL     1     -39.869  52.243 -53.712  1.00  0.00    -0.177 NA
HETATM   10  C   UNL     1     -40.325  52.839 -52.603  1.00  0.00     0.068 A 
HETATM   11  C   UNL     1     -39.912  52.314 -51.276  1.00  0.00     0.073 C 
ENDROOT
BRANCH   2  12
HETATM   12  S   UNL     1     -43.437  56.948 -55.319  1.00  0.00    -0.082 SA
BRANCH  12  13
HETATM   13  C   UNL     1     -42.197  58.272 -55.498  1.00  0.00     0.185 C 
BRANCH  13  14
HETATM   14  C   UNL     1     -42.661  59.440 -56.368  1.00  0.00     0.227 C 
HETATM   15  N   UNL     1     -41.677  59.886 -57.226  1.00  0.00    -0.360 N 
HETATM   16  H   UNL     1     -40.753  59.470 -57.186  1.00  0.00     0.162 HD
HETATM   17  O   UNL     1     -43.797  59.910 -56.338  1.00  0.00    -0.273 OA
BRANCH  15  18
HETATM   18  C   UNL     1     -41.920  60.834 -58.300  1.00  0.00     0.127 C 
BRANCH  18  19
HETATM   19  C   UNL     1     -41.803  60.233 -59.704  1.00  0.00     0.058 C 
BRANCH  19  20
HETATM   20  C   UNL     1     -42.591  58.946 -59.815  1.00  0.00    -0.057 A 
HETATM   21  C   UNL     1     -41.941  57.702 -59.792  1.00  0.00     0.009 A 
HETATM   22  C   UNL     1     -42.665  56.520 -59.965  1.00  0.00     0.025 A 
HETATM   23  C   UNL     1     -44.048  56.577 -60.144  1.00  0.00     0.074 A 
HETATM   24  C   UNL     1     -44.712  57.806 -60.158  1.00  0.00     0.025 A 
HETATM   25  C   UNL     1     -43.983  58.985 -59.990  1.00  0.00     0.009 A 
BRANCH  23  26
HETATM   26  S   UNL     1     -44.951  55.086 -60.453  1.00  0.00     0.239 S 
HETATM   27  O   UNL     1     -45.017  54.860 -61.877  1.00  0.00    -0.206 OA
HETATM   28  O   UNL     1     -44.509  54.072 -59.525  1.00  0.00    -0.206 OA
BRANCH  26  29
HETATM   29  N   UNL     1     -46.505  55.509 -59.978  1.00  0.00    -0.225 NA
HETATM   30  H   UNL     1     -46.580  56.526 -59.916  1.00  0.00     0.136 HD
HETATM   31  H   UNL     1     -47.184  55.091 -60.615  1.00  0.00     0.136 HD
ENDBRANCH  26  29
ENDBRANCH  23  26
ENDBRANCH  19  20
ENDBRANCH  18  19
ENDBRANCH  15  18
ENDBRANCH  13  14
ENDBRANCH  12  13
ENDBRANCH   2  12
BRANCH   1  32
HETATM   32  C   UNL     1     -43.116  56.969 -52.308  1.00  0.00     0.076 A 
HETATM   33  C   UNL     1     -42.266  57.976 -51.827  1.00  0.00     0.096 A 
HETATM   34  C   UNL     1     -42.834  59.090 -51.212  1.00  0.00     0.039 A 
HETATM   35  C   UNL     1     -44.222  59.156 -51.042  1.00  0.00     0.003 A 
HETATM   36  C   UNL     1     -45.049  58.120 -51.491  1.00  0.00     0.002 A 
HETATM   37  C   UNL     1     -44.499  57.010 -52.128  1.00  0.00     0.033 A 
BRANCH  33  38
HETATM   38  O   UNL     1     -40.923  57.857 -52.059  1.00  0.00    -0.349 OA
BRANCH  38  39
HETATM   39  C   UNL     1     -40.217  59.103 -52.162  1.00  0.00     0.171 C 
HETATM   40  C   UNL     1     -39.241  59.228 -51.008  1.00  0.00     0.034 C 
ENDBRANCH  38  39
ENDBRANCH  33  38
ENDBRANCH   1  32
BRANCH   6  41
HETATM   41  N   UNL     1     -41.975  54.910 -50.783  1.00  0.00    -0.384 N 
HETATM   42  H   UNL     1     -41.184  54.533 -50.273  1.00  0.00     0.157 HD
HETATM   43  H   UNL     1     -42.868  54.762 -50.325  1.00  0.00     0.157 HD
ENDBRANCH   6  41
TORSDOF 12
ENDMDL
MODEL 2
REMARK VINA RESULT:      -7.9      1.896      2.691
REMARK  12 active torsions:
REMARK  status: ('A' for Active; 'I' for Inactive)
REMARK    1  A    between atoms: C_2  and  O_3 
REMARK    2  A    between atoms: O_3  and  C_4 
REMARK    3  A    between atoms: C_5  and  N_6 
REMARK    4  A    between atoms: C_7  and  S_8 
REMARK    5  A    between atoms: S_8  and  C_9 
REMARK    6  A    between atoms: C_9  and  C_10 
REMARK       I    between atoms: C_10  and  N_11 
REMARK    7  A    between atoms: N_11  and  C_12 
REMARK    8  A    between atoms: C_12  and  C_13 
REMARK    9  A    between atoms: C_13  and  C_14 
REMARK   10  A    between atoms: C_17  and  S_18 
REMARK   11  A    between atoms: S_18  and  N_19 
REMARK   12  A    between atoms: C_28  and  N_29 
ROOT
HETATM    1  N   UNL     1     -44.278  58.388 -52.422  1.00  0.00    -0.273 N 
HETATM    2  C   UNL     1     -44.661  58.680 -53.695  1.00  0.00     0.177 A 
HETATM    3  N   UNL     1     -44.593  57.832 -54.746  1.00  0.00    -0.204 NA
HETATM    4  C   UNL     1     -44.119  56.638 -54.387  1.00  0.00     0.162 A 
HETATM    5  C   UNL     1     -43.741  56.243 -53.121  1.00  0.00     0.081 A 
HETATM    6  C   UNL     1     -43.842  57.151 -52.054  1.00  0.00     0.124 A 
HETATM    7  N   UNL     1     -43.925  55.568 -55.211  1.00  0.00    -0.260 N 
HETATM    8  H   UNL     1     -44.104  55.510 -56.208  1.00  0.00     0.191 HD
HETATM    9  N   UNL     1     -43.436  54.494 -54.575  1.00  0.00    -0.177 NA
HETATM   10  C   UNL     1     -43.309  54.894 -53.304  1.00  0.00     0.068 A 
HETATM   11  C   UNL     1     -42.755  53.950 -52.299  1.00  0.00     0.073 C 
ENDROOT
BRANCH   2  12
HETATM   12  S   UNL     1     -45.358  60.287 -54.123  1.00  0.00    -0.082 SA
BRANCH  12  13
HETATM   13  C   UNL     1     -43.962  60.990 -55.062  1.00  0.00     0.185 C 
BRANCH  13  14
HETATM   14  C   UNL     1     -44.212  61.079 -56.566  1.00  0.00     0.227 C 
HETATM   15  N   UNL     1     -43.073  61.400 -57.275  1.00  0.00    -0.360 N 
HETATM   16  H   UNL     1     -42.212  61.596 -56.776  1.00  0.00     0.162 HD
HETATM   17  O   UNL     1     -45.298  60.852 -57.098  1.00  0.00    -0.273 OA
BRANCH  15  18
HETATM   18  C   UNL     1     -42.986  61.338 -58.725  1.00  0.00     0.127 C 
BRANCH  18  19
HETATM   19  C   UNL     1     -41.994  60.295 -59.248  1.00  0.00     0.058 C 
BRANCH  19  20
HETATM   20  C   UNL     1     -42.700  59.012 -59.629  1.00  0.00    -0.057 A 
HETATM   21  C   UNL     1     -44.079  59.001 -59.888  1.00  0.00     0.009 A 
HETATM   22  C   UNL     1     -44.739  57.802 -60.169  1.00  0.00     0.025 A 
HETATM   23  C   UNL     1     -44.015  56.609 -60.212  1.00  0.00     0.074 A 
HETATM   24  C   UNL     1     -42.640  56.604 -59.969  1.00  0.00     0.025 A 
HETATM   25  C   UNL     1     -41.986  57.804 -59.683  1.00  0.00     0.009 A 
BRANCH  23  26
HETATM   26  S   UNL     1     -44.867  55.080 -60.481  1.00  0.00     0.239 S 
HETATM   27  O   UNL     1     -44.927  54.816 -61.899  1.00  0.00    -0.206 OA
HETATM   28  O   UNL     1     -44.389  54.106 -59.530  1.00  0.00    -0.206 OA
BRANCH  26  29
HETATM   29  N   UNL     1     -46.433  55.461 -60.014  1.00  0.00    -0.225 NA
HETATM   30  H   UNL     1     -47.078  55.262 -60.781  1.00  0.00     0.136 HD
HETATM   31  H   UNL     1     -46.665  54.966 -59.152  1.00  0.00     0.136 HD
ENDBRANCH  26  29
ENDBRANCH  23  26
ENDBRANCH  19  20
ENDBRANCH  18  19
ENDBRANCH  15  18
ENDBRANCH  13  14
ENDBRANCH  12  13
ENDBRANCH   2  12
BRANCH   1  32
HETATM   32  C   UNL     1     -44.207  59.443 -51.451  1.00  0.00     0.076 A 
HETATM   33  C   UNL     1     -43.028  60.199 -51.377  1.00  0.00     0.096 A 
HETATM   34  C   UNL     1     -42.959  61.236 -50.449  1.00  0.00     0.039 A 
HETATM   35  C   UNL     1     -44.035  61.465 -49.584  1.00  0.00     0.003 A 
HETATM   36  C   UNL     1     -45.186  60.672 -49.645  1.00  0.00     0.002 A 
HETATM   37  C   UNL     1     -45.280  59.646 -50.583  1.00  0.00     0.033 A 
BRANCH  33  38
HETATM   38  O   UNL     1     -42.032  59.937 -52.279  1.00  0.00    -0.349 OA
BRANCH  38  39
HETATM   39  C   UNL     1     -40.856  59.336 -51.716  1.00  0.00     0.171 C 
HETATM   40  C   UNL     1     -40.006  58.750 -52.827  1.00  0.00     0.034 C 
ENDBRANCH  38  39
ENDBRANCH  33  38
ENDBRANCH   1  32
BRANCH   6  41
HETATM   41  N   UNL     1     -43.506  56.822 -50.741  1.00  0.00    -0.384 N 
HETATM   42  H   UNL     1     -44.130  56.197 -50.242  1.00  0.00     0.157 HD
HETATM   43  H   UNL     1     -43.058  57.513 -50.149  1.00  0.00     0.157 HD
ENDBRANCH   6  41
TORSDOF 12
ENDMDL
MODEL 3
REMARK VINA RESULT:      -7.8      3.265      8.109
REMARK  12 active torsions:
REMARK  status: ('A' for Active; 'I' for Inactive)
REMARK    1  A    between atoms: C_2  and  O_3 
REMARK    2  A    between atoms: O_3  and  C_4 
REMARK    3  A    between atoms: C_5  and  N_6 
REMARK    4  A    between atoms: C_7  and  S_8 
REMARK    5  A    between atoms: S_8  and  C_9 
REMARK    6  A    between atoms: C_9  and  C_10 
REMARK       I    between atoms: C_10  and  N_11 
REMARK    7  A    between atoms: N_11  and  C_12 
REMARK    8  A    between atoms: C_12  and  C_13 
REMARK    9  A    between atoms: C_13  and  C_14 
REMARK   10  A    between atoms: C_17  and  S_18 
REMARK   11  A    between atoms: S_18  and  N_19 
REMARK   12  A    between atoms: C_28  and  N_29 
ROOT
HETATM    1  N   UNL     1     -43.171  58.416 -54.553  1.00  0.00    -0.273 N 
HETATM    2  C   UNL     1     -42.026  59.000 -54.106  1.00  0.00     0.177 A 
HETATM    3  N   UNL     1     -41.827  60.332 -53.977  1.00  0.00    -0.204 NA
HETATM    4  C   UNL     1     -42.910  61.028 -54.322  1.00  0.00     0.162 A 
HETATM    5  C   UNL     1     -44.120  60.522 -54.751  1.00  0.00     0.081 A 
HETATM    6  C   UNL     1     -44.289  59.132 -54.856  1.00  0.00     0.124 A 
HETATM    7  N   UNL     1     -43.031  62.388 -54.308  1.00  0.00    -0.260 N 
HETATM    8  H   UNL     1     -42.331  63.072 -54.041  1.00  0.00     0.191 HD
HETATM    9  N   UNL     1     -44.238  62.814 -54.707  1.00  0.00    -0.177 NA
HETATM   10  C   UNL     1     -44.908  61.689 -54.989  1.00  0.00     0.068 A 
HETATM   11  C   UNL     1     -46.300  61.784 -55.500  1.00  0.00     0.073 C 
ENDROOT
BRANCH   2  12
HETATM   12  S   UNL     1     -40.607  58.016 -53.587  1.00  0.00    -0.082 SA
BRANCH  12  13
HETATM   13  C   UNL     1     -40.274  58.783 -51.967  1.00  0.00     0.185 C 
BRANCH  13  14
HETATM   14  C   UNL     1     -40.915  58.046 -50.792  1.00  0.00     0.227 C 
HETATM   15  N   UNL     1     -41.451  56.829 -51.159  1.00  0.00    -0.360 N 
HETATM   16  H   UNL     1     -41.432  56.548 -52.133  1.00  0.00     0.162 HD
HETATM   17  O   UNL     1     -40.923  58.468 -49.637  1.00  0.00    -0.273 OA
BRANCH  15  18
HETATM   18  C   UNL     1     -41.926  55.841 -50.204  1.00  0.00     0.127 C 
BRANCH  18  19
HETATM   19  C   UNL     1     -40.842  54.877 -49.710  1.00  0.00     0.058 C 
BRANCH  19  20
HETATM   20  C   UNL     1     -40.641  53.737 -50.683  1.00  0.00    -0.057 A 
HETATM   21  C   UNL     1     -40.103  52.513 -50.254  1.00  0.00     0.009 A 
HETATM   22  C   UNL     1     -39.853  51.487 -51.169  1.00  0.00     0.025 A 
HETATM   23  C   UNL     1     -40.159  51.675 -52.518  1.00  0.00     0.074 A 
HETATM   24  C   UNL     1     -40.707  52.882 -52.960  1.00  0.00     0.025 A 
HETATM   25  C   UNL     1     -40.949  53.906 -52.042  1.00  0.00     0.009 A 
BRANCH  23  26
HETATM   26  S   UNL     1     -39.760  50.409 -53.689  1.00  0.00     0.239 S 
HETATM   27  O   UNL     1     -40.940  50.085 -54.456  1.00  0.00    -0.206 OA
HETATM   28  O   UNL     1     -38.495  50.727 -54.308  1.00  0.00    -0.206 OA
BRANCH  26  29
HETATM   29  N   UNL     1     -39.475  49.087 -52.696  1.00  0.00    -0.225 NA
HETATM   30  H   UNL     1     -39.477  48.231 -53.254  1.00  0.00     0.136 HD
HETATM   31  H   UNL     1     -38.608  49.228 -52.176  1.00  0.00     0.136 HD
ENDBRANCH  26  29
ENDBRANCH  23  26
ENDBRANCH  19  20
ENDBRANCH  18  19
ENDBRANCH  15  18
ENDBRANCH  13  14
ENDBRANCH  12  13
ENDBRANCH   2  12
BRANCH   1  32
HETATM   32  C   UNL     1     -43.175  57.009 -54.839  1.00  0.00     0.076 A 
HETATM   33  C   UNL     1     -42.709  56.584 -56.091  1.00  0.00     0.096 A 
HETATM   34  C   UNL     1     -42.694  55.220 -56.370  1.00  0.00     0.039 A 
HETATM   35  C   UNL     1     -43.187  54.314 -55.424  1.00  0.00     0.003 A 
HETATM   36  C   UNL     1     -43.688  54.761 -54.196  1.00  0.00     0.002 A 
HETATM   37  C   UNL     1     -43.689  56.120 -53.893  1.00  0.00     0.033 A 
BRANCH  33  38
HETATM   38  O   UNL     1     -42.212  57.527 -56.951  1.00  0.00    -0.349 OA
BRANCH  38  39
HETATM   39  C   UNL     1     -42.661  57.397 -58.309  1.00  0.00     0.171 C 
HETATM   40  C   UNL     1     -44.084  57.909 -58.423  1.00  0.00     0.034 C 
ENDBRANCH  38  39
ENDBRANCH  33  38
ENDBRANCH   1  32
BRANCH   6  41
HETATM   41  N   UNL     1     -45.487  58.540 -55.255  1.00  0.00    -0.384 N 
HETATM   42  H   UNL     1     -46.174  59.134 -55.708  1.00  0.00     0.157 HD
HETATM   43  H   UNL     1     -45.892  57.798 -54.694  1.00  0.00     0.157 HD
ENDBRANCH   6  41
TORSDOF 12
ENDMDL
MODEL 4
REMARK VINA RESULT:      -7.8      2.768      7.498
REMARK  12 active torsions:
REMARK  status: ('A' for Active; 'I' for Inactive)
REMARK    1  A    between atoms: C_2  and  O_3 
REMARK    2  A    between atoms: O_3  and  C_4 
REMARK    3  A    between atoms: C_5  and  N_6 
REMARK    4  A    between atoms: C_7  and  S_8 
REMARK    5  A    between atoms: S_8  and  C_9 
REMARK    6  A    between atoms: C_9  and  C_10 
REMARK       I    between atoms: C_10  and  N_11 
REMARK    7  A    between atoms: N_11  and  C_12 
REMARK    8  A    between atoms: C_12  and  C_13 
REMARK    9  A    between atoms: C_13  and  C_14 
REMARK   10  A    between atoms: C_17  and  S_18 
REMARK   11  A    between atoms: S_18  and  N_19 
REMARK   12  A    between atoms: C_28  and  N_29 
ROOT
HETATM    1  N   UNL     1     -43.288  57.155 -56.492  1.00  0.00    -0.273 N 
HETATM    2  C   UNL     1     -42.676  58.229 -55.923  1.00  0.00     0.177 A 
HETATM    3  N   UNL     1     -41.749  58.169 -54.939  1.00  0.00    -0.204 NA
HETATM    4  C   UNL     1     -41.475  56.910 -54.595  1.00  0.00     0.162 A 
HETATM    5  C   UNL     1     -42.018  55.765 -55.139  1.00  0.00     0.081 A 
HETATM    6  C   UNL     1     -42.967  55.872 -56.169  1.00  0.00     0.124 A 
HETATM    7  N   UNL     1     -40.591  56.513 -53.634  1.00  0.00    -0.260 N 
HETATM    8  H   UNL     1     -40.013  57.098 -53.040  1.00  0.00     0.191 HD
HETATM    9  N   UNL     1     -40.519  55.181 -53.503  1.00  0.00    -0.177 NA
HETATM   10  C   UNL     1     -41.390  54.713 -54.405  1.00  0.00     0.068 A 
HETATM   11  C   UNL     1     -41.599  53.246 -54.519  1.00  0.00     0.073 C 
ENDROOT
BRANCH   2  12
HETATM   12  S   UNL     1     -43.029  59.911 -56.465  1.00  0.00    -0.082 SA
BRANCH  12  13
HETATM   13  C   UNL     1     -43.242  60.721 -54.846  1.00  0.00     0.185 C 
BRANCH  13  14
HETATM   14  C   UNL     1     -44.211  59.994 -53.915  1.00  0.00     0.227 C 
HETATM   15  N   UNL     1     -43.566  59.342 -52.883  1.00  0.00    -0.360 N 
HETATM   16  H   UNL     1     -42.553  59.346 -52.846  1.00  0.00     0.162 HD
HETATM   17  O   UNL     1     -45.434  60.014 -54.043  1.00  0.00    -0.273 OA
BRANCH  15  18
HETATM   18  C   UNL     1     -44.259  58.758 -51.747  1.00  0.00     0.127 C 
BRANCH  18  19
HETATM   19  C   UNL     1     -44.560  57.264 -51.898  1.00  0.00     0.058 C 
BRANCH  19  20
HETATM   20  C   UNL     1     -43.458  56.421 -51.295  1.00  0.00    -0.057 A 
HETATM   21  C   UNL     1     -43.520  55.019 -51.339  1.00  0.00     0.009 A 
HETATM   22  C   UNL     1     -42.536  54.245 -50.719  1.00  0.00     0.025 A 
HETATM   23  C   UNL     1     -41.472  54.872 -50.069  1.00  0.00     0.074 A 
HETATM   24  C   UNL     1     -41.388  56.266 -50.027  1.00  0.00     0.025 A 
HETATM   25  C   UNL     1     -42.377  57.035 -50.643  1.00  0.00     0.009 A 
BRANCH  23  26
HETATM   26  S   UNL     1     -40.274  53.892 -49.209  1.00  0.00     0.239 S 
HETATM   27  O   UNL     1     -40.635  52.499 -49.322  1.00  0.00    -0.206 OA
HETATM   28  O   UNL     1     -38.955  54.381 -49.528  1.00  0.00    -0.206 OA
BRANCH  26  29
HETATM   29  N   UNL     1     -40.555  54.314 -47.609  1.00  0.00    -0.225 NA
HETATM   30  H   UNL     1     -39.664  54.416 -47.119  1.00  0.00     0.136 HD
HETATM   31  H   UNL     1     -41.134  55.154 -47.572  1.00  0.00     0.136 HD
ENDBRANCH  26  29
ENDBRANCH  23  26
ENDBRANCH  19  20
ENDBRANCH  18  19
ENDBRANCH  15  18
ENDBRANCH  13  14
ENDBRANCH  12  13
ENDBRANCH   2  12
BRANCH   1  32
HETATM   32  C   UNL     1     -44.401  57.369 -57.374  1.00  0.00     0.076 A 
HETATM   33  C   UNL     1     -44.203  57.183 -58.750  1.00  0.00     0.096 A 
HETATM   34  C   UNL     1     -45.282  57.372 -59.610  1.00  0.00     0.039 A 
HETATM   35  C   UNL     1     -46.515  57.790 -59.095  1.00  0.00     0.003 A 
HETATM   36  C   UNL     1     -46.681  58.011 -57.723  1.00  0.00     0.002 A 
HETATM   37  C   UNL     1     -45.617  57.804 -56.847  1.00  0.00     0.033 A 
BRANCH  33  38
HETATM   38  O   UNL     1     -42.979  56.742 -59.175  1.00  0.00    -0.349 OA
BRANCH  38  39
HETATM   39  C   UNL     1     -42.457  57.432 -60.321  1.00  0.00     0.171 C 
HETATM   40  C   UNL     1     -41.970  58.807 -59.907  1.00  0.00     0.034 C 
ENDBRANCH  38  39
ENDBRANCH  33  38
ENDBRANCH   1  32
BRANCH   6  41
HETATM   41  N   UNL     1     -43.543  54.763 -56.791  1.00  0.00    -0.384 N 
HETATM   42  H   UNL     1     -42.916  54.088 -57.214  1.00  0.00     0.157 HD
HETATM   43  H   UNL     1     -44.428  54.863 -57.275  1.00  0.00     0.157 HD
ENDBRANCH   6  41
TORSDOF 12
ENDMDL
MODEL 5
REMARK VINA RESULT:      -7.8      3.188      9.177
REMARK  12 active torsions:
REMARK  status: ('A' for Active; 'I' for Inactive)
REMARK    1  A    between atoms: C_2  and  O_3 
REMARK    2  A    between atoms: O_3  and  C_4 
REMARK    3  A    between atoms: C_5  and  N_6 
REMARK    4  A    between atoms: C_7  and  S_8 
REMARK    5  A    between atoms: S_8  and  C_9 
REMARK    6  A    between atoms: C_9  and  C_10 
REMARK       I    between atoms: C_10  and  N_11 
REMARK    7  A    between atoms: N_11  and  C_12 
REMARK    8  A    between atoms: C_12  and  C_13 
REMARK    9  A    between atoms: C_13  and  C_14 
REMARK   10  A    between atoms: C_17  and  S_18 
REMARK   11  A    between atoms: S_18  and  N_19 
REMARK   12  A    between atoms: C_28  and  N_29 
ROOT
HETATM    1  N   UNL     1     -42.374  59.599 -59.077  1.00  0.00    -0.273 N 
HETATM    2  C   UNL     1     -42.151  59.894 -57.768  1.00  0.00     0.177 A 
HETATM    3  N   UNL     1     -41.459  60.965 -57.315  1.00  0.00    -0.204 NA
HETATM    4  C   UNL     1     -41.029  61.734 -58.316  1.00  0.00     0.162 A 
HETATM    5  C   UNL     1     -41.236  61.532 -59.665  1.00  0.00     0.081 A 
HETATM    6  C   UNL     1     -41.973  60.414 -60.091  1.00  0.00     0.124 A 
HETATM    7  N   UNL     1     -40.300  62.881 -58.195  1.00  0.00    -0.260 N 
HETATM    8  H   UNL     1     -39.974  63.324 -57.342  1.00  0.00     0.191 HD
HETATM    9  N   UNL     1     -40.006  63.447 -59.374  1.00  0.00    -0.177 NA
HETATM   10  C   UNL     1     -40.561  62.630 -60.278  1.00  0.00     0.068 A 
HETATM   11  C   UNL     1     -40.405  62.937 -61.724  1.00  0.00     0.073 C 
ENDROOT
BRANCH   2  12
HETATM   12  S   UNL     1     -42.809  58.863 -56.444  1.00  0.00    -0.082 SA
BRANCH  12  13
HETATM   13  C   UNL     1     -42.030  59.670 -55.006  1.00  0.00     0.185 C 
BRANCH  13  14
HETATM   14  C   UNL     1     -41.277  58.706 -54.091  1.00  0.00     0.227 C 
HETATM   15  N   UNL     1     -41.799  57.429 -54.121  1.00  0.00    -0.360 N 
HETATM   16  H   UNL     1     -42.629  57.241 -54.674  1.00  0.00     0.162 HD
HETATM   17  O   UNL     1     -40.290  59.017 -53.426  1.00  0.00    -0.273 OA
BRANCH  15  18
HETATM   18  C   UNL     1     -41.146  56.281 -53.514  1.00  0.00     0.127 C 
BRANCH  18  19
HETATM   19  C   UNL     1     -40.915  55.111 -54.477  1.00  0.00     0.058 C 
BRANCH  19  20
HETATM   20  C   UNL     1     -40.492  53.865 -53.731  1.00  0.00    -0.057 A 
HETATM   21  C   UNL     1     -40.108  52.708 -54.426  1.00  0.00     0.009 A 
HETATM   22  C   UNL     1     -39.786  51.538 -53.734  1.00  0.00     0.025 A 
HETATM   23  C   UNL     1     -39.828  51.527 -52.338  1.00  0.00     0.074 A 
HETATM   24  C   UNL     1     -40.197  52.673 -51.631  1.00  0.00     0.025 A 
HETATM   25  C   UNL     1     -40.523  53.838 -52.328  1.00  0.00     0.009 A 
BRANCH  23  26
HETATM   26  S   UNL     1     -39.506  50.020 -51.467  1.00  0.00     0.239 S 
HETATM   27  O   UNL     1     -38.158  50.050 -50.953  1.00  0.00    -0.206 OA
HETATM   28  O   UNL     1     -40.646  49.707 -50.638  1.00  0.00    -0.206 OA
BRANCH  26  29
HETATM   29  N   UNL     1     -39.504  48.888 -52.706  1.00  0.00    -0.225 NA
HETATM   30  H   UNL     1     -38.968  49.247 -53.498  1.00  0.00     0.136 HD
HETATM   31  H   UNL     1     -39.159  47.994 -52.355  1.00  0.00     0.136 HD
ENDBRANCH  26  29
ENDBRANCH  23  26
ENDBRANCH  19  20
ENDBRANCH  18  19
ENDBRANCH  15  18
ENDBRANCH  13  14
ENDBRANCH  12  13
ENDBRANCH   2  12
BRANCH   1  32
HETATM   32  C   UNL     1     -42.940  58.325 -59.421  1.00  0.00     0.076 A 
HETATM   33  C   UNL     1     -44.306  58.268 -59.735  1.00  0.00     0.096 A 
HETATM   34  C   UNL     1     -44.858  57.038 -60.086  1.00  0.00     0.039 A 
HETATM   35  C   UNL     1     -44.060  55.889 -60.069  1.00  0.00     0.003 A 
HETATM   36  C   UNL     1     -42.708  55.960 -59.711  1.00  0.00     0.002 A 
HETATM   37  C   UNL     1     -42.135  57.186 -59.380  1.00  0.00     0.033 A 
BRANCH  33  38
HETATM   38  O   UNL     1     -45.014  59.439 -59.763  1.00  0.00    -0.349 OA
BRANCH  38  39
HETATM   39  C   UNL     1     -46.001  59.569 -58.728  1.00  0.00     0.171 C 
HETATM   40  C   UNL     1     -45.718  60.817 -57.913  1.00  0.00     0.034 C 
ENDBRANCH  38  39
ENDBRANCH  33  38
ENDBRANCH   1  32
BRANCH   6  41
HETATM   41  N   UNL     1     -42.251  60.153 -61.433  1.00  0.00    -0.384 N 
HETATM   42  H   UNL     1     -42.182  60.929 -62.083  1.00  0.00     0.157 HD
HETATM   43  H   UNL     1     -42.965  59.476 -61.675  1.00  0.00     0.157 HD
ENDBRANCH   6  41
TORSDOF 12
ENDMDL
MODEL 6
REMARK VINA RESULT:      -7.7      3.047      9.243
REMARK  12 active torsions:
REMARK  status: ('A' for Active; 'I' for Inactive)
REMARK    1  A    between atoms: C_2  and  O_3 
REMARK    2  A    between atoms: O_3  and  C_4 
REMARK    3  A    between atoms: C_5  and  N_6 
REMARK    4  A    between atoms: C_7  and  S_8 
REMARK    5  A    between atoms: S_8  and  C_9 
REMARK    6  A    between atoms: C_9  and  C_10 
REMARK       I    between atoms: C_10  and  N_11 
REMARK    7  A    between atoms: N_11  and  C_12 
REMARK    8  A    between atoms: C_12  and  C_13 
REMARK    9  A    between atoms: C_13  and  C_14 
REMARK   10  A    between atoms: C_17  and  S_18 
REMARK   11  A    between atoms: S_18  and  N_19 
REMARK   12  A    between atoms: C_28  and  N_29 
ROOT
HETATM    1  N   UNL     1     -42.668  59.568 -58.978  1.00  0.00    -0.273 N 
HETATM    2  C   UNL     1     -42.690  59.926 -57.666  1.00  0.00     0.177 A 
HETATM    3  N   UNL     1     -42.073  61.010 -57.141  1.00  0.00    -0.204 NA
HETATM    4  C   UNL     1     -41.444  61.721 -58.077  1.00  0.00     0.162 A 
HETATM    5  C   UNL     1     -41.397  61.454 -59.429  1.00  0.00     0.081 A 
HETATM    6  C   UNL     1     -42.064  60.326 -59.935  1.00  0.00     0.124 A 
HETATM    7  N   UNL     1     -40.726  62.863 -57.873  1.00  0.00    -0.260 N 
HETATM    8  H   UNL     1     -40.558  63.345 -56.996  1.00  0.00     0.191 HD
HETATM    9  N   UNL     1     -40.202  63.365 -59.000  1.00  0.00    -0.177 NA
HETATM   10  C   UNL     1     -40.593  62.511 -59.954  1.00  0.00     0.068 A 
HETATM   11  C   UNL     1     -40.160  62.743 -61.357  1.00  0.00     0.073 C 
ENDROOT
BRANCH   2  12
HETATM   12  S   UNL     1     -43.609  58.971 -56.443  1.00  0.00    -0.082 SA
BRANCH  12  13
HETATM   13  C   UNL     1     -42.318  58.771 -55.172  1.00  0.00     0.185 C 
BRANCH  13  14
HETATM   14  C   UNL     1     -41.912  57.318 -54.928  1.00  0.00     0.227 C 
HETATM   15  N   UNL     1     -42.472  56.451 -55.844  1.00  0.00    -0.360 N 
HETATM   16  H   UNL     1     -43.117  56.808 -56.541  1.00  0.00     0.162 HD
HETATM   17  O   UNL     1     -41.142  56.959 -54.039  1.00  0.00    -0.273 OA
BRANCH  15  18
HETATM   18  C   UNL     1     -42.083  55.056 -55.968  1.00  0.00     0.127 C 
BRANCH  18  19
HETATM   19  C   UNL     1     -42.971  54.087 -55.180  1.00  0.00     0.058 C 
BRANCH  19  20
HETATM   20  C   UNL     1     -42.443  53.880 -53.778  1.00  0.00    -0.057 A 
HETATM   21  C   UNL     1     -43.210  54.246 -52.660  1.00  0.00     0.009 A 
HETATM   22  C   UNL     1     -42.690  54.118 -51.370  1.00  0.00     0.025 A 
HETATM   23  C   UNL     1     -41.404  53.604 -51.191  1.00  0.00     0.074 A 
HETATM   24  C   UNL     1     -40.633  53.223 -52.291  1.00  0.00     0.025 A 
HETATM   25  C   UNL     1     -41.155  53.358 -53.579  1.00  0.00     0.009 A 
BRANCH  23  26
HETATM   26  S   UNL     1     -40.714  53.526 -49.562  1.00  0.00     0.239 S 
HETATM   27  O   UNL     1     -41.523  54.320 -48.668  1.00  0.00    -0.206 OA
HETATM   28  O   UNL     1     -40.352  52.159 -49.274  1.00  0.00    -0.206 OA
BRANCH  26  29
HETATM   29  N   UNL     1     -39.272  54.363 -49.749  1.00  0.00    -0.225 NA
HETATM   30  H   UNL     1     -39.373  55.310 -49.379  1.00  0.00     0.136 HD
HETATM   31  H   UNL     1     -38.511  53.839 -49.316  1.00  0.00     0.136 HD
ENDBRANCH  26  29
ENDBRANCH  23  26
ENDBRANCH  19  20
ENDBRANCH  18  19
ENDBRANCH  15  18
ENDBRANCH  13  14
ENDBRANCH  12  13
ENDBRANCH   2  12
BRANCH   1  32
HETATM   32  C   UNL     1     -43.187  58.286 -59.363  1.00  0.00     0.076 A 
HETATM   33  C   UNL     1     -44.551  58.186 -59.671  1.00  0.00     0.096 A 
HETATM   34  C   UNL     1     -45.058  56.949 -60.062  1.00  0.00     0.039 A 
HETATM   35  C   UNL     1     -44.216  55.832 -60.089  1.00  0.00     0.003 A 
HETATM   36  C   UNL     1     -42.865  55.943 -59.736  1.00  0.00     0.002 A 
HETATM   37  C   UNL     1     -42.338  57.178 -59.366  1.00  0.00     0.033 A 
BRANCH  33  38
HETATM   38  O   UNL     1     -45.304  59.329 -59.654  1.00  0.00    -0.349 OA
BRANCH  38  39
HETATM   39  C   UNL     1     -45.857  59.703 -60.926  1.00  0.00     0.171 C 
HETATM   40  C   UNL     1     -47.353  59.907 -60.787  1.00  0.00     0.034 C 
ENDBRANCH  38  39
ENDBRANCH  33  38
ENDBRANCH   1  32
BRANCH   6  41
HETATM   41  N   UNL     1     -42.089  60.001 -61.291  1.00  0.00    -0.384 N 
HETATM   42  H   UNL     1     -41.650  59.131 -61.571  1.00  0.00     0.157 HD
HETATM   43  H   UNL     1     -42.022  60.737 -61.985  1.00  0.00     0.157 HD
ENDBRANCH   6  41
TORSDOF 12
ENDMDL
MODEL 7
REMARK VINA RESULT:      -7.6      3.305      5.870
REMARK  12 active torsions:
REMARK  status: ('A' for Active; 'I' for Inactive)
REMARK    1  A    between atoms: C_2  and  O_3 
REMARK    2  A    between atoms: O_3  and  C_4 
REMARK    3  A    between atoms: C_5  and  N_6 
REMARK    4  A    between atoms: C_7  and  S_8 
REMARK    5  A    between atoms: S_8  and  C_9 
REMARK    6  A    between atoms: C_9  and  C_10 
REMARK       I    between atoms: C_10  and  N_11 
REMARK    7  A    between atoms: N_11  and  C_12 
REMARK    8  A    between atoms: C_12  and  C_13 
REMARK    9  A    between atoms: C_13  and  C_14 
REMARK   10  A    between atoms: C_17  and  S_18 
REMARK   11  A    between atoms: S_18  and  N_19 
REMARK   12  A    between atoms: C_28  and  N_29 
ROOT
HETATM    1  N   UNL     1     -43.024  58.788 -53.830  1.00  0.00    -0.273 N 
HETATM    2  C   UNL     1     -43.742  57.632 -53.867  1.00  0.00     0.177 A 
HETATM    3  N   UNL     1     -44.842  57.419 -54.626  1.00  0.00    -0.204 NA
HETATM    4  C   UNL     1     -45.140  58.483 -55.372  1.00  0.00     0.162 A 
HETATM    5  C   UNL     1     -44.452  59.678 -55.425  1.00  0.00     0.081 A 
HETATM    6  C   UNL     1     -43.307  59.852 -54.630  1.00  0.00     0.124 A 
HETATM    7  N   UNL     1     -46.188  58.590 -56.239  1.00  0.00    -0.260 N 
HETATM    8  H   UNL     1     -46.895  57.893 -56.450  1.00  0.00     0.191 HD
HETATM    9  N   UNL     1     -46.243  59.779 -56.856  1.00  0.00    -0.177 NA
HETATM   10  C   UNL     1     -45.199  60.455 -56.362  1.00  0.00     0.068 A 
HETATM   11  C   UNL     1     -44.963  61.853 -56.809  1.00  0.00     0.073 C 
ENDROOT
BRANCH   2  12
HETATM   12  S   UNL     1     -43.265  56.194 -52.890  1.00  0.00    -0.082 SA
BRANCH  12  13
HETATM   13  C   UNL     1     -43.330  54.907 -54.180  1.00  0.00     0.185 C 
BRANCH  13  14
HETATM   14  C   UNL     1     -42.599  55.287 -55.467  1.00  0.00     0.227 C 
HETATM   15  N   UNL     1     -43.396  55.160 -56.586  1.00  0.00    -0.360 N 
HETATM   16  H   UNL     1     -44.338  54.795 -56.490  1.00  0.00     0.162 HD
HETATM   17  O   UNL     1     -41.440  55.697 -55.505  1.00  0.00    -0.273 OA
BRANCH  15  18
HETATM   18  C   UNL     1     -43.019  55.655 -57.900  1.00  0.00     0.127 C 
BRANCH  18  19
HETATM   19  C   UNL     1     -44.036  56.618 -58.521  1.00  0.00     0.058 C 
BRANCH  19  20
HETATM   20  C   UNL     1     -43.459  58.009 -58.659  1.00  0.00    -0.057 A 
HETATM   21  C   UNL     1     -44.011  58.928 -59.565  1.00  0.00     0.009 A 
HETATM   22  C   UNL     1     -43.431  60.188 -59.741  1.00  0.00     0.025 A 
HETATM   23  C   UNL     1     -42.306  60.540 -58.993  1.00  0.00     0.074 A 
HETATM   24  C   UNL     1     -41.752  59.641 -58.078  1.00  0.00     0.025 A 
HETATM   25  C   UNL     1     -42.332  58.382 -57.911  1.00  0.00     0.009 A 
BRANCH  23  26
HETATM   26  S   UNL     1     -41.520  62.101 -59.279  1.00  0.00     0.239 S 
HETATM   27  O   UNL     1     -40.727  62.016 -60.482  1.00  0.00    -0.206 OA
HETATM   28  O   UNL     1     -42.480  63.154 -59.055  1.00  0.00    -0.206 OA
BRANCH  26  29
HETATM   29  N   UNL     1     -40.427  62.185 -58.008  1.00  0.00    -0.225 NA
HETATM   30  H   UNL     1     -39.675  61.510 -58.157  1.00  0.00     0.136 HD
HETATM   31  H   UNL     1     -40.096  63.144 -57.903  1.00  0.00     0.136 HD
ENDBRANCH  26  29
ENDBRANCH  23  26
ENDBRANCH  19  20
ENDBRANCH  18  19
ENDBRANCH  15  18
ENDBRANCH  13  14
ENDBRANCH  12  13
ENDBRANCH   2  12
BRANCH   1  32
HETATM   32  C   UNL     1     -42.009  58.950 -52.827  1.00  0.00     0.076 A 
HETATM   33  C   UNL     1     -42.403  59.353 -51.543  1.00  0.00     0.096 A 
HETATM   34  C   UNL     1     -41.426  59.497 -50.561  1.00  0.00     0.039 A 
HETATM   35  C   UNL     1     -40.080  59.288 -50.886  1.00  0.00     0.003 A 
HETATM   36  C   UNL     1     -39.703  58.928 -52.184  1.00  0.00     0.002 A 
HETATM   37  C   UNL     1     -40.671  58.758 -53.172  1.00  0.00     0.033 A 
BRANCH  33  38
HETATM   38  O   UNL     1     -43.740  59.506 -51.293  1.00  0.00    -0.349 OA
BRANCH  38  39
HETATM   39  C   UNL     1     -44.147  60.852 -51.004  1.00  0.00     0.171 C 
HETATM   40  C   UNL     1     -45.091  60.852 -49.817  1.00  0.00     0.034 C 
ENDBRANCH  38  39
ENDBRANCH  33  38
ENDBRANCH   1  32
BRANCH   6  41
HETATM   41  N   UNL     1     -42.540  61.017 -54.646  1.00  0.00    -0.384 N 
HETATM   42  H   UNL     1     -42.566  61.604 -53.819  1.00  0.00     0.157 HD
HETATM   43  H   UNL     1     -42.427  61.532 -55.512  1.00  0.00     0.157 HD
ENDBRANCH   6  41
TORSDOF 12
ENDMDL
MODEL 8
REMARK VINA RESULT:      -7.6      3.049      8.711
REMARK  12 active torsions:
REMARK  status: ('A' for Active; 'I' for Inactive)
REMARK    1  A    between atoms: C_2  and  O_3 
REMARK    2  A    between atoms: O_3  and  C_4 
REMARK    3  A    between atoms: C_5  and  N_6 
REMARK    4  A    between atoms: C_7  and  S_8 
REMARK    5  A    between atoms: S_8  and  C_9 
REMARK    6  A    between atoms: C_9  and  C_10 
REMARK       I    between atoms: C_10  and  N_11 
REMARK    7  A    between atoms: N_11  and  C_12 
REMARK    8  A    between atoms: C_12  and  C_13 
REMARK    9  A    between atoms: C_13  and  C_14 
REMARK   10  A    between atoms: C_17  and  S_18 
REMARK   11  A    between atoms: S_18  and  N_19 
REMARK   12  A    between atoms: C_28  and  N_29 
ROOT
HETATM    1  N   UNL     1     -43.362  58.200 -58.750  1.00  0.00    -0.273 N 
HETATM    2  C   UNL     1     -42.997  58.215 -57.439  1.00  0.00     0.177 A 
HETATM    3  N   UNL     1     -42.209  59.150 -56.858  1.00  0.00    -0.204 NA
HETATM    4  C   UNL     1     -41.839  60.092 -57.726  1.00  0.00     0.162 A 
HETATM    5  C   UNL     1     -42.187  60.175 -59.058  1.00  0.00     0.081 A 
HETATM    6  C   UNL     1     -43.019  59.192 -59.618  1.00  0.00     0.124 A 
HETATM    7  N   UNL     1     -41.043  61.167 -57.456  1.00  0.00    -0.260 N 
HETATM    8  H   UNL     1     -40.613  61.416 -56.571  1.00  0.00     0.191 HD
HETATM    9  N   UNL     1     -40.837  61.951 -58.523  1.00  0.00    -0.177 NA
HETATM   10  C   UNL     1     -41.519  61.354 -59.508  1.00  0.00     0.068 A 
HETATM   11  C   UNL     1     -41.489  61.944 -60.872  1.00  0.00     0.073 C 
ENDROOT
BRANCH   2  12
HETATM   12  S   UNL     1     -43.575  56.957 -56.285  1.00  0.00    -0.082 SA
BRANCH  12  13
HETATM   13  C   UNL     1     -44.039  58.017 -54.876  1.00  0.00     0.185 C 
BRANCH  13  14
HETATM   14  C   UNL     1     -43.190  57.789 -53.626  1.00  0.00     0.227 C 
HETATM   15  N   UNL     1     -42.152  56.907 -53.845  1.00  0.00    -0.360 N 
HETATM   16  H   UNL     1     -42.060  56.457 -54.749  1.00  0.00     0.162 HD
HETATM   17  O   UNL     1     -43.382  58.354 -52.551  1.00  0.00    -0.273 OA
BRANCH  15  18
HETATM   18  C   UNL     1     -41.078  56.681 -52.892  1.00  0.00     0.127 C 
BRANCH  18  19
HETATM   19  C   UNL     1     -41.368  55.575 -51.872  1.00  0.00     0.058 C 
BRANCH  19  20
HETATM   20  C   UNL     1     -40.890  54.230 -52.374  1.00  0.00    -0.057 A 
HETATM   21  C   UNL     1     -41.200  53.797 -53.673  1.00  0.00     0.009 A 
HETATM   22  C   UNL     1     -40.818  52.526 -54.108  1.00  0.00     0.025 A 
HETATM   23  C   UNL     1     -40.105  51.687 -53.248  1.00  0.00     0.074 A 
HETATM   24  C   UNL     1     -39.778  52.108 -51.957  1.00  0.00     0.025 A 
HETATM   25  C   UNL     1     -40.167  53.377 -51.526  1.00  0.00     0.009 A 
BRANCH  23  26
HETATM   26  S   UNL     1     -39.699  50.044 -53.769  1.00  0.00     0.239 S 
HETATM   27  O   UNL     1     -38.601  50.103 -54.704  1.00  0.00    -0.206 OA
HETATM   28  O   UNL     1     -39.689  49.178 -52.614  1.00  0.00    -0.206 OA
BRANCH  26  29
HETATM   29  N   UNL     1     -41.050  49.614 -54.666  1.00  0.00    -0.225 NA
HETATM   30  H   UNL     1     -41.846  50.189 -54.385  1.00  0.00     0.136 HD
HETATM   31  H   UNL     1     -40.836  49.677 -55.662  1.00  0.00     0.136 HD
ENDBRANCH  26  29
ENDBRANCH  23  26
ENDBRANCH  19  20
ENDBRANCH  18  19
ENDBRANCH  15  18
ENDBRANCH  13  14
ENDBRANCH  12  13
ENDBRANCH   2  12
BRANCH   1  32
HETATM   32  C   UNL     1     -44.024  57.041 -59.279  1.00  0.00     0.076 A 
HETATM   33  C   UNL     1     -45.413  57.097 -59.467  1.00  0.00     0.096 A 
HETATM   34  C   UNL     1     -46.060  55.983 -59.996  1.00  0.00     0.039 A 
HETATM   35  C   UNL     1     -45.327  54.824 -60.277  1.00  0.00     0.003 A 
HETATM   36  C   UNL     1     -43.948  54.773 -60.042  1.00  0.00     0.002 A 
HETATM   37  C   UNL     1     -43.282  55.887 -59.535  1.00  0.00     0.033 A 
BRANCH  33  38
HETATM   38  O   UNL     1     -46.056  58.276 -59.200  1.00  0.00    -0.349 OA
BRANCH  38  39
HETATM   39  C   UNL     1     -47.045  58.654 -60.169  1.00  0.00     0.171 C 
HETATM   40  C   UNL     1     -46.919  60.135 -60.469  1.00  0.00     0.034 C 
ENDBRANCH  38  39
ENDBRANCH  33  38
ENDBRANCH   1  32
BRANCH   6  41
HETATM   41  N   UNL     1     -43.440  59.218 -60.947  1.00  0.00    -0.384 N 
HETATM   42  H   UNL     1     -44.434  59.120 -61.124  1.00  0.00     0.157 HD
HETATM   43  H   UNL     1     -42.852  58.815 -61.668  1.00  0.00     0.157 HD
ENDBRANCH   6  41
TORSDOF 12
ENDMDL
MODEL 9
REMARK VINA RESULT:      -7.6      3.199      7.358
REMARK  12 active torsions:
REMARK  status: ('A' for Active; 'I' for Inactive)
REMARK    1  A    between atoms: C_2  and  O_3 
REMARK    2  A    between atoms: O_3  and  C_4 
REMARK    3  A    between atoms: C_5  and  N_6 
REMARK    4  A    between atoms: C_7  and  S_8 
REMARK    5  A    between atoms: S_8  and  C_9 
REMARK    6  A    between atoms: C_9  and  C_10 
REMARK       I    between atoms: C_10  and  N_11 
REMARK    7  A    between atoms: N_11  and  C_12 
REMARK    8  A    between atoms: C_12  and  C_13 
REMARK    9  A    between atoms: C_13  and  C_14 
REMARK   10  A    between atoms: C_17  and  S_18 
REMARK   11  A    between atoms: S_18  and  N_19 
REMARK   12  A    between atoms: C_28  and  N_29 
ROOT
HETATM    1  N   UNL     1     -43.895  58.875 -54.843  1.00  0.00    -0.273 N 
HETATM    2  C   UNL     1     -42.651  59.412 -54.972  1.00  0.00     0.177 A 
HETATM    3  N   UNL     1     -41.953  59.496 -56.128  1.00  0.00    -0.204 NA
HETATM    4  C   UNL     1     -42.643  59.006 -57.158  1.00  0.00     0.162 A 
HETATM    5  C   UNL     1     -43.916  58.477 -57.127  1.00  0.00     0.081 A 
HETATM    6  C   UNL     1     -44.612  58.421 -55.907  1.00  0.00     0.124 A 
HETATM    7  N   UNL     1     -42.218  58.940 -58.454  1.00  0.00    -0.260 N 
HETATM    8  H   UNL     1     -41.329  59.247 -58.833  1.00  0.00     0.191 HD
HETATM    9  N   UNL     1     -43.125  58.397 -59.279  1.00  0.00    -0.177 NA
HETATM   10  C   UNL     1     -44.159  58.100 -58.483  1.00  0.00     0.068 A 
HETATM   11  C   UNL     1     -45.357  57.442 -59.066  1.00  0.00     0.073 C 
ENDROOT
BRANCH   2  12
HETATM   12  S   UNL     1     -41.780  60.124 -53.564  1.00  0.00    -0.082 SA
BRANCH  12  13
HETATM   13  C   UNL     1     -40.581  58.790 -53.234  1.00  0.00     0.185 C 
BRANCH  13  14
HETATM   14  C   UNL     1     -40.642  58.246 -51.807  1.00  0.00     0.227 C 
HETATM   15  N   UNL     1     -40.891  56.889 -51.769  1.00  0.00    -0.360 N 
HETATM   16  H   UNL     1     -41.060  56.387 -52.633  1.00  0.00     0.162 HD
HETATM   17  O   UNL     1     -40.452  58.928 -50.802  1.00  0.00    -0.273 OA
BRANCH  15  18
HETATM   18  C   UNL     1     -40.787  56.089 -50.559  1.00  0.00     0.127 C 
BRANCH  18  19
HETATM   19  C   UNL     1     -41.794  54.937 -50.483  1.00  0.00     0.058 C 
BRANCH  19  20
HETATM   20  C   UNL     1     -41.288  53.718 -51.222  1.00  0.00    -0.057 A 
HETATM   21  C   UNL     1     -40.531  52.740 -50.558  1.00  0.00     0.009 A 
HETATM   22  C   UNL     1     -40.005  51.652 -51.260  1.00  0.00     0.025 A 
HETATM   23  C   UNL     1     -40.252  51.529 -52.629  1.00  0.00     0.074 A 
HETATM   24  C   UNL     1     -41.014  52.487 -53.301  1.00  0.00     0.025 A 
HETATM   25  C   UNL     1     -41.532  53.575 -52.596  1.00  0.00     0.009 A 
BRANCH  23  26
HETATM   26  S   UNL     1     -39.512  50.198 -53.533  1.00  0.00     0.239 S 
HETATM   27  O   UNL     1     -38.438  50.719 -54.344  1.00  0.00    -0.206 OA
HETATM   28  O   UNL     1     -39.342  49.071 -52.649  1.00  0.00    -0.206 OA
BRANCH  26  29
HETATM   29  N   UNL     1     -40.736  49.774 -54.601  1.00  0.00    -0.225 NA
HETATM   30  H   UNL     1     -41.596  49.590 -54.083  1.00  0.00     0.136 HD
HETATM   31  H   UNL     1     -40.839  50.500 -55.311  1.00  0.00     0.136 HD
ENDBRANCH  26  29
ENDBRANCH  23  26
ENDBRANCH  19  20
ENDBRANCH  18  19
ENDBRANCH  15  18
ENDBRANCH  13  14
ENDBRANCH  12  13
ENDBRANCH   2  12
BRANCH   1  32
HETATM   32  C   UNL     1     -44.431  58.659 -53.528  1.00  0.00     0.076 A 
HETATM   33  C   UNL     1     -44.132  57.452 -52.879  1.00  0.00     0.096 A 
HETATM   34  C   UNL     1     -44.635  57.243 -51.597  1.00  0.00     0.039 A 
HETATM   35  C   UNL     1     -45.462  58.207 -51.010  1.00  0.00     0.003 A 
HETATM   36  C   UNL     1     -45.784  59.387 -51.692  1.00  0.00     0.002 A 
HETATM   37  C   UNL     1     -45.270  59.622 -52.965  1.00  0.00     0.033 A 
BRANCH  33  38
HETATM   38  O   UNL     1     -43.290  56.572 -53.503  1.00  0.00    -0.349 OA
BRANCH  38  39
HETATM   39  C   UNL     1     -43.940  55.439 -54.100  1.00  0.00     0.171 C 
HETATM   40  C   UNL     1     -43.230  55.070 -55.389  1.00  0.00     0.034 C 
ENDBRANCH  38  39
ENDBRANCH  33  38
ENDBRANCH   1  32
BRANCH   6  41
HETATM   41  N   UNL     1     -45.912  57.928 -55.795  1.00  0.00    -0.384 N 
HETATM   42  H   UNL     1     -46.636  58.580 -55.515  1.00  0.00     0.157 HD
HETATM   43  H   UNL     1     -46.063  56.981 -55.466  1.00  0.00     0.157 HD
ENDBRANCH   6  41
TORSDOF 12
ENDMDL
MODEL 10
REMARK VINA RESULT:      -7.5      2.275      2.869
REMARK  12 active torsions:
REMARK  status: ('A' for Active; 'I' for Inactive)
REMARK    1  A    between atoms: C_2  and  O_3 
REMARK    2  A    between atoms: O_3  and  C_4 
REMARK    3  A    between atoms: C_5  and  N_6 
REMARK    4  A    between atoms: C_7  and  S_8 
REMARK    5  A    between atoms: S_8  and  C_9 
REMARK    6  A    between atoms: C_9  and  C_10 
REMARK       I    between atoms: C_10  and  N_11 
REMARK    7  A    between atoms: N_11  and  C_12 
REMARK    8  A    between atoms: C_12  and  C_13 
REMARK    9  A    between atoms: C_13  and  C_14 
REMARK   10  A    between atoms: C_17  and  S_18 
REMARK   11  A    between atoms: S_18  and  N_19 
REMARK   12  A    between atoms: C_28  and  N_29 
ROOT
HETATM    1  N   UNL     1     -43.479  58.641 -53.770  1.00  0.00    -0.273 N 
HETATM    2  C   UNL     1     -43.028  59.308 -54.867  1.00  0.00     0.177 A 
HETATM    3  N   UNL     1     -42.586  58.729 -56.007  1.00  0.00    -0.204 NA
HETATM    4  C   UNL     1     -42.665  57.400 -55.947  1.00  0.00     0.162 A 
HETATM    5  C   UNL     1     -43.138  56.643 -54.895  1.00  0.00     0.081 A 
HETATM    6  C   UNL     1     -43.601  57.286 -53.735  1.00  0.00     0.124 A 
HETATM    7  N   UNL     1     -42.294  56.527 -56.929  1.00  0.00    -0.260 N 
HETATM    8  H   UNL     1     -41.907  56.744 -57.841  1.00  0.00     0.191 HD
HETATM    9  N   UNL     1     -42.485  55.243 -56.592  1.00  0.00    -0.177 NA
HETATM   10  C   UNL     1     -42.988  55.298 -55.353  1.00  0.00     0.068 A 
HETATM   11  C   UNL     1     -43.298  54.032 -54.639  1.00  0.00     0.073 C 
ENDROOT
BRANCH   2  12
HETATM   12  S   UNL     1     -43.001  61.110 -54.929  1.00  0.00    -0.082 SA
BRANCH  12  13
HETATM   13  C   UNL     1     -43.871  61.379 -56.509  1.00  0.00     0.185 C 
BRANCH  13  14
HETATM   14  C   UNL     1     -42.992  61.988 -57.601  1.00  0.00     0.227 C 
HETATM   15  N   UNL     1     -42.010  61.121 -58.035  1.00  0.00    -0.360 N 
HETATM   16  H   UNL     1     -41.910  60.215 -57.590  1.00  0.00     0.162 HD
HETATM   17  O   UNL     1     -43.160  63.111 -58.072  1.00  0.00    -0.273 OA
BRANCH  15  18
HETATM   18  C   UNL     1     -41.183  61.369 -59.204  1.00  0.00     0.127 C 
BRANCH  18  19
HETATM   19  C   UNL     1     -41.841  60.977 -60.531  1.00  0.00     0.058 C 
BRANCH  19  20
HETATM   20  C   UNL     1     -42.617  59.686 -60.396  1.00  0.00    -0.057 A 
HETATM   21  C   UNL     1     -41.952  58.452 -60.326  1.00  0.00     0.009 A 
HETATM   22  C   UNL     1     -42.675  57.258 -60.273  1.00  0.00     0.025 A 
HETATM   23  C   UNL     1     -44.070  57.295 -60.270  1.00  0.00     0.074 A 
HETATM   24  C   UNL     1     -44.748  58.515 -60.326  1.00  0.00     0.025 A 
HETATM   25  C   UNL     1     -44.021  59.705 -60.385  1.00  0.00     0.009 A 
BRANCH  23  26
HETATM   26  S   UNL     1     -44.984  55.779 -60.292  1.00  0.00     0.239 S 
HETATM   27  O   UNL     1     -46.350  56.045 -59.909  1.00  0.00    -0.206 OA
HETATM   28  O   UNL     1     -44.642  55.045 -61.486  1.00  0.00    -0.206 OA
BRANCH  26  29
HETATM   29  N   UNL     1     -44.301  54.935 -59.012  1.00  0.00    -0.225 NA
HETATM   30  H   UNL     1     -44.566  55.376 -58.129  1.00  0.00     0.136 HD
HETATM   31  H   UNL     1     -44.565  53.951 -59.068  1.00  0.00     0.136 HD
ENDBRANCH  26  29
ENDBRANCH  23  26
ENDBRANCH  19  20
ENDBRANCH  18  19
ENDBRANCH  15  18
ENDBRANCH  13  14
ENDBRANCH  12  13
ENDBRANCH   2  12
BRANCH   1  32
HETATM   32  C   UNL     1     -43.718  59.370 -52.556  1.00  0.00     0.076 A 
HETATM   33  C   UNL     1     -42.647  59.551 -51.667  1.00  0.00     0.096 A 
HETATM   34  C   UNL     1     -42.868  60.271 -50.496  1.00  0.00     0.039 A 
HETATM   35  C   UNL     1     -44.151  60.749 -50.207  1.00  0.00     0.003 A 
HETATM   36  C   UNL     1     -45.216  60.521 -51.086  1.00  0.00     0.002 A 
HETATM   37  C   UNL     1     -45.007  59.823 -52.273  1.00  0.00     0.033 A 
BRANCH  33  38
HETATM   38  O   UNL     1     -41.415  59.083 -52.035  1.00  0.00    -0.349 OA
BRANCH  38  39
HETATM   39  C   UNL     1     -40.634  58.539 -50.959  1.00  0.00     0.171 C 
HETATM   40  C   UNL     1     -41.025  57.091 -50.732  1.00  0.00     0.034 C 
ENDBRANCH  38  39
ENDBRANCH  33  38
ENDBRANCH   1  32
BRANCH   6  41
HETATM   41  N   UNL     1     -44.120  56.596 -52.639  1.00  0.00    -0.384 N 
HETATM   42  H   UNL     1     -43.458  56.182 -51.992  1.00  0.00     0.157 HD
HETATM   43  H   UNL     1     -44.981  56.070 -52.739  1.00  0.00     0.157 HD
ENDBRANCH   6  41
TORSDOF 12
ENDMDL
