MODEL 1
REMARK VINA RESULT:      -8.5      0.000      0.000
REMARK  3 active torsions:
REMARK  status: ('A' for Active; 'I' for Inactive)
REMARK    1  A    between atoms: C_4  and  N_5 
REMARK       I    between atoms: N_5  and  C_6 
REMARK    2  A    between atoms: C_6  and  C_8 
REMARK    3  A    between atoms: C_21  and  C_22 
ROOT
HETATM    1  F   UNL     1     -44.294  59.185 -56.853  1.00  0.00    -0.205 F 
HETATM    2  C   UNL     1     -43.856  57.963 -57.196  1.00  0.00     0.132 A 
HETATM    3  C   UNL     1     -43.438  57.117 -56.162  1.00  0.00     0.072 A 
HETATM    4  C   UNL     1     -42.981  55.831 -56.442  1.00  0.00     0.040 A 
HETATM    5  C   UNL     1     -42.955  55.410 -57.773  1.00  0.00     0.072 A 
HETATM    6  C   UNL     1     -43.385  56.262 -58.795  1.00  0.00     0.132 A 
HETATM    7  F   UNL     1     -43.336  55.792 -60.052  1.00  0.00    -0.205 F 
HETATM    8  C   UNL     1     -43.840  57.557 -58.533  1.00  0.00     0.054 A 
ENDROOT
BRANCH   4   9
HETATM    9  N   UNL     1     -42.542  54.911 -55.464  1.00  0.00    -0.327 N 
HETATM   10  C   UNL     1     -41.504  55.078 -54.560  1.00  0.00     0.228 C 
HETATM   11  O   UNL     1     -40.781  56.065 -54.481  1.00  0.00    -0.273 OA
HETATM   12  H   UNL     1     -43.043  54.030 -55.430  1.00  0.00     0.169 HD
BRANCH  10  13
HETATM   13  C   UNL     1     -41.324  53.881 -53.637  1.00  0.00     0.107 C 
HETATM   14  C   UNL     1     -40.502  54.248 -52.408  1.00  0.00     0.190 C 
HETATM   15  O   UNL     1     -40.494  53.185 -51.450  1.00  0.00    -0.350 OA
HETATM   16  C   UNL     1     -40.164  51.962 -51.975  1.00  0.00     0.075 A 
HETATM   17  C   UNL     1     -39.805  50.974 -51.058  1.00  0.00     0.037 A 
HETATM   18  C   UNL     1     -40.208  51.674 -53.345  1.00  0.00    -0.024 A 
HETATM   19  C   UNL     1     -39.451  49.702 -51.504  1.00  0.00     0.003 A 
HETATM   20  C   UNL     1     -39.460  49.415 -52.868  1.00  0.00     0.001 A 
HETATM   21  C   UNL     1     -39.837  50.397 -53.786  1.00  0.00     0.010 A 
HETATM   22  C   UNL     1     -40.611  52.726 -54.340  1.00  0.00     0.057 C 
ENDBRANCH  10  13
ENDBRANCH   4   9
BRANCH   8  23
HETATM   23  C   UNL     1     -44.283  58.423 -59.613  1.00  0.00     0.016 A 
HETATM   24  C   UNL     1     -43.616  59.474 -60.291  1.00  0.00     0.152 A 
HETATM   25  N   UNL     1     -44.370  60.045 -61.234  1.00  0.00    -0.187 NA
HETATM   26  N   UNL     1     -45.526  59.367 -61.164  1.00  0.00    -0.289 N 
HETATM   27  H   UNL     1     -46.275  59.624 -61.799  1.00  0.00     0.188 HD
HETATM   28  C   UNL     1     -45.528  58.395 -60.206  1.00  0.00     0.123 A 
ENDBRANCH   8  23
TORSDOF 3
ENDMDL
MODEL 2
REMARK VINA RESULT:      -8.4      5.170      6.509
REMARK  3 active torsions:
REMARK  status: ('A' for Active; 'I' for Inactive)
REMARK    1  A    between atoms: C_4  and  N_5 
REMARK       I    between atoms: N_5  and  C_6 
REMARK    2  A    between atoms: C_6  and  C_8 
REMARK    3  A    between atoms: C_21  and  C_22 
ROOT
HETATM    1  F   UNL     1     -45.140  59.124 -51.659  1.00  0.00    -0.205 F 
HETATM    2  C   UNL     1     -43.835  58.876 -51.459  1.00  0.00     0.132 A 
HETATM    3  C   UNL     1     -43.344  57.638 -51.891  1.00  0.00     0.072 A 
HETATM    4  C   UNL     1     -41.998  57.316 -51.726  1.00  0.00     0.040 A 
HETATM    5  C   UNL     1     -41.158  58.256 -51.125  1.00  0.00     0.072 A 
HETATM    6  C   UNL     1     -41.661  59.492 -50.707  1.00  0.00     0.132 A 
HETATM    7  F   UNL     1     -40.798  60.349 -50.140  1.00  0.00    -0.205 F 
HETATM    8  C   UNL     1     -43.008  59.829 -50.858  1.00  0.00     0.054 A 
ENDROOT
BRANCH   4   9
HETATM    9  N   UNL     1     -41.416  56.095 -52.131  1.00  0.00    -0.327 N 
HETATM   10  C   UNL     1     -41.138  55.687 -53.428  1.00  0.00     0.228 C 
HETATM   11  O   UNL     1     -41.376  56.331 -54.444  1.00  0.00    -0.273 OA
HETATM   12  H   UNL     1     -41.185  55.447 -51.387  1.00  0.00     0.169 HD
BRANCH  10  13
HETATM   13  C   UNL     1     -40.490  54.311 -53.489  1.00  0.00     0.107 C 
HETATM   14  C   UNL     1     -41.157  53.430 -54.537  1.00  0.00     0.190 C 
HETATM   15  O   UNL     1     -40.433  52.211 -54.732  1.00  0.00    -0.350 OA
HETATM   16  C   UNL     1     -40.140  51.543 -53.571  1.00  0.00     0.075 A 
HETATM   17  C   UNL     1     -39.753  50.211 -53.708  1.00  0.00     0.037 A 
HETATM   18  C   UNL     1     -40.182  52.141 -52.306  1.00  0.00    -0.024 A 
HETATM   19  C   UNL     1     -39.440  49.454 -52.580  1.00  0.00     0.003 A 
HETATM   20  C   UNL     1     -39.511  50.031 -51.313  1.00  0.00     0.001 A 
HETATM   21  C   UNL     1     -39.881  51.370 -51.175  1.00  0.00     0.010 A 
HETATM   22  C   UNL     1     -40.580  53.582 -52.148  1.00  0.00     0.057 C 
ENDBRANCH  10  13
ENDBRANCH   4   9
BRANCH   8  23
HETATM   23  C   UNL     1     -43.506  61.122 -50.417  1.00  0.00     0.016 A 
HETATM   24  C   UNL     1     -44.279  61.480 -49.285  1.00  0.00     0.152 A 
HETATM   25  N   UNL     1     -44.545  62.787 -49.230  1.00  0.00    -0.187 NA
HETATM   26  N   UNL     1     -43.951  63.275 -50.329  1.00  0.00    -0.289 N 
HETATM   27  H   UNL     1     -44.015  64.271 -50.510  1.00  0.00     0.188 HD
HETATM   28  C   UNL     1     -43.325  62.320 -51.076  1.00  0.00     0.123 A 
ENDBRANCH   8  23
TORSDOF 3
ENDMDL
MODEL 3
REMARK VINA RESULT:      -8.4      5.561      6.282
REMARK  3 active torsions:
REMARK  status: ('A' for Active; 'I' for Inactive)
REMARK    1  A    between atoms: C_4  and  N_5 
REMARK       I    between atoms: N_5  and  C_6 
REMARK    2  A    between atoms: C_6  and  C_8 
REMARK    3  A    between atoms: C_21  and  C_22 
ROOT
HETATM    1  F   UNL     1     -41.316  60.741 -50.462  1.00  0.00    -0.205 F 
HETATM    2  C   UNL     1     -42.213  59.791 -50.772  1.00  0.00     0.132 A 
HETATM    3  C   UNL     1     -41.738  58.483 -50.920  1.00  0.00     0.072 A 
HETATM    4  C   UNL     1     -42.613  57.444 -51.230  1.00  0.00     0.040 A 
HETATM    5  C   UNL     1     -43.969  57.741 -51.386  1.00  0.00     0.072 A 
HETATM    6  C   UNL     1     -44.431  59.050 -51.226  1.00  0.00     0.132 A 
HETATM    7  F   UNL     1     -45.746  59.265 -51.387  1.00  0.00    -0.205 F 
HETATM    8  C   UNL     1     -43.567  60.105 -50.921  1.00  0.00     0.054 A 
ENDROOT
BRANCH   4   9
HETATM    9  N   UNL     1     -42.223  56.096 -51.397  1.00  0.00    -0.327 N 
HETATM   10  C   UNL     1     -41.452  55.565 -52.420  1.00  0.00     0.228 C 
HETATM   11  O   UNL     1     -40.995  56.195 -53.368  1.00  0.00    -0.273 OA
HETATM   12  H   UNL     1     -42.553  55.451 -50.688  1.00  0.00     0.169 HD
BRANCH  10  13
HETATM   13  C   UNL     1     -41.213  54.070 -52.267  1.00  0.00     0.107 C 
HETATM   14  C   UNL     1     -40.133  53.786 -51.231  1.00  0.00     0.190 C 
HETATM   15  O   UNL     1     -40.041  52.386 -50.945  1.00  0.00    -0.350 OA
HETATM   16  C   UNL     1     -39.943  51.593 -52.059  1.00  0.00     0.075 A 
HETATM   17  C   UNL     1     -39.510  50.285 -51.848  1.00  0.00     0.037 A 
HETATM   18  C   UNL     1     -40.284  52.027 -53.346  1.00  0.00    -0.024 A 
HETATM   19  C   UNL     1     -39.378  49.410 -52.925  1.00  0.00     0.003 A 
HETATM   20  C   UNL     1     -39.683  49.842 -54.214  1.00  0.00     0.001 A 
HETATM   21  C   UNL     1     -40.135  51.146 -54.425  1.00  0.00     0.010 A 
HETATM   22  C   UNL     1     -40.770  53.429 -53.582  1.00  0.00     0.057 C 
ENDBRANCH  10  13
ENDBRANCH   4   9
BRANCH   8  23
HETATM   23  C   UNL     1     -44.072  61.459 -50.758  1.00  0.00     0.016 A 
HETATM   24  C   UNL     1     -44.306  62.481 -51.711  1.00  0.00     0.152 A 
HETATM   25  N   UNL     1     -44.775  63.605 -51.162  1.00  0.00    -0.187 NA
HETATM   26  N   UNL     1     -44.839  63.312 -49.854  1.00  0.00    -0.289 N 
HETATM   27  H   UNL     1     -45.175  64.026 -49.216  1.00  0.00     0.188 HD
HETATM   28  C   UNL     1     -44.422  62.046 -49.560  1.00  0.00     0.123 A 
ENDBRANCH   8  23
TORSDOF 3
ENDMDL
MODEL 4
REMARK VINA RESULT:      -8.3      1.514      2.335
REMARK  3 active torsions:
REMARK  status: ('A' for Active; 'I' for Inactive)
REMARK    1  A    between atoms: C_4  and  N_5 
REMARK       I    between atoms: N_5  and  C_6 
REMARK    2  A    between atoms: C_6  and  C_8 
REMARK    3  A    between atoms: C_21  and  C_22 
ROOT
HETATM    1  F   UNL     1     -43.877  56.669 -60.739  1.00  0.00    -0.205 F 
HETATM    2  C   UNL     1     -43.307  57.162 -59.627  1.00  0.00     0.132 A 
HETATM    3  C   UNL     1     -43.093  56.273 -58.568  1.00  0.00     0.072 A 
HETATM    4  C   UNL     1     -42.497  56.712 -57.387  1.00  0.00     0.040 A 
HETATM    5  C   UNL     1     -42.118  58.053 -57.292  1.00  0.00     0.072 A 
HETATM    6  C   UNL     1     -42.330  58.927 -58.362  1.00  0.00     0.132 A 
HETATM    7  F   UNL     1     -41.939  60.202 -58.204  1.00  0.00    -0.205 F 
HETATM    8  C   UNL     1     -42.932  58.506 -59.550  1.00  0.00     0.054 A 
ENDROOT
BRANCH   4   9
HETATM    9  N   UNL     1     -42.241  55.887 -56.270  1.00  0.00    -0.327 N 
HETATM   10  C   UNL     1     -42.984  55.802 -55.101  1.00  0.00     0.228 C 
HETATM   11  O   UNL     1     -43.989  56.457 -54.847  1.00  0.00    -0.273 OA
HETATM   12  H   UNL     1     -41.418  55.299 -56.334  1.00  0.00     0.169 HD
BRANCH  10  13
HETATM   13  C   UNL     1     -42.422  54.788 -54.115  1.00  0.00     0.107 C 
HETATM   14  C   UNL     1     -41.517  55.456 -53.088  1.00  0.00     0.190 C 
HETATM   15  O   UNL     1     -41.143  54.544 -52.051  1.00  0.00    -0.350 OA
HETATM   16  C   UNL     1     -40.650  53.349 -52.507  1.00  0.00     0.075 A 
HETATM   17  C   UNL     1     -39.960  52.571 -51.579  1.00  0.00     0.037 A 
HETATM   18  C   UNL     1     -40.841  52.887 -53.816  1.00  0.00    -0.024 A 
HETATM   19  C   UNL     1     -39.421  51.342 -51.959  1.00  0.00     0.003 A 
HETATM   20  C   UNL     1     -39.577  50.889 -53.267  1.00  0.00     0.001 A 
HETATM   21  C   UNL     1     -40.284  51.658 -54.194  1.00  0.00     0.010 A 
HETATM   22  C   UNL     1     -41.600  53.708 -54.820  1.00  0.00     0.057 C 
ENDBRANCH  10  13
ENDBRANCH   4   9
BRANCH   8  23
HETATM   23  C   UNL     1     -43.139  59.435 -60.650  1.00  0.00     0.016 A 
HETATM   24  C   UNL     1     -42.211  60.082 -61.503  1.00  0.00     0.152 A 
HETATM   25  N   UNL     1     -42.799  60.878 -62.401  1.00  0.00    -0.187 NA
HETATM   26  N   UNL     1     -44.106  60.750 -62.125  1.00  0.00    -0.289 N 
HETATM   27  H   UNL     1     -44.769  61.272 -62.688  1.00  0.00     0.188 HD
HETATM   28  C   UNL     1     -44.361  59.907 -61.083  1.00  0.00     0.123 A 
ENDBRANCH   8  23
TORSDOF 3
ENDMDL
MODEL 5
REMARK VINA RESULT:      -8.3      5.243      6.145
REMARK  3 active torsions:
REMARK  status: ('A' for Active; 'I' for Inactive)
REMARK    1  A    between atoms: C_4  and  N_5 
REMARK       I    between atoms: N_5  and  C_6 
REMARK    2  A    between atoms: C_6  and  C_8 
REMARK    3  A    between atoms: C_21  and  C_22 
ROOT
HETATM    1  F   UNL     1     -45.132  59.881 -52.396  1.00  0.00    -0.205 F 
HETATM    2  C   UNL     1     -43.968  59.432 -51.899  1.00  0.00     0.132 A 
HETATM    3  C   UNL     1     -43.695  58.066 -52.037  1.00  0.00     0.072 A 
HETATM    4  C   UNL     1     -42.502  57.532 -51.554  1.00  0.00     0.040 A 
HETATM    5  C   UNL     1     -41.590  58.391 -50.937  1.00  0.00     0.072 A 
HETATM    6  C   UNL     1     -41.872  59.755 -50.815  1.00  0.00     0.132 A 
HETATM    7  F   UNL     1     -40.950  60.524 -50.214  1.00  0.00    -0.205 F 
HETATM    8  C   UNL     1     -43.065  60.307 -51.287  1.00  0.00     0.054 A 
ENDROOT
BRANCH   4   9
HETATM    9  N   UNL     1     -42.143  56.169 -51.650  1.00  0.00    -0.327 N 
HETATM   10  C   UNL     1     -41.520  55.538 -52.717  1.00  0.00     0.228 C 
HETATM   11  O   UNL     1     -41.192  56.075 -53.770  1.00  0.00    -0.273 OA
HETATM   12  H   UNL     1     -42.376  55.594 -50.849  1.00  0.00     0.169 HD
BRANCH  10  13
HETATM   13  C   UNL     1     -41.268  54.059 -52.463  1.00  0.00     0.107 C 
HETATM   14  C   UNL     1     -40.253  53.853 -51.346  1.00  0.00     0.190 C 
HETATM   15  O   UNL     1     -40.157  52.473 -50.976  1.00  0.00    -0.350 OA
HETATM   16  C   UNL     1     -39.975  51.621 -52.034  1.00  0.00     0.075 A 
HETATM   17  C   UNL     1     -39.537  50.335 -51.722  1.00  0.00     0.037 A 
HETATM   18  C   UNL     1     -40.239  51.976 -53.363  1.00  0.00    -0.024 A 
HETATM   19  C   UNL     1     -39.321  49.404 -52.737  1.00  0.00     0.003 A 
HETATM   20  C   UNL     1     -39.550  49.758 -54.066  1.00  0.00     0.001 A 
HETATM   21  C   UNL     1     -40.007  51.040 -54.379  1.00  0.00     0.010 A 
HETATM   22  C   UNL     1     -40.731  53.354 -53.710  1.00  0.00     0.057 C 
ENDBRANCH  10  13
ENDBRANCH   4   9
BRANCH   8  23
HETATM   23  C   UNL     1     -43.334  61.729 -51.150  1.00  0.00     0.016 A 
HETATM   24  C   UNL     1     -43.288  62.776 -52.104  1.00  0.00     0.152 A 
HETATM   25  N   UNL     1     -43.599  63.967 -51.583  1.00  0.00    -0.187 NA
HETATM   26  N   UNL     1     -43.840  63.691 -50.292  1.00  0.00    -0.289 N 
HETATM   27  H   UNL     1     -44.102  64.454 -49.678  1.00  0.00     0.188 HD
HETATM   28  C   UNL     1     -43.686  62.371 -49.982  1.00  0.00     0.123 A 
ENDBRANCH   8  23
TORSDOF 3
ENDMDL
MODEL 6
REMARK VINA RESULT:      -8.1      3.316      9.362
REMARK  3 active torsions:
REMARK  status: ('A' for Active; 'I' for Inactive)
REMARK    1  A    between atoms: C_4  and  N_5 
REMARK       I    between atoms: N_5  and  C_6 
REMARK    2  A    between atoms: C_6  and  C_8 
REMARK    3  A    between atoms: C_21  and  C_22 
ROOT
HETATM    1  F   UNL     1     -43.504  53.983 -52.475  1.00  0.00    -0.205 F 
HETATM    2  C   UNL     1     -42.867  54.289 -53.617  1.00  0.00     0.132 A 
HETATM    3  C   UNL     1     -43.596  54.980 -54.592  1.00  0.00     0.072 A 
HETATM    4  C   UNL     1     -42.996  55.340 -55.798  1.00  0.00     0.040 A 
HETATM    5  C   UNL     1     -41.658  54.999 -56.003  1.00  0.00     0.072 A 
HETATM    6  C   UNL     1     -40.940  54.318 -55.016  1.00  0.00     0.132 A 
HETATM    7  F   UNL     1     -39.657  54.024 -55.277  1.00  0.00    -0.205 F 
HETATM    8  C   UNL     1     -41.526  53.943 -53.804  1.00  0.00     0.054 A 
ENDROOT
BRANCH   4   9
HETATM    9  N   UNL     1     -43.653  56.037 -56.837  1.00  0.00    -0.327 N 
HETATM   10  C   UNL     1     -43.427  57.344 -57.245  1.00  0.00     0.228 C 
HETATM   11  O   UNL     1     -42.617  58.117 -56.744  1.00  0.00    -0.273 OA
HETATM   12  H   UNL     1     -44.371  55.520 -57.330  1.00  0.00     0.169 HD
BRANCH  10  13
HETATM   13  C   UNL     1     -44.309  57.759 -58.413  1.00  0.00     0.107 C 
HETATM   14  C   UNL     1     -45.299  58.842 -58.002  1.00  0.00     0.190 C 
HETATM   15  O   UNL     1     -45.995  59.369 -59.136  1.00  0.00    -0.350 OA
HETATM   16  C   UNL     1     -46.547  58.412 -59.949  1.00  0.00     0.075 A 
HETATM   17  C   UNL     1     -47.510  58.854 -60.855  1.00  0.00     0.037 A 
HETATM   18  C   UNL     1     -46.165  57.065 -59.922  1.00  0.00    -0.024 A 
HETATM   19  C   UNL     1     -48.127  57.948 -61.717  1.00  0.00     0.003 A 
HETATM   20  C   UNL     1     -47.777  56.600 -61.676  1.00  0.00     0.001 A 
HETATM   21  C   UNL     1     -46.800  56.159 -60.781  1.00  0.00     0.010 A 
HETATM   22  C   UNL     1     -45.115  56.581 -58.962  1.00  0.00     0.057 C 
ENDBRANCH  10  13
ENDBRANCH   4   9
BRANCH   8  23
HETATM   23  C   UNL     1     -40.758  53.237 -52.792  1.00  0.00     0.016 A 
HETATM   24  C   UNL     1     -40.086  51.991 -52.841  1.00  0.00     0.152 A 
HETATM   25  N   UNL     1     -39.490  51.676 -51.688  1.00  0.00    -0.187 NA
HETATM   26  N   UNL     1     -39.781  52.715 -50.891  1.00  0.00    -0.289 N 
HETATM   27  H   UNL     1     -39.429  52.706 -49.939  1.00  0.00     0.188 HD
HETATM   28  C   UNL     1     -40.543  53.669 -51.500  1.00  0.00     0.123 A 
ENDBRANCH   8  23
TORSDOF 3
ENDMDL
MODEL 7
REMARK VINA RESULT:      -8.0      5.229      9.342
REMARK  3 active torsions:
REMARK  status: ('A' for Active; 'I' for Inactive)
REMARK    1  A    between atoms: C_4  and  N_5 
REMARK       I    between atoms: N_5  and  C_6 
REMARK    2  A    between atoms: C_6  and  C_8 
REMARK    3  A    between atoms: C_21  and  C_22 
ROOT
HETATM    1  F   UNL     1     -39.865  53.898 -55.413  1.00  0.00    -0.205 F 
HETATM    2  C   UNL     1     -40.493  54.218 -54.270  1.00  0.00     0.132 A 
HETATM    3  C   UNL     1     -40.952  55.533 -54.137  1.00  0.00     0.072 A 
HETATM    4  C   UNL     1     -41.623  55.933 -52.982  1.00  0.00     0.040 A 
HETATM    5  C   UNL     1     -41.825  54.993 -51.971  1.00  0.00     0.072 A 
HETATM    6  C   UNL     1     -41.370  53.680 -52.122  1.00  0.00     0.132 A 
HETATM    7  F   UNL     1     -41.600  52.826 -51.112  1.00  0.00    -0.205 F 
HETATM    8  C   UNL     1     -40.690  53.262 -53.269  1.00  0.00     0.054 A 
ENDROOT
BRANCH   4   9
HETATM    9  N   UNL     1     -42.121  57.237 -52.762  1.00  0.00    -0.327 N 
HETATM   10  C   UNL     1     -43.414  57.690 -52.981  1.00  0.00     0.228 C 
HETATM   11  O   UNL     1     -44.338  57.018 -53.426  1.00  0.00    -0.273 OA
HETATM   12  H   UNL     1     -41.452  57.912 -52.411  1.00  0.00     0.169 HD
BRANCH  10  13
HETATM   13  C   UNL     1     -43.598  59.155 -52.613  1.00  0.00     0.107 C 
HETATM   14  C   UNL     1     -42.344  59.965 -52.919  1.00  0.00     0.190 C 
HETATM   15  O   UNL     1     -42.576  61.367 -52.755  1.00  0.00    -0.350 OA
HETATM   16  C   UNL     1     -43.157  61.703 -51.560  1.00  0.00     0.075 A 
HETATM   17  C   UNL     1     -43.093  63.048 -51.199  1.00  0.00     0.037 A 
HETATM   18  C   UNL     1     -43.817  60.780 -50.738  1.00  0.00    -0.024 A 
HETATM   19  C   UNL     1     -43.655  63.477 -49.997  1.00  0.00     0.003 A 
HETATM   20  C   UNL     1     -44.286  62.561 -49.157  1.00  0.00     0.001 A 
HETATM   21  C   UNL     1     -44.367  61.216 -49.526  1.00  0.00     0.010 A 
HETATM   22  C   UNL     1     -43.909  59.331 -51.127  1.00  0.00     0.057 C 
ENDBRANCH  10  13
ENDBRANCH   4   9
BRANCH   8  23
HETATM   23  C   UNL     1     -40.228  51.890 -53.403  1.00  0.00     0.016 A 
HETATM   24  C   UNL     1     -40.436  50.939 -54.433  1.00  0.00     0.152 A 
HETATM   25  N   UNL     1     -39.845  49.767 -54.185  1.00  0.00    -0.187 NA
HETATM   26  N   UNL     1     -39.259  49.958 -52.992  1.00  0.00    -0.289 N 
HETATM   27  H   UNL     1     -38.736  49.190 -52.585  1.00  0.00     0.188 HD
HETATM   28  C   UNL     1     -39.466  51.205 -52.480  1.00  0.00     0.123 A 
ENDBRANCH   8  23
TORSDOF 3
ENDMDL
MODEL 8
REMARK VINA RESULT:      -7.7      5.592      6.899
REMARK  3 active torsions:
REMARK  status: ('A' for Active; 'I' for Inactive)
REMARK    1  A    between atoms: C_4  and  N_5 
REMARK       I    between atoms: N_5  and  C_6 
REMARK    2  A    between atoms: C_6  and  C_8 
REMARK    3  A    between atoms: C_21  and  C_22 
ROOT
HETATM    1  F   UNL     1     -46.654  60.032 -51.556  1.00  0.00    -0.205 F 
HETATM    2  C   UNL     1     -45.321  59.926 -51.425  1.00  0.00     0.132 A 
HETATM    3  C   UNL     1     -44.722  58.750 -51.890  1.00  0.00     0.072 A 
HETATM    4  C   UNL     1     -43.342  58.576 -51.796  1.00  0.00     0.040 A 
HETATM    5  C   UNL     1     -42.579  59.600 -51.233  1.00  0.00     0.072 A 
HETATM    6  C   UNL     1     -43.190  60.774 -50.782  1.00  0.00     0.132 A 
HETATM    7  F   UNL     1     -42.397  61.720 -50.254  1.00  0.00    -0.205 F 
HETATM    8  C   UNL     1     -44.572  60.964 -50.862  1.00  0.00     0.054 A 
ENDROOT
BRANCH   4   9
HETATM    9  N   UNL     1     -42.653  57.425 -52.239  1.00  0.00    -0.327 N 
HETATM   10  C   UNL     1     -42.242  56.345 -51.471  1.00  0.00     0.228 C 
HETATM   11  O   UNL     1     -42.402  56.229 -50.261  1.00  0.00    -0.273 OA
HETATM   12  H   UNL     1     -42.433  57.395 -53.227  1.00  0.00     0.169 HD
BRANCH  10  13
HETATM   13  C   UNL     1     -41.541  55.270 -52.289  1.00  0.00     0.107 C 
HETATM   14  C   UNL     1     -42.484  54.647 -53.310  1.00  0.00     0.190 C 
HETATM   15  O   UNL     1     -41.784  53.778 -54.205  1.00  0.00    -0.350 OA
HETATM   16  C   UNL     1     -40.982  52.858 -53.580  1.00  0.00     0.075 A 
HETATM   17  C   UNL     1     -40.553  51.784 -54.357  1.00  0.00     0.037 A 
HETATM   18  C   UNL     1     -40.568  52.978 -52.247  1.00  0.00    -0.024 A 
HETATM   19  C   UNL     1     -39.738  50.799 -53.801  1.00  0.00     0.003 A 
HETATM   20  C   UNL     1     -39.347  50.892 -52.466  1.00  0.00     0.001 A 
HETATM   21  C   UNL     1     -39.760  51.977 -51.691  1.00  0.00     0.010 A 
HETATM   22  C   UNL     1     -41.008  54.142 -51.405  1.00  0.00     0.057 C 
ENDBRANCH  10  13
ENDBRANCH   4   9
BRANCH   8  23
HETATM   23  C   UNL     1     -45.184  62.194 -50.388  1.00  0.00     0.016 A 
HETATM   24  C   UNL     1     -45.599  63.353 -51.090  1.00  0.00     0.152 A 
HETATM   25  N   UNL     1     -46.117  64.288 -50.289  1.00  0.00    -0.187 NA
HETATM   26  N   UNL     1     -46.033  63.737 -49.068  1.00  0.00    -0.289 N 
HETATM   27  H   UNL     1     -46.374  64.270 -48.275  1.00  0.00     0.188 HD
HETATM   28  C   UNL     1     -45.475  62.492 -49.073  1.00  0.00     0.123 A 
ENDBRANCH   8  23
TORSDOF 3
ENDMDL
MODEL 9
REMARK VINA RESULT:      -7.7      3.414      9.588
REMARK  3 active torsions:
REMARK  status: ('A' for Active; 'I' for Inactive)
REMARK    1  A    between atoms: C_4  and  N_5 
REMARK       I    between atoms: N_5  and  C_6 
REMARK    2  A    between atoms: C_6  and  C_8 
REMARK    3  A    between atoms: C_21  and  C_22 
ROOT
HETATM    1  F   UNL     1     -41.587  52.282 -54.613  1.00  0.00    -0.205 F 
HETATM    2  C   UNL     1     -41.486  53.611 -54.447  1.00  0.00     0.132 A 
HETATM    3  C   UNL     1     -41.785  54.420 -55.549  1.00  0.00     0.072 A 
HETATM    4  C   UNL     1     -41.713  55.808 -55.446  1.00  0.00     0.040 A 
HETATM    5  C   UNL     1     -41.339  56.366 -54.222  1.00  0.00     0.072 A 
HETATM    6  C   UNL     1     -41.052  55.545 -53.127  1.00  0.00     0.132 A 
HETATM    7  F   UNL     1     -40.702  56.147 -51.979  1.00  0.00    -0.205 F 
HETATM    8  C   UNL     1     -41.113  54.152 -53.213  1.00  0.00     0.054 A 
ENDROOT
BRANCH   4   9
HETATM    9  N   UNL     1     -41.998  56.701 -56.503  1.00  0.00    -0.327 N 
HETATM   10  C   UNL     1     -43.189  57.371 -56.738  1.00  0.00     0.228 C 
HETATM   11  O   UNL     1     -44.206  57.276 -56.059  1.00  0.00    -0.273 OA
HETATM   12  H   UNL     1     -41.245  56.859 -57.162  1.00  0.00     0.169 HD
BRANCH  10  13
HETATM   13  C   UNL     1     -43.131  58.270 -57.964  1.00  0.00     0.107 C 
HETATM   14  C   UNL     1     -42.672  57.499 -59.196  1.00  0.00     0.190 C 
HETATM   15  O   UNL     1     -42.799  58.288 -60.383  1.00  0.00    -0.350 OA
HETATM   16  C   UNL     1     -42.239  59.536 -60.288  1.00  0.00     0.075 A 
HETATM   17  C   UNL     1     -42.025  60.208 -61.490  1.00  0.00     0.037 A 
HETATM   18  C   UNL     1     -41.919  60.146 -59.068  1.00  0.00    -0.024 A 
HETATM   19  C   UNL     1     -41.455  61.481 -61.487  1.00  0.00     0.003 A 
HETATM   20  C   UNL     1     -41.104  62.083 -60.281  1.00  0.00     0.001 A 
HETATM   21  C   UNL     1     -41.334  61.419 -59.075  1.00  0.00     0.010 A 
HETATM   22  C   UNL     1     -42.163  59.437 -57.765  1.00  0.00     0.057 C 
ENDBRANCH  10  13
ENDBRANCH   4   9
BRANCH   8  23
HETATM   23  C   UNL     1     -40.812  53.320 -52.060  1.00  0.00     0.016 A 
HETATM   24  C   UNL     1     -39.922  52.227 -51.912  1.00  0.00     0.152 A 
HETATM   25  N   UNL     1     -39.932  51.712 -50.680  1.00  0.00    -0.187 NA
HETATM   26  N   UNL     1     -40.832  52.467 -50.031  1.00  0.00    -0.289 N 
HETATM   27  H   UNL     1     -41.017  52.263 -49.055  1.00  0.00     0.188 HD
HETATM   28  C   UNL     1     -41.392  53.435 -50.813  1.00  0.00     0.123 A 
ENDBRANCH   8  23
TORSDOF 3
ENDMDL
MODEL 10
REMARK VINA RESULT:      -7.5      1.616      2.306
REMARK  3 active torsions:
REMARK  status: ('A' for Active; 'I' for Inactive)
REMARK    1  A    between atoms: C_4  and  N_5 
REMARK       I    between atoms: N_5  and  C_6 
REMARK    2  A    between atoms: C_6  and  C_8 
REMARK    3  A    between atoms: C_21  and  C_22 
ROOT
HETATM    1  F   UNL     1     -42.329  60.377 -58.891  1.00  0.00    -0.205 F 
HETATM    2  C   UNL     1     -42.789  59.147 -58.605  1.00  0.00     0.132 A 
HETATM    3  C   UNL     1     -42.063  58.391 -57.677  1.00  0.00     0.072 A 
HETATM    4  C   UNL     1     -42.487  57.111 -57.324  1.00  0.00     0.040 A 
HETATM    5  C   UNL     1     -43.649  56.608 -57.914  1.00  0.00     0.072 A 
HETATM    6  C   UNL     1     -44.368  57.379 -58.832  1.00  0.00     0.132 A 
HETATM    7  F   UNL     1     -45.478  56.837 -59.358  1.00  0.00    -0.205 F 
HETATM    8  C   UNL     1     -43.955  58.662 -59.202  1.00  0.00     0.054 A 
ENDROOT
BRANCH   4   9
HETATM    9  N   UNL     1     -41.820  56.278 -56.399  1.00  0.00    -0.327 N 
HETATM   10  C   UNL     1     -41.909  56.320 -55.015  1.00  0.00     0.228 C 
HETATM   11  O   UNL     1     -42.582  57.116 -54.368  1.00  0.00    -0.273 OA
HETATM   12  H   UNL     1     -41.205  55.578 -56.798  1.00  0.00     0.169 HD
BRANCH  10  13
HETATM   13  C   UNL     1     -41.062  55.254 -54.335  1.00  0.00     0.107 C 
HETATM   14  C   UNL     1     -41.072  53.951 -55.124  1.00  0.00     0.190 C 
HETATM   15  O   UNL     1     -40.130  53.013 -54.594  1.00  0.00    -0.350 OA
HETATM   16  C   UNL     1     -40.229  52.825 -53.240  1.00  0.00     0.075 A 
HETATM   17  C   UNL     1     -39.592  51.696 -52.727  1.00  0.00     0.037 A 
HETATM   18  C   UNL     1     -40.893  53.713 -52.385  1.00  0.00    -0.024 A 
HETATM   19  C   UNL     1     -39.644  51.424 -51.360  1.00  0.00     0.003 A 
HETATM   20  C   UNL     1     -40.331  52.285 -50.505  1.00  0.00     0.001 A 
HETATM   21  C   UNL     1     -40.954  53.426 -51.015  1.00  0.00     0.010 A 
HETATM   22  C   UNL     1     -41.567  54.943 -52.925  1.00  0.00     0.057 C 
ENDBRANCH  10  13
ENDBRANCH   4   9
BRANCH   8  23
HETATM   23  C   UNL     1     -44.722  59.445 -60.157  1.00  0.00     0.016 A 
HETATM   24  C   UNL     1     -46.040  59.962 -60.085  1.00  0.00     0.152 A 
HETATM   25  N   UNL     1     -46.395  60.633 -61.184  1.00  0.00    -0.187 NA
HETATM   26  N   UNL     1     -45.310  60.546 -61.969  1.00  0.00    -0.289 N 
HETATM   27  H   UNL     1     -45.339  60.990 -62.881  1.00  0.00     0.188 HD
HETATM   28  C   UNL     1     -44.288  59.839 -61.406  1.00  0.00     0.123 A 
ENDBRANCH   8  23
TORSDOF 3
ENDMDL
