MODEL 1
REMARK VINA RESULT:      -8.6      0.000      0.000
REMARK  3 active torsions:
REMARK  status: ('A' for Active; 'I' for Inactive)
REMARK    1  A    between atoms: C_5  and  N_6 
REMARK       I    between atoms: N_6  and  C_7 
REMARK    2  A    between atoms: C_7  and  C_8 
REMARK    3  A    between atoms: C_13  and  O_14 
ROOT
HETATM    1  C   UNL     1     -40.874  54.291 -48.586  1.00  0.00     0.001 A 
HETATM    2  C   UNL     1     -40.614  53.003 -49.064  1.00  0.00     0.013 A 
HETATM    3  C   UNL     1     -40.411  52.834 -50.423  1.00  0.00    -0.017 A 
HETATM    4  C   UNL     1     -40.472  53.939 -51.302  1.00  0.00    -0.020 A 
HETATM    5  C   UNL     1     -40.192  53.490 -52.727  1.00  0.00     0.153 A 
HETATM    6  C   UNL     1     -39.967  51.998 -52.548  1.00  0.00    -0.020 A 
HETATM    7  C   UNL     1     -40.099  51.644 -51.186  1.00  0.00    -0.017 A 
HETATM    8  C   UNL     1     -39.654  51.053 -53.514  1.00  0.00     0.010 A 
HETATM    9  C   UNL     1     -39.471  49.732 -53.104  1.00  0.00     0.001 A 
HETATM   10  C   UNL     1     -39.600  49.375 -51.752  1.00  0.00     0.001 A 
HETATM   11  C   UNL     1     -39.915  50.333 -50.782  1.00  0.00     0.013 A 
HETATM   12  C   UNL     1     -40.717  55.221 -50.832  1.00  0.00     0.010 A 
HETATM   13  C   UNL     1     -40.924  55.390 -49.461  1.00  0.00     0.001 A 
ENDROOT
BRANCH   5  14
HETATM   14  N   UNL     1     -41.338  53.728 -53.580  1.00  0.00    -0.346 N 
HETATM   15  C   UNL     1     -41.303  54.627 -54.611  1.00  0.00     0.249 C 
HETATM   16  O   UNL     1     -40.336  55.347 -54.846  1.00  0.00    -0.271 OA
HETATM   17  H   UNL     1     -42.212  53.297 -53.283  1.00  0.00     0.163 HD
BRANCH  15  18
HETATM   18  C   UNL     1     -42.621  54.834 -55.378  1.00  0.00     0.279 C 
HETATM   19  N   UNL     1     -42.345  55.323 -56.794  1.00  0.00    -0.060 N 
HETATM   20  H   UNL     1     -41.379  55.687 -56.813  1.00  0.00     0.278 HD
HETATM   21  H   UNL     1     -42.389  54.558 -57.478  1.00  0.00     0.278 HD
HETATM   22  C   UNL     1     -43.285  56.455 -57.067  1.00  0.00     0.264 C 
HETATM   23  C   UNL     1     -43.452  57.075 -55.681  1.00  0.00     0.146 C 
HETATM   24  C   UNL     1     -43.601  55.853 -54.790  1.00  0.00     0.076 C 
BRANCH  23  25
HETATM   25  O   UNL     1     -42.246  57.745 -55.307  1.00  0.00    -0.394 OA
HETATM   26  H   UNL     1     -42.483  58.507 -54.737  1.00  0.00     0.210 HD
ENDBRANCH  23  25
ENDBRANCH  15  18
ENDBRANCH   5  14
TORSDOF 3
ENDMDL
MODEL 2
REMARK VINA RESULT:      -8.4      1.586      3.864
REMARK  3 active torsions:
REMARK  status: ('A' for Active; 'I' for Inactive)
REMARK    1  A    between atoms: C_5  and  N_6 
REMARK       I    between atoms: N_6  and  C_7 
REMARK    2  A    between atoms: C_7  and  C_8 
REMARK    3  A    between atoms: C_13  and  O_14 
ROOT
HETATM    1  C   UNL     1     -39.303  50.708 -53.323  1.00  0.00     0.001 A 
HETATM    2  C   UNL     1     -39.331  51.509 -52.178  1.00  0.00     0.013 A 
HETATM    3  C   UNL     1     -40.217  52.572 -52.140  1.00  0.00    -0.017 A 
HETATM    4  C   UNL     1     -41.067  52.840 -53.238  1.00  0.00    -0.020 A 
HETATM    5  C   UNL     1     -41.952  54.038 -52.935  1.00  0.00     0.153 A 
HETATM    6  C   UNL     1     -41.500  54.417 -51.535  1.00  0.00    -0.020 A 
HETATM    7  C   UNL     1     -40.484  53.538 -51.095  1.00  0.00    -0.017 A 
HETATM    8  C   UNL     1     -41.970  55.441 -50.727  1.00  0.00     0.010 A 
HETATM    9  C   UNL     1     -41.410  55.584 -49.457  1.00  0.00     0.001 A 
HETATM   10  C   UNL     1     -40.401  54.713 -49.014  1.00  0.00     0.001 A 
HETATM   11  C   UNL     1     -39.932  53.681 -49.834  1.00  0.00     0.013 A 
HETATM   12  C   UNL     1     -41.053  52.039 -54.371  1.00  0.00     0.010 A 
HETATM   13  C   UNL     1     -40.157  50.969 -54.409  1.00  0.00     0.001 A 
ENDROOT
BRANCH   5  14
HETATM   14  N   UNL     1     -41.693  55.121 -53.860  1.00  0.00    -0.346 N 
HETATM   15  C   UNL     1     -42.574  55.461 -54.849  1.00  0.00     0.249 C 
HETATM   16  O   UNL     1     -43.608  54.837 -55.074  1.00  0.00    -0.271 OA
HETATM   17  H   UNL     1     -40.756  55.522 -53.825  1.00  0.00     0.163 HD
BRANCH  15  18
HETATM   18  C   UNL     1     -42.126  56.578 -55.806  1.00  0.00     0.279 C 
HETATM   19  N   UNL     1     -42.384  57.947 -55.191  1.00  0.00    -0.060 N 
HETATM   20  H   UNL     1     -43.065  57.819 -54.425  1.00  0.00     0.278 HD
HETATM   21  H   UNL     1     -41.535  58.345 -54.772  1.00  0.00     0.278 HD
HETATM   22  C   UNL     1     -43.014  58.801 -56.247  1.00  0.00     0.264 C 
HETATM   23  C   UNL     1     -43.796  57.775 -57.064  1.00  0.00     0.146 C 
HETATM   24  C   UNL     1     -42.812  56.622 -57.175  1.00  0.00     0.076 C 
BRANCH  23  25
HETATM   25  O   UNL     1     -44.921  57.318 -56.311  1.00  0.00    -0.394 OA
HETATM   26  H   UNL     1     -45.718  57.790 -56.633  1.00  0.00     0.210 HD
ENDBRANCH  23  25
ENDBRANCH  15  18
ENDBRANCH   5  14
TORSDOF 3
ENDMDL
MODEL 3
REMARK VINA RESULT:      -8.3      3.054      3.925
REMARK  3 active torsions:
REMARK  status: ('A' for Active; 'I' for Inactive)
REMARK    1  A    between atoms: C_5  and  N_6 
REMARK       I    between atoms: N_6  and  C_7 
REMARK    2  A    between atoms: C_7  and  C_8 
REMARK    3  A    between atoms: C_13  and  O_14 
ROOT
HETATM    1  C   UNL     1     -40.550  53.381 -48.738  1.00  0.00     0.001 A 
HETATM    2  C   UNL     1     -40.388  52.912 -50.045  1.00  0.00     0.013 A 
HETATM    3  C   UNL     1     -40.631  53.785 -51.092  1.00  0.00    -0.017 A 
HETATM    4  C   UNL     1     -41.037  55.115 -50.840  1.00  0.00    -0.020 A 
HETATM    5  C   UNL     1     -41.214  55.866 -52.149  1.00  0.00     0.153 A 
HETATM    6  C   UNL     1     -40.860  54.800 -53.173  1.00  0.00    -0.020 A 
HETATM    7  C   UNL     1     -40.519  53.592 -52.522  1.00  0.00    -0.017 A 
HETATM    8  C   UNL     1     -40.827  54.912 -54.555  1.00  0.00     0.010 A 
HETATM    9  C   UNL     1     -40.447  53.791 -55.295  1.00  0.00     0.001 A 
HETATM   10  C   UNL     1     -40.107  52.588 -54.653  1.00  0.00     0.001 A 
HETATM   11  C   UNL     1     -40.141  52.483 -53.259  1.00  0.00     0.013 A 
HETATM   12  C   UNL     1     -41.186  55.589 -49.544  1.00  0.00     0.010 A 
HETATM   13  C   UNL     1     -40.944  54.707 -48.490  1.00  0.00     0.001 A 
ENDROOT
BRANCH   5  14
HETATM   14  N   UNL     1     -42.586  56.294 -52.321  1.00  0.00    -0.346 N 
HETATM   15  C   UNL     1     -42.953  57.610 -52.247  1.00  0.00     0.249 C 
HETATM   16  O   UNL     1     -42.171  58.513 -51.961  1.00  0.00    -0.271 OA
HETATM   17  H   UNL     1     -43.283  55.551 -52.357  1.00  0.00     0.163 HD
BRANCH  15  18
HETATM   18  C   UNL     1     -44.458  57.905 -52.368  1.00  0.00     0.279 C 
HETATM   19  N   UNL     1     -44.687  59.298 -52.939  1.00  0.00    -0.060 N 
HETATM   20  H   UNL     1     -43.807  59.826 -52.828  1.00  0.00     0.278 HD
HETATM   21  H   UNL     1     -44.894  59.270 -53.945  1.00  0.00     0.278 HD
HETATM   22  C   UNL     1     -45.743  59.955 -52.105  1.00  0.00     0.264 C 
HETATM   23  C   UNL     1     -45.499  59.334 -50.731  1.00  0.00     0.146 C 
HETATM   24  C   UNL     1     -45.267  57.870 -51.068  1.00  0.00     0.076 C 
BRANCH  23  25
HETATM   25  O   UNL     1     -44.288  59.853 -50.178  1.00  0.00    -0.394 OA
HETATM   26  H   UNL     1     -44.097  59.366 -49.349  1.00  0.00     0.210 HD
ENDBRANCH  23  25
ENDBRANCH  15  18
ENDBRANCH   5  14
TORSDOF 3
ENDMDL
MODEL 4
REMARK VINA RESULT:      -8.3      3.927      5.655
REMARK  3 active torsions:
REMARK  status: ('A' for Active; 'I' for Inactive)
REMARK    1  A    between atoms: C_5  and  N_6 
REMARK       I    between atoms: N_6  and  C_7 
REMARK    2  A    between atoms: C_7  and  C_8 
REMARK    3  A    between atoms: C_13  and  O_14 
ROOT
HETATM    1  C   UNL     1     -41.913  53.485 -55.257  1.00  0.00     0.001 A 
HETATM    2  C   UNL     1     -41.180  53.419 -54.068  1.00  0.00     0.013 A 
HETATM    3  C   UNL     1     -41.680  54.064 -52.950  1.00  0.00    -0.017 A 
HETATM    4  C   UNL     1     -42.899  54.776 -53.016  1.00  0.00    -0.020 A 
HETATM    5  C   UNL     1     -43.233  55.369 -51.657  1.00  0.00     0.153 A 
HETATM    6  C   UNL     1     -42.056  54.907 -50.815  1.00  0.00    -0.020 A 
HETATM    7  C   UNL     1     -41.164  54.142 -51.600  1.00  0.00    -0.017 A 
HETATM    8  C   UNL     1     -41.820  55.136 -49.467  1.00  0.00     0.010 A 
HETATM    9  C   UNL     1     -40.668  54.587 -48.900  1.00  0.00     0.001 A 
HETATM   10  C   UNL     1     -39.779  53.825 -49.677  1.00  0.00     0.001 A 
HETATM   11  C   UNL     1     -40.024  53.597 -51.035  1.00  0.00     0.013 A 
HETATM   12  C   UNL     1     -43.637  54.835 -54.190  1.00  0.00     0.010 A 
HETATM   13  C   UNL     1     -43.130  54.186 -55.317  1.00  0.00     0.001 A 
ENDROOT
BRANCH   5  14
HETATM   14  N   UNL     1     -43.274  56.815 -51.717  1.00  0.00    -0.346 N 
HETATM   15  C   UNL     1     -44.298  57.538 -51.169  1.00  0.00     0.249 C 
HETATM   16  O   UNL     1     -45.287  57.022 -50.654  1.00  0.00    -0.271 OA
HETATM   17  H   UNL     1     -42.574  57.255 -52.312  1.00  0.00     0.163 HD
BRANCH  15  18
HETATM   18  C   UNL     1     -44.247  59.060 -51.383  1.00  0.00     0.279 C 
HETATM   19  N   UNL     1     -43.358  59.719 -50.337  1.00  0.00    -0.060 N 
HETATM   20  H   UNL     1     -43.244  59.049 -49.560  1.00  0.00     0.278 HD
HETATM   21  H   UNL     1     -42.417  59.915 -50.702  1.00  0.00     0.278 HD
HETATM   22  C   UNL     1     -44.087  60.921 -49.823  1.00  0.00     0.264 C 
HETATM   23  C   UNL     1     -45.546  60.484 -49.938  1.00  0.00     0.146 C 
HETATM   24  C   UNL     1     -45.581  59.807 -51.298  1.00  0.00     0.076 C 
BRANCH  23  25
HETATM   25  O   UNL     1     -45.829  59.492 -48.948  1.00  0.00    -0.394 OA
HETATM   26  H   UNL     1     -46.112  58.673 -49.407  1.00  0.00     0.210 HD
ENDBRANCH  23  25
ENDBRANCH  15  18
ENDBRANCH   5  14
TORSDOF 3
ENDMDL
MODEL 5
REMARK VINA RESULT:      -7.8      2.606      4.210
REMARK  3 active torsions:
REMARK  status: ('A' for Active; 'I' for Inactive)
REMARK    1  A    between atoms: C_5  and  N_6 
REMARK       I    between atoms: N_6  and  C_7 
REMARK    2  A    between atoms: C_7  and  C_8 
REMARK    3  A    between atoms: C_13  and  O_14 
ROOT
HETATM    1  C   UNL     1     -44.331  56.864 -50.994  1.00  0.00     0.001 A 
HETATM    2  C   UNL     1     -43.501  55.776 -51.280  1.00  0.00     0.013 A 
HETATM    3  C   UNL     1     -42.877  55.732 -52.515  1.00  0.00    -0.017 A 
HETATM    4  C   UNL     1     -43.082  56.761 -53.461  1.00  0.00    -0.020 A 
HETATM    5  C   UNL     1     -42.270  56.487 -54.717  1.00  0.00     0.153 A 
HETATM    6  C   UNL     1     -41.583  55.178 -54.367  1.00  0.00    -0.020 A 
HETATM    7  C   UNL     1     -41.956  54.762 -53.069  1.00  0.00    -0.017 A 
HETATM    8  C   UNL     1     -40.692  54.443 -55.135  1.00  0.00     0.010 A 
HETATM    9  C   UNL     1     -40.169  53.270 -54.589  1.00  0.00     0.001 A 
HETATM   10  C   UNL     1     -40.535  52.852 -53.298  1.00  0.00     0.001 A 
HETATM   11  C   UNL     1     -41.433  53.599 -52.529  1.00  0.00     0.013 A 
HETATM   12  C   UNL     1     -43.894  57.850 -53.177  1.00  0.00     0.010 A 
HETATM   13  C   UNL     1     -44.525  57.892 -51.932  1.00  0.00     0.001 A 
ENDROOT
BRANCH   5  14
HETATM   14  N   UNL     1     -43.134  56.313 -55.865  1.00  0.00    -0.346 N 
HETATM   15  C   UNL     1     -42.957  57.017 -57.024  1.00  0.00     0.249 C 
HETATM   16  O   UNL     1     -42.108  57.895 -57.156  1.00  0.00    -0.271 OA
HETATM   17  H   UNL     1     -43.966  55.743 -55.714  1.00  0.00     0.163 HD
BRANCH  15  18
HETATM   18  C   UNL     1     -44.003  56.786 -58.128  1.00  0.00     0.279 C 
HETATM   19  N   UNL     1     -44.034  55.319 -58.538  1.00  0.00    -0.060 N 
HETATM   20  H   UNL     1     -43.156  54.887 -58.209  1.00  0.00     0.278 HD
HETATM   21  H   UNL     1     -44.804  54.811 -58.087  1.00  0.00     0.278 HD
HETATM   22  C   UNL     1     -44.052  55.273 -60.035  1.00  0.00     0.264 C 
HETATM   23  C   UNL     1     -43.255  56.523 -60.404  1.00  0.00     0.146 C 
HETATM   24  C   UNL     1     -43.800  57.559 -59.434  1.00  0.00     0.076 C 
BRANCH  23  25
HETATM   25  O   UNL     1     -41.875  56.319 -60.096  1.00  0.00    -0.394 OA
HETATM   26  H   UNL     1     -41.745  56.493 -59.140  1.00  0.00     0.210 HD
ENDBRANCH  23  25
ENDBRANCH  15  18
ENDBRANCH   5  14
TORSDOF 3
ENDMDL
MODEL 6
REMARK VINA RESULT:      -7.6      3.238      5.077
REMARK  3 active torsions:
REMARK  status: ('A' for Active; 'I' for Inactive)
REMARK    1  A    between atoms: C_5  and  N_6 
REMARK       I    between atoms: N_6  and  C_7 
REMARK    2  A    between atoms: C_7  and  C_8 
REMARK    3  A    between atoms: C_13  and  O_14 
ROOT
HETATM    1  C   UNL     1     -41.915  53.226 -55.080  1.00  0.00     0.001 A 
HETATM    2  C   UNL     1     -41.209  53.200 -53.874  1.00  0.00     0.013 A 
HETATM    3  C   UNL     1     -41.692  53.945 -52.812  1.00  0.00    -0.017 A 
HETATM    4  C   UNL     1     -42.869  54.716 -52.952  1.00  0.00    -0.020 A 
HETATM    5  C   UNL     1     -43.195  55.415 -51.642  1.00  0.00     0.153 A 
HETATM    6  C   UNL     1     -42.060  54.949 -50.746  1.00  0.00    -0.020 A 
HETATM    7  C   UNL     1     -41.198  54.086 -51.459  1.00  0.00    -0.017 A 
HETATM    8  C   UNL     1     -41.837  55.255 -49.412  1.00  0.00     0.010 A 
HETATM    9  C   UNL     1     -40.727  54.684 -48.785  1.00  0.00     0.001 A 
HETATM   10  C   UNL     1     -39.867  53.825 -49.489  1.00  0.00     0.001 A 
HETATM   11  C   UNL     1     -40.099  53.520 -50.834  1.00  0.00     0.013 A 
HETATM   12  C   UNL     1     -43.581  54.735 -54.143  1.00  0.00     0.010 A 
HETATM   13  C   UNL     1     -43.090  53.985 -55.213  1.00  0.00     0.001 A 
ENDROOT
BRANCH   5  14
HETATM   14  N   UNL     1     -43.155  56.854 -51.799  1.00  0.00    -0.346 N 
HETATM   15  C   UNL     1     -44.131  57.669 -51.295  1.00  0.00     0.249 C 
HETATM   16  O   UNL     1     -45.143  57.246 -50.741  1.00  0.00    -0.271 OA
HETATM   17  H   UNL     1     -42.436  57.214 -52.426  1.00  0.00     0.163 HD
BRANCH  15  18
HETATM   18  C   UNL     1     -43.997  59.168 -51.611  1.00  0.00     0.279 C 
HETATM   19  N   UNL     1     -43.524  59.374 -53.044  1.00  0.00    -0.060 N 
HETATM   20  H   UNL     1     -43.117  58.481 -53.367  1.00  0.00     0.278 HD
HETATM   21  H   UNL     1     -44.303  59.593 -53.678  1.00  0.00     0.278 HD
HETATM   22  C   UNL     1     -42.439  60.405 -53.014  1.00  0.00     0.264 C 
HETATM   23  C   UNL     1     -41.801  60.159 -51.648  1.00  0.00     0.146 C 
HETATM   24  C   UNL     1     -43.012  59.963 -50.750  1.00  0.00     0.076 C 
BRANCH  23  25
HETATM   25  O   UNL     1     -41.072  58.931 -51.674  1.00  0.00    -0.394 OA
HETATM   26  H   UNL     1     -40.206  59.097 -52.104  1.00  0.00     0.210 HD
ENDBRANCH  23  25
ENDBRANCH  15  18
ENDBRANCH   5  14
TORSDOF 3
ENDMDL
MODEL 7
REMARK VINA RESULT:      -7.3      2.731      5.086
REMARK  3 active torsions:
REMARK  status: ('A' for Active; 'I' for Inactive)
REMARK    1  A    between atoms: C_5  and  N_6 
REMARK       I    between atoms: N_6  and  C_7 
REMARK    2  A    between atoms: C_7  and  C_8 
REMARK    3  A    between atoms: C_13  and  O_14 
ROOT
HETATM    1  C   UNL     1     -42.910  55.584 -56.551  1.00  0.00     0.001 A 
HETATM    2  C   UNL     1     -42.021  54.594 -56.123  1.00  0.00     0.013 A 
HETATM    3  C   UNL     1     -41.855  54.401 -54.763  1.00  0.00    -0.017 A 
HETATM    4  C   UNL     1     -42.567  55.192 -53.832  1.00  0.00    -0.020 A 
HETATM    5  C   UNL     1     -42.225  54.767 -52.414  1.00  0.00     0.153 A 
HETATM    6  C   UNL     1     -41.234  53.641 -52.653  1.00  0.00    -0.020 A 
HETATM    7  C   UNL     1     -41.040  53.448 -54.040  1.00  0.00    -0.017 A 
HETATM    8  C   UNL     1     -40.585  52.852 -51.715  1.00  0.00     0.010 A 
HETATM    9  C   UNL     1     -39.726  51.854 -52.179  1.00  0.00     0.001 A 
HETATM   10  C   UNL     1     -39.531  51.657 -53.556  1.00  0.00     0.001 A 
HETATM   11  C   UNL     1     -40.189  52.455 -54.497  1.00  0.00     0.013 A 
HETATM   12  C   UNL     1     -43.461  56.167 -54.251  1.00  0.00     0.010 A 
HETATM   13  C   UNL     1     -43.625  56.363 -55.624  1.00  0.00     0.001 A 
ENDROOT
BRANCH   5  14
HETATM   14  N   UNL     1     -41.595  55.847 -51.685  1.00  0.00    -0.346 N 
HETATM   15  C   UNL     1     -42.292  56.650 -50.825  1.00  0.00     0.249 C 
HETATM   16  O   UNL     1     -43.507  56.566 -50.660  1.00  0.00    -0.271 OA
HETATM   17  H   UNL     1     -40.637  56.067 -51.956  1.00  0.00     0.163 HD
BRANCH  15  18
HETATM   18  C   UNL     1     -41.507  57.808 -50.187  1.00  0.00     0.279 C 
HETATM   19  N   UNL     1     -42.288  59.111 -50.297  1.00  0.00    -0.060 N 
HETATM   20  H   UNL     1     -43.006  58.980 -51.027  1.00  0.00     0.278 HD
HETATM   21  H   UNL     1     -42.786  59.334 -49.426  1.00  0.00     0.278 HD
HETATM   22  C   UNL     1     -41.333  60.169 -50.755  1.00  0.00     0.264 C 
HETATM   23  C   UNL     1     -40.361  59.369 -51.621  1.00  0.00     0.146 C 
HETATM   24  C   UNL     1     -40.133  58.117 -50.789  1.00  0.00     0.076 C 
BRANCH  23  25
HETATM   25  O   UNL     1     -41.008  58.978 -52.833  1.00  0.00    -0.394 OA
HETATM   26  H   UNL     1     -40.317  58.744 -53.488  1.00  0.00     0.210 HD
ENDBRANCH  23  25
ENDBRANCH  15  18
ENDBRANCH   5  14
TORSDOF 3
ENDMDL
MODEL 8
REMARK VINA RESULT:      -7.0      3.011      4.219
REMARK  3 active torsions:
REMARK  status: ('A' for Active; 'I' for Inactive)
REMARK    1  A    between atoms: C_5  and  N_6 
REMARK       I    between atoms: N_6  and  C_7 
REMARK    2  A    between atoms: C_7  and  C_8 
REMARK    3  A    between atoms: C_13  and  O_14 
ROOT
HETATM    1  C   UNL     1     -44.319  56.743 -50.829  1.00  0.00     0.001 A 
HETATM    2  C   UNL     1     -43.629  55.645 -51.352  1.00  0.00     0.013 A 
HETATM    3  C   UNL     1     -42.771  55.855 -52.417  1.00  0.00    -0.017 A 
HETATM    4  C   UNL     1     -42.604  57.148 -52.963  1.00  0.00    -0.020 A 
HETATM    5  C   UNL     1     -41.596  57.111 -54.100  1.00  0.00     0.153 A 
HETATM    6  C   UNL     1     -41.214  55.641 -54.134  1.00  0.00    -0.020 A 
HETATM    7  C   UNL     1     -41.917  54.931 -53.133  1.00  0.00    -0.017 A 
HETATM    8  C   UNL     1     -40.307  55.006 -54.969  1.00  0.00     0.010 A 
HETATM    9  C   UNL     1     -40.104  53.636 -54.797  1.00  0.00     0.001 A 
HETATM   10  C   UNL     1     -40.799  52.926 -53.804  1.00  0.00     0.001 A 
HETATM   11  C   UNL     1     -41.711  53.572 -52.963  1.00  0.00     0.013 A 
HETATM   12  C   UNL     1     -43.276  58.243 -52.439  1.00  0.00     0.010 A 
HETATM   13  C   UNL     1     -44.144  58.030 -51.366  1.00  0.00     0.001 A 
ENDROOT
BRANCH   5  14
HETATM   14  N   UNL     1     -42.212  57.500 -55.352  1.00  0.00    -0.346 N 
HETATM   15  C   UNL     1     -42.111  58.771 -55.848  1.00  0.00     0.249 C 
HETATM   16  O   UNL     1     -41.560  59.688 -55.245  1.00  0.00    -0.271 OA
HETATM   17  H   UNL     1     -42.842  56.817 -55.769  1.00  0.00     0.163 HD
BRANCH  15  18
HETATM   18  C   UNL     1     -42.886  59.058 -57.145  1.00  0.00     0.279 C 
HETATM   19  N   UNL     1     -44.046  60.008 -56.877  1.00  0.00    -0.060 N 
HETATM   20  H   UNL     1     -44.227  59.997 -55.861  1.00  0.00     0.278 HD
HETATM   21  H   UNL     1     -43.814  60.977 -57.128  1.00  0.00     0.278 HD
HETATM   22  C   UNL     1     -45.248  59.456 -57.579  1.00  0.00     0.264 C 
HETATM   23  C   UNL     1     -44.995  57.951 -57.512  1.00  0.00     0.146 C 
HETATM   24  C   UNL     1     -43.515  57.851 -57.847  1.00  0.00     0.076 C 
BRANCH  23  25
HETATM   25  O   UNL     1     -45.171  57.494 -56.170  1.00  0.00    -0.394 OA
HETATM   26  H   UNL     1     -44.445  56.869 -55.961  1.00  0.00     0.210 HD
ENDBRANCH  23  25
ENDBRANCH  15  18
ENDBRANCH   5  14
TORSDOF 3
ENDMDL
MODEL 9
REMARK VINA RESULT:      -6.9     14.137     16.913
REMARK  3 active torsions:
REMARK  status: ('A' for Active; 'I' for Inactive)
REMARK    1  A    between atoms: C_5  and  N_6 
REMARK       I    between atoms: N_6  and  C_7 
REMARK    2  A    between atoms: C_7  and  C_8 
REMARK    3  A    between atoms: C_13  and  O_14 
ROOT
HETATM    1  C   UNL     1     -36.955  42.042 -56.550  1.00  0.00     0.001 A 
HETATM    2  C   UNL     1     -36.843  41.817 -55.175  1.00  0.00     0.013 A 
HETATM    3  C   UNL     1     -35.611  41.439 -54.668  1.00  0.00    -0.017 A 
HETATM    4  C   UNL     1     -34.499  41.280 -55.525  1.00  0.00    -0.020 A 
HETATM    5  C   UNL     1     -33.270  40.886 -54.721  1.00  0.00     0.153 A 
HETATM    6  C   UNL     1     -33.822  40.839 -53.307  1.00  0.00    -0.020 A 
HETATM    7  C   UNL     1     -35.196  41.171 -53.307  1.00  0.00    -0.017 A 
HETATM    8  C   UNL     1     -33.149  40.547 -52.130  1.00  0.00     0.010 A 
HETATM    9  C   UNL     1     -33.869  40.587 -50.935  1.00  0.00     0.001 A 
HETATM   10  C   UNL     1     -35.235  40.917 -50.930  1.00  0.00     0.001 A 
HETATM   11  C   UNL     1     -35.907  41.213 -52.120  1.00  0.00     0.013 A 
HETATM   12  C   UNL     1     -34.601  41.515 -56.889  1.00  0.00     0.010 A 
HETATM   13  C   UNL     1     -35.844  41.894 -57.399  1.00  0.00     0.001 A 
ENDROOT
BRANCH   5  14
HETATM   14  N   UNL     1     -32.788  39.580 -55.118  1.00  0.00    -0.346 N 
HETATM   15  C   UNL     1     -31.644  39.417 -55.851  1.00  0.00     0.249 C 
HETATM   16  O   UNL     1     -30.984  40.357 -56.286  1.00  0.00    -0.271 OA
HETATM   17  H   UNL     1     -33.421  38.800 -54.946  1.00  0.00     0.163 HD
BRANCH  15  18
HETATM   18  C   UNL     1     -31.302  37.977 -56.268  1.00  0.00     0.279 C 
HETATM   19  N   UNL     1     -30.036  37.502 -55.568  1.00  0.00    -0.060 N 
HETATM   20  H   UNL     1     -29.541  38.340 -55.222  1.00  0.00     0.278 HD
HETATM   21  H   UNL     1     -30.246  36.920 -54.748  1.00  0.00     0.278 HD
HETATM   22  C   UNL     1     -29.177  36.837 -56.598  1.00  0.00     0.264 C 
HETATM   23  C   UNL     1     -29.533  37.616 -57.863  1.00  0.00     0.146 C 
HETATM   24  C   UNL     1     -31.044  37.741 -57.759  1.00  0.00     0.076 C 
BRANCH  23  25
HETATM   25  O   UNL     1     -28.979  38.931 -57.789  1.00  0.00    -0.394 OA
HETATM   26  H   UNL     1     -28.774  39.124 -56.849  1.00  0.00     0.210 HD
ENDBRANCH  23  25
ENDBRANCH  15  18
ENDBRANCH   5  14
TORSDOF 3
ENDMDL
MODEL 10
REMARK VINA RESULT:      -6.9     13.567     16.015
REMARK  3 active torsions:
REMARK  status: ('A' for Active; 'I' for Inactive)
REMARK    1  A    between atoms: C_5  and  N_6 
REMARK       I    between atoms: N_6  and  C_7 
REMARK    2  A    between atoms: C_7  and  C_8 
REMARK    3  A    between atoms: C_13  and  O_14 
ROOT
HETATM    1  C   UNL     1     -31.327  39.647 -56.008  1.00  0.00     0.001 A 
HETATM    2  C   UNL     1     -32.478  40.165 -56.609  1.00  0.00     0.013 A 
HETATM    3  C   UNL     1     -33.530  40.550 -55.795  1.00  0.00    -0.017 A 
HETATM    4  C   UNL     1     -33.438  40.416 -54.390  1.00  0.00    -0.020 A 
HETATM    5  C   UNL     1     -34.708  40.929 -53.732  1.00  0.00     0.153 A 
HETATM    6  C   UNL     1     -35.530  41.368 -54.932  1.00  0.00    -0.020 A 
HETATM    7  C   UNL     1     -34.811  41.136 -56.127  1.00  0.00    -0.017 A 
HETATM    8  C   UNL     1     -36.793  41.939 -54.947  1.00  0.00     0.010 A 
HETATM    9  C   UNL     1     -37.343  42.282 -56.183  1.00  0.00     0.001 A 
HETATM   10  C   UNL     1     -36.633  42.055 -57.373  1.00  0.00     0.001 A 
HETATM   11  C   UNL     1     -35.358  41.479 -57.351  1.00  0.00     0.013 A 
HETATM   12  C   UNL     1     -32.293  39.915 -53.788  1.00  0.00     0.010 A 
HETATM   13  C   UNL     1     -31.235  39.525 -54.610  1.00  0.00     0.001 A 
ENDROOT
BRANCH   5  14
HETATM   14  N   UNL     1     -35.386  39.868 -53.017  1.00  0.00    -0.346 N 
HETATM   15  C   UNL     1     -35.693  39.966 -51.687  1.00  0.00     0.249 C 
HETATM   16  O   UNL     1     -35.357  40.917 -50.986  1.00  0.00    -0.271 OA
HETATM   17  H   UNL     1     -35.495  38.989 -53.522  1.00  0.00     0.163 HD
BRANCH  15  18
HETATM   18  C   UNL     1     -36.339  38.727 -51.045  1.00  0.00     0.279 C 
HETATM   19  N   UNL     1     -37.858  38.830 -51.089  1.00  0.00    -0.060 N 
HETATM   20  H   UNL     1     -38.096  39.821 -51.257  1.00  0.00     0.278 HD
HETATM   21  H   UNL     1     -38.256  38.292 -51.868  1.00  0.00     0.278 HD
HETATM   22  C   UNL     1     -38.373  38.442 -49.738  1.00  0.00     0.264 C 
HETATM   23  C   UNL     1     -37.245  38.907 -48.819  1.00  0.00     0.146 C 
HETATM   24  C   UNL     1     -36.002  38.465 -49.574  1.00  0.00     0.076 C 
BRANCH  23  25
HETATM   25  O   UNL     1     -37.234  40.335 -48.758  1.00  0.00    -0.394 OA
HETATM   26  H   UNL     1     -38.019  40.626 -48.247  1.00  0.00     0.210 HD
ENDBRANCH  23  25
ENDBRANCH  15  18
ENDBRANCH   5  14
TORSDOF 3
ENDMDL
