MODEL 1
REMARK VINA RESULT:      -8.0      0.000      0.000
REMARK  7 active torsions:
REMARK  status: ('A' for Active; 'I' for Inactive)
REMARK    1  A    between atoms: C_2  and  N_3 
REMARK    2  A    between atoms: C_8  and  C_9 
REMARK    3  A    between atoms: C_9  and  N_10 
REMARK       I    between atoms: N_10  and  C_11 
REMARK       I    between atoms: C_11  and  N_12 
REMARK    4  A    between atoms: N_12  and  C_13 
REMARK    5  A    between atoms: C_14  and  O_15 
REMARK    6  A    between atoms: C_18  and  O_19 
REMARK    7  A    between atoms: C_26  and  N_27 
ROOT
HETATM    1  C   UNL     1     -43.386  56.450 -55.485  1.00  0.00     0.118 C 
HETATM    2  C   UNL     1     -44.387  56.664 -54.352  1.00  0.00     0.037 C 
ENDROOT
BRANCH   1   3
HETATM    3  C   UNL     1     -43.602  57.458 -56.617  1.00  0.00     0.006 A 
HETATM    4  C   UNL     1     -43.811  57.071 -58.018  1.00  0.00    -0.031 A 
HETATM    5  C   UNL     1     -44.039  58.157 -58.837  1.00  0.00     0.017 A 
HETATM    6  C   UNL     1     -43.849  55.679 -58.599  1.00  0.00     0.068 C 
HETATM    7  C   UNL     1     -44.288  58.110 -60.308  1.00  0.00     0.281 C 
HETATM    8  S   UNL     1     -44.000  59.616 -58.000  1.00  0.00    -0.074 SA
HETATM    9  N   UNL     1     -44.713  56.716 -60.755  1.00  0.00    -0.067 N 
HETATM   10  H   UNL     1     -44.553  56.677 -61.769  1.00  0.00     0.280 HD
HETATM   11  C   UNL     1     -43.792  55.671 -60.138  1.00  0.00     0.240 C 
HETATM   12  C   UNL     1     -43.647  58.854 -56.509  1.00  0.00     0.089 A 
BRANCH   9  13
HETATM   13  C   UNL     1     -46.180  56.420 -60.528  1.00  0.00     0.231 C 
HETATM   14  C   UNL     1     -47.007  57.681 -60.707  1.00  0.00     0.034 C 
ENDBRANCH   9  13
BRANCH  12  15
HETATM   15  N   UNL     1     -43.438  59.718 -55.401  1.00  0.00    -0.327 N 
HETATM   16  C   UNL     1     -44.406  60.463 -54.729  1.00  0.00     0.097 A 
HETATM   17  C   UNL     1     -43.834  61.169 -53.696  1.00  0.00     0.019 A 
HETATM   18  C   UNL     1     -42.461  60.888 -53.722  1.00  0.00     0.019 A 
HETATM   19  C   UNL     1     -42.243  60.025 -54.773  1.00  0.00     0.097 A 
ENDBRANCH  12  15
ENDBRANCH   1   3
BRANCH   1  20
HETATM   20  N   UNL     1     -41.960  56.449 -55.152  1.00  0.00    -0.334 N 
HETATM   21  C   UNL     1     -41.141  55.461 -54.686  1.00  0.00     0.321 C 
HETATM   22  N   UNL     1     -41.696  54.617 -53.763  1.00  0.00    -0.306 N 
HETATM   23  O   UNL     1     -39.956  55.512 -54.996  1.00  0.00    -0.247 OA
HETATM   24  H   UNL     1     -42.387  55.066 -53.194  1.00  0.00     0.171 HD
HETATM   25  H   UNL     1     -41.411  57.029 -55.778  1.00  0.00     0.165 HD
BRANCH  22  26
HETATM   26  C   UNL     1     -40.972  53.583 -53.125  1.00  0.00     0.071 A 
HETATM   27  C   UNL     1     -40.567  53.638 -51.779  1.00  0.00     0.097 A 
HETATM   28  C   UNL     1     -39.889  52.540 -51.222  1.00  0.00     0.077 A 
HETATM   29  C   UNL     1     -39.575  51.416 -51.999  1.00  0.00     0.092 A 
HETATM   30  C   UNL     1     -39.944  51.404 -53.351  1.00  0.00     0.069 A 
HETATM   31 CL   UNL     1     -39.596  50.056 -54.378  1.00  0.00    -0.081 Cl
HETATM   32  C   UNL     1     -40.619  52.485 -53.915  1.00  0.00     0.059 A 
BRANCH  27  33
HETATM   33  O   UNL     1     -40.813  54.811 -51.113  1.00  0.00    -0.354 OA
HETATM   34  C   UNL     1     -41.713  54.770 -50.014  1.00  0.00     0.210 C 
ENDBRANCH  27  33
BRANCH  29  35
HETATM   35  O   UNL     1     -38.928  50.302 -51.534  1.00  0.00    -0.354 OA
HETATM   36  C   UNL     1     -39.622  49.465 -50.619  1.00  0.00     0.210 C 
ENDBRANCH  29  35
ENDBRANCH  22  26
ENDBRANCH   1  20
TORSDOF 7
ENDMDL
MODEL 2
REMARK VINA RESULT:      -8.0      2.294      3.419
REMARK  7 active torsions:
REMARK  status: ('A' for Active; 'I' for Inactive)
REMARK    1  A    between atoms: C_2  and  N_3 
REMARK    2  A    between atoms: C_8  and  C_9 
REMARK    3  A    between atoms: C_9  and  N_10 
REMARK       I    between atoms: N_10  and  C_11 
REMARK       I    between atoms: C_11  and  N_12 
REMARK    4  A    between atoms: N_12  and  C_13 
REMARK    5  A    between atoms: C_14  and  O_15 
REMARK    6  A    between atoms: C_18  and  O_19 
REMARK    7  A    between atoms: C_26  and  N_27 
ROOT
HETATM    1  C   UNL     1     -44.054  58.004 -51.818  1.00  0.00     0.118 C 
HETATM    2  C   UNL     1     -45.304  58.622 -51.195  1.00  0.00     0.037 C 
ENDROOT
BRANCH   1   3
HETATM    3  C   UNL     1     -43.541  58.847 -52.989  1.00  0.00     0.006 A 
HETATM    4  C   UNL     1     -43.142  58.279 -54.283  1.00  0.00    -0.031 A 
HETATM    5  C   UNL     1     -42.769  59.247 -55.192  1.00  0.00     0.017 A 
HETATM    6  C   UNL     1     -43.153  56.829 -54.701  1.00  0.00     0.068 C 
HETATM    7  C   UNL     1     -42.315  59.006 -56.593  1.00  0.00     0.281 C 
HETATM    8  S   UNL     1     -42.865  60.801 -54.555  1.00  0.00    -0.074 SA
HETATM    9  N   UNL     1     -42.723  57.621 -57.080  1.00  0.00    -0.067 N 
HETATM   10  H   UNL     1     -42.122  57.410 -57.886  1.00  0.00     0.280 HD
HETATM   11  C   UNL     1     -42.392  56.581 -56.018  1.00  0.00     0.240 C 
HETATM   12  C   UNL     1     -43.382  60.238 -53.024  1.00  0.00     0.089 A 
BRANCH   9  13
HETATM   13  C   UNL     1     -44.155  57.539 -57.564  1.00  0.00     0.231 C 
HETATM   14  C   UNL     1     -44.234  56.722 -58.842  1.00  0.00     0.034 C 
ENDBRANCH   9  13
BRANCH  12  15
HETATM   15  N   UNL     1     -43.561  61.229 -52.023  1.00  0.00    -0.327 N 
HETATM   16  C   UNL     1     -42.807  61.389 -50.861  1.00  0.00     0.097 A 
HETATM   17  C   UNL     1     -43.262  62.470 -50.140  1.00  0.00     0.019 A 
HETATM   18  C   UNL     1     -44.350  63.001 -50.847  1.00  0.00     0.019 A 
HETATM   19  C   UNL     1     -44.524  62.223 -51.970  1.00  0.00     0.097 A 
ENDBRANCH  12  15
ENDBRANCH   1   3
BRANCH   1  20
HETATM   20  N   UNL     1     -42.918  57.717 -50.940  1.00  0.00    -0.334 N 
HETATM   21  C   UNL     1     -41.973  56.732 -50.978  1.00  0.00     0.321 C 
HETATM   22  N   UNL     1     -42.420  55.495 -51.354  1.00  0.00    -0.306 N 
HETATM   23  O   UNL     1     -40.865  56.990 -50.520  1.00  0.00    -0.247 OA
HETATM   24  H   UNL     1     -43.370  55.329 -51.085  1.00  0.00     0.171 HD
HETATM   25  H   UNL     1     -42.468  58.558 -50.595  1.00  0.00     0.165 HD
BRANCH  22  26
HETATM   26  C   UNL     1     -41.594  54.348 -51.380  1.00  0.00     0.071 A 
HETATM   27  C   UNL     1     -41.191  53.657 -50.223  1.00  0.00     0.097 A 
HETATM   28  C   UNL     1     -40.404  52.500 -50.354  1.00  0.00     0.077 A 
HETATM   29  C   UNL     1     -39.982  52.054 -51.615  1.00  0.00     0.092 A 
HETATM   30  C   UNL     1     -40.354  52.785 -52.751  1.00  0.00     0.069 A 
HETATM   31 CL   UNL     1     -39.877  52.302 -54.343  1.00  0.00    -0.081 Cl
HETATM   32  C   UNL     1     -41.136  53.934 -52.635  1.00  0.00     0.059 A 
BRANCH  27  33
HETATM   33  O   UNL     1     -41.550  54.213 -49.023  1.00  0.00    -0.354 OA
HETATM   34  C   UNL     1     -40.561  54.279 -48.004  1.00  0.00     0.210 C 
ENDBRANCH  27  33
BRANCH  29  35
HETATM   35  O   UNL     1     -39.225  50.933 -51.833  1.00  0.00    -0.354 OA
HETATM   36  C   UNL     1     -39.461  49.801 -51.007  1.00  0.00     0.210 C 
ENDBRANCH  29  35
ENDBRANCH  22  26
ENDBRANCH   1  20
TORSDOF 7
ENDMDL
MODEL 3
REMARK VINA RESULT:      -7.6      1.832      4.761
REMARK  7 active torsions:
REMARK  status: ('A' for Active; 'I' for Inactive)
REMARK    1  A    between atoms: C_2  and  N_3 
REMARK    2  A    between atoms: C_8  and  C_9 
REMARK    3  A    between atoms: C_9  and  N_10 
REMARK       I    between atoms: N_10  and  C_11 
REMARK       I    between atoms: C_11  and  N_12 
REMARK    4  A    between atoms: N_12  and  C_13 
REMARK    5  A    between atoms: C_14  and  O_15 
REMARK    6  A    between atoms: C_18  and  O_19 
REMARK    7  A    between atoms: C_26  and  N_27 
ROOT
HETATM    1  C   UNL     1     -42.578  57.019 -56.482  1.00  0.00     0.118 C 
HETATM    2  C   UNL     1     -42.110  57.433 -57.876  1.00  0.00     0.037 C 
ENDROOT
BRANCH   1   3
HETATM    3  C   UNL     1     -43.672  57.955 -55.962  1.00  0.00     0.006 A 
HETATM    4  C   UNL     1     -43.836  58.302 -54.544  1.00  0.00    -0.031 A 
HETATM    5  C   UNL     1     -44.857  59.206 -54.336  1.00  0.00     0.017 A 
HETATM    6  C   UNL     1     -43.008  57.831 -53.374  1.00  0.00     0.068 C 
HETATM    7  C   UNL     1     -45.281  59.762 -53.018  1.00  0.00     0.281 C 
HETATM    8  S   UNL     1     -45.632  59.643 -55.764  1.00  0.00    -0.074 SA
HETATM    9  N   UNL     1     -44.194  59.585 -51.964  1.00  0.00    -0.067 N 
HETATM   10  H   UNL     1     -44.657  59.684 -51.053  1.00  0.00     0.280 HD
HETATM   11  C   UNL     1     -43.652  58.163 -52.014  1.00  0.00     0.240 C 
HETATM   12  C   UNL     1     -44.649  58.616 -56.717  1.00  0.00     0.089 A 
BRANCH   9  13
HETATM   13  C   UNL     1     -43.106  60.636 -52.023  1.00  0.00     0.231 C 
HETATM   14  C   UNL     1     -42.247  60.577 -50.772  1.00  0.00     0.034 C 
ENDBRANCH   9  13
BRANCH  12  15
HETATM   15  N   UNL     1     -44.960  58.565 -58.102  1.00  0.00    -0.327 N 
HETATM   16  C   UNL     1     -44.694  59.547 -59.054  1.00  0.00     0.097 A 
HETATM   17  C   UNL     1     -45.124  59.138 -60.297  1.00  0.00     0.019 A 
HETATM   18  C   UNL     1     -45.702  57.872 -60.130  1.00  0.00     0.019 A 
HETATM   19  C   UNL     1     -45.609  57.556 -58.793  1.00  0.00     0.097 A 
ENDBRANCH  12  15
ENDBRANCH   1   3
BRANCH   1  20
HETATM   20  N   UNL     1     -43.038  55.642 -56.291  1.00  0.00    -0.334 N 
HETATM   21  C   UNL     1     -42.710  54.701 -55.357  1.00  0.00     0.321 C 
HETATM   22  N   UNL     1     -41.394  54.663 -54.989  1.00  0.00    -0.306 N 
HETATM   23  O   UNL     1     -43.567  53.876 -55.058  1.00  0.00    -0.247 OA
HETATM   24  H   UNL     1     -40.777  54.933 -55.731  1.00  0.00     0.171 HD
HETATM   25  H   UNL     1     -44.021  55.523 -56.512  1.00  0.00     0.165 HD
BRANCH  22  26
HETATM   26  C   UNL     1     -40.868  53.709 -54.088  1.00  0.00     0.071 A 
HETATM   27  C   UNL     1     -40.708  53.949 -52.711  1.00  0.00     0.097 A 
HETATM   28  C   UNL     1     -40.217  52.922 -51.888  1.00  0.00     0.077 A 
HETATM   29  C   UNL     1     -39.845  51.682 -52.427  1.00  0.00     0.092 A 
HETATM   30  C   UNL     1     -39.966  51.481 -53.808  1.00  0.00     0.069 A 
HETATM   31 CL   UNL     1     -39.530  49.980 -54.552  1.00  0.00    -0.081 Cl
HETATM   32  C   UNL     1     -40.454  52.491 -54.636  1.00  0.00     0.059 A 
BRANCH  27  33
HETATM   33  O   UNL     1     -40.990  55.219 -52.275  1.00  0.00    -0.354 OA
HETATM   34  C   UNL     1     -41.314  55.388 -50.902  1.00  0.00     0.210 C 
ENDBRANCH  27  33
BRANCH  29  35
HETATM   35  O   UNL     1     -39.369  50.625 -51.696  1.00  0.00    -0.354 OA
HETATM   36  C   UNL     1     -39.989  50.348 -50.448  1.00  0.00     0.210 C 
ENDBRANCH  29  35
ENDBRANCH  22  26
ENDBRANCH   1  20
TORSDOF 7
ENDMDL
MODEL 4
REMARK VINA RESULT:      -7.4      1.731      4.810
REMARK  7 active torsions:
REMARK  status: ('A' for Active; 'I' for Inactive)
REMARK    1  A    between atoms: C_2  and  N_3 
REMARK    2  A    between atoms: C_8  and  C_9 
REMARK    3  A    between atoms: C_9  and  N_10 
REMARK       I    between atoms: N_10  and  C_11 
REMARK       I    between atoms: C_11  and  N_12 
REMARK    4  A    between atoms: N_12  and  C_13 
REMARK    5  A    between atoms: C_14  and  O_15 
REMARK    6  A    between atoms: C_18  and  O_19 
REMARK    7  A    between atoms: C_26  and  N_27 
ROOT
HETATM    1  C   UNL     1     -42.574  57.180 -58.022  1.00  0.00     0.118 C 
HETATM    2  C   UNL     1     -42.239  57.527 -59.472  1.00  0.00     0.037 C 
ENDROOT
BRANCH   1   3
HETATM    3  C   UNL     1     -43.774  57.989 -57.519  1.00  0.00     0.006 A 
HETATM    4  C   UNL     1     -43.712  58.900 -56.369  1.00  0.00    -0.031 A 
HETATM    5  C   UNL     1     -44.907  59.553 -56.149  1.00  0.00     0.017 A 
HETATM    6  C   UNL     1     -42.523  59.207 -55.493  1.00  0.00     0.068 C 
HETATM    7  C   UNL     1     -45.179  60.544 -55.067  1.00  0.00     0.281 C 
HETATM    8  S   UNL     1     -46.097  59.111 -57.253  1.00  0.00    -0.074 SA
HETATM    9  N   UNL     1     -43.885  61.107 -54.491  1.00  0.00    -0.067 N 
HETATM   10  H   UNL     1     -44.127  61.509 -53.577  1.00  0.00     0.280 HD
HETATM   11  C   UNL     1     -42.905  59.974 -54.213  1.00  0.00     0.240 C 
HETATM   12  C   UNL     1     -45.068  58.002 -58.054  1.00  0.00     0.089 A 
BRANCH   9  13
HETATM   13  C   UNL     1     -43.281  62.223 -55.317  1.00  0.00     0.231 C 
HETATM   14  C   UNL     1     -44.171  63.453 -55.273  1.00  0.00     0.034 C 
ENDBRANCH   9  13
BRANCH  12  15
HETATM   15  N   UNL     1     -45.656  57.259 -59.112  1.00  0.00    -0.327 N 
HETATM   16  C   UNL     1     -46.718  57.656 -59.922  1.00  0.00     0.097 A 
HETATM   17  C   UNL     1     -47.002  56.681 -60.852  1.00  0.00     0.019 A 
HETATM   18  C   UNL     1     -46.114  55.622 -60.614  1.00  0.00     0.019 A 
HETATM   19  C   UNL     1     -45.324  55.986 -59.546  1.00  0.00     0.097 A 
ENDBRANCH  12  15
ENDBRANCH   1   3
BRANCH   1  20
HETATM   20  N   UNL     1     -42.809  55.774 -57.687  1.00  0.00    -0.334 N 
HETATM   21  C   UNL     1     -42.649  55.085 -56.520  1.00  0.00     0.321 C 
HETATM   22  N   UNL     1     -41.550  55.421 -55.778  1.00  0.00    -0.306 N 
HETATM   23  O   UNL     1     -43.388  54.127 -56.319  1.00  0.00    -0.247 OA
HETATM   24  H   UNL     1     -40.780  55.725 -56.342  1.00  0.00     0.171 HD
HETATM   25  H   UNL     1     -43.621  55.390 -58.159  1.00  0.00     0.165 HD
BRANCH  22  26
HETATM   26  C   UNL     1     -41.192  54.762 -54.579  1.00  0.00     0.071 A 
HETATM   27  C   UNL     1     -41.484  55.270 -53.300  1.00  0.00     0.097 A 
HETATM   28  C   UNL     1     -41.125  54.520 -52.166  1.00  0.00     0.077 A 
HETATM   29  C   UNL     1     -40.447  53.300 -52.294  1.00  0.00     0.092 A 
HETATM   30  C   UNL     1     -40.123  52.837 -53.576  1.00  0.00     0.069 A 
HETATM   31 CL   UNL     1     -39.288  51.341 -53.821  1.00  0.00    -0.081 Cl
HETATM   32  C   UNL     1     -40.474  53.570 -54.709  1.00  0.00     0.059 A 
BRANCH  27  33
HETATM   33  O   UNL     1     -42.050  56.518 -53.251  1.00  0.00    -0.354 OA
HETATM   34  C   UNL     1     -43.380  56.620 -52.760  1.00  0.00     0.210 C 
ENDBRANCH  27  33
BRANCH  29  35
HETATM   35  O   UNL     1     -40.071  52.502 -51.246  1.00  0.00    -0.354 OA
HETATM   36  C   UNL     1     -40.428  52.918 -49.935  1.00  0.00     0.210 C 
ENDBRANCH  29  35
ENDBRANCH  22  26
ENDBRANCH   1  20
TORSDOF 7
ENDMDL
MODEL 5
REMARK VINA RESULT:      -7.4      3.171      5.475
REMARK  7 active torsions:
REMARK  status: ('A' for Active; 'I' for Inactive)
REMARK    1  A    between atoms: C_2  and  N_3 
REMARK    2  A    between atoms: C_8  and  C_9 
REMARK    3  A    between atoms: C_9  and  N_10 
REMARK       I    between atoms: N_10  and  C_11 
REMARK       I    between atoms: C_11  and  N_12 
REMARK    4  A    between atoms: N_12  and  C_13 
REMARK    5  A    between atoms: C_14  and  O_15 
REMARK    6  A    between atoms: C_18  and  O_19 
REMARK    7  A    between atoms: C_26  and  N_27 
ROOT
HETATM    1  C   UNL     1     -43.621  58.263 -51.259  1.00  0.00     0.118 C 
HETATM    2  C   UNL     1     -42.113  58.503 -51.231  1.00  0.00     0.037 C 
ENDROOT
BRANCH   1   3
HETATM    3  C   UNL     1     -44.273  58.956 -52.460  1.00  0.00     0.006 A 
HETATM    4  C   UNL     1     -45.139  60.136 -52.342  1.00  0.00    -0.031 A 
HETATM    5  C   UNL     1     -45.557  60.608 -53.569  1.00  0.00     0.017 A 
HETATM    6  C   UNL     1     -45.545  60.866 -51.085  1.00  0.00     0.068 C 
HETATM    7  C   UNL     1     -46.441  61.788 -53.800  1.00  0.00     0.281 C 
HETATM    8  S   UNL     1     -44.967  59.690 -54.849  1.00  0.00    -0.074 SA
HETATM    9  N   UNL     1     -46.483  62.699 -52.578  1.00  0.00    -0.067 N 
HETATM   10  H   UNL     1     -47.324  63.281 -52.681  1.00  0.00     0.280 HD
HETATM   11  C   UNL     1     -46.692  61.868 -51.319  1.00  0.00     0.240 C 
HETATM   12  C   UNL     1     -44.149  58.603 -53.809  1.00  0.00     0.089 A 
BRANCH   9  13
HETATM   13  C   UNL     1     -45.303  63.642 -52.477  1.00  0.00     0.231 C 
HETATM   14  C   UNL     1     -45.480  64.583 -51.297  1.00  0.00     0.034 C 
ENDBRANCH   9  13
BRANCH  12  15
HETATM   15  N   UNL     1     -43.488  57.516 -54.439  1.00  0.00    -0.327 N 
HETATM   16  C   UNL     1     -44.033  56.269 -54.742  1.00  0.00     0.097 A 
HETATM   17  C   UNL     1     -43.098  55.477 -55.368  1.00  0.00     0.019 A 
HETATM   18  C   UNL     1     -41.916  56.227 -55.446  1.00  0.00     0.019 A 
HETATM   19  C   UNL     1     -42.171  57.448 -54.861  1.00  0.00     0.097 A 
ENDBRANCH  12  15
ENDBRANCH   1   3
BRANCH   1  20
HETATM   20  N   UNL     1     -44.098  56.879 -51.227  1.00  0.00    -0.334 N 
HETATM   21  C   UNL     1     -43.438  55.700 -51.035  1.00  0.00     0.321 C 
HETATM   22  N   UNL     1     -42.203  55.609 -51.616  1.00  0.00    -0.306 N 
HETATM   23  O   UNL     1     -44.059  54.779 -50.515  1.00  0.00    -0.247 OA
HETATM   24  H   UNL     1     -42.133  56.142 -52.462  1.00  0.00     0.171 HD
HETATM   25  H   UNL     1     -45.012  56.790 -50.797  1.00  0.00     0.165 HD
BRANCH  22  26
HETATM   26  C   UNL     1     -41.412  54.438 -51.577  1.00  0.00     0.071 A 
HETATM   27  C   UNL     1     -40.799  53.956 -50.406  1.00  0.00     0.097 A 
HETATM   28  C   UNL     1     -40.067  52.758 -50.458  1.00  0.00     0.077 A 
HETATM   29  C   UNL     1     -39.904  52.064 -51.666  1.00  0.00     0.092 A 
HETATM   30  C   UNL     1     -40.481  52.589 -52.830  1.00  0.00     0.069 A 
HETATM   31 CL   UNL     1     -40.329  51.795 -54.360  1.00  0.00    -0.081 Cl
HETATM   32  C   UNL     1     -41.212  53.776 -52.791  1.00  0.00     0.059 A 
BRANCH  27  33
HETATM   33  O   UNL     1     -40.911  54.743 -49.289  1.00  0.00    -0.354 OA
HETATM   34  C   UNL     1     -40.468  54.200 -48.052  1.00  0.00     0.210 C 
ENDBRANCH  27  33
BRANCH  29  35
HETATM   35  O   UNL     1     -39.217  50.887 -51.804  1.00  0.00    -0.354 OA
HETATM   36  C   UNL     1     -39.541  49.823 -50.919  1.00  0.00     0.210 C 
ENDBRANCH  29  35
ENDBRANCH  22  26
ENDBRANCH   1  20
TORSDOF 7
ENDMDL
MODEL 6
REMARK VINA RESULT:      -7.3      3.582      7.568
REMARK  7 active torsions:
REMARK  status: ('A' for Active; 'I' for Inactive)
REMARK    1  A    between atoms: C_2  and  N_3 
REMARK    2  A    between atoms: C_8  and  C_9 
REMARK    3  A    between atoms: C_9  and  N_10 
REMARK       I    between atoms: N_10  and  C_11 
REMARK       I    between atoms: C_11  and  N_12 
REMARK    4  A    between atoms: N_12  and  C_13 
REMARK    5  A    between atoms: C_14  and  O_15 
REMARK    6  A    between atoms: C_18  and  O_19 
REMARK    7  A    between atoms: C_26  and  N_27 
ROOT
HETATM    1  C   UNL     1     -40.989  58.387 -53.260  1.00  0.00     0.118 C 
HETATM    2  C   UNL     1     -40.086  59.138 -52.283  1.00  0.00     0.037 C 
ENDROOT
BRANCH   1   3
HETATM    3  C   UNL     1     -42.020  57.532 -52.518  1.00  0.00     0.006 A 
HETATM    4  C   UNL     1     -41.965  56.065 -52.459  1.00  0.00    -0.031 A 
HETATM    5  C   UNL     1     -42.974  55.530 -51.685  1.00  0.00     0.017 A 
HETATM    6  C   UNL     1     -40.941  55.151 -53.085  1.00  0.00     0.068 C 
HETATM    7  C   UNL     1     -43.200  54.079 -51.420  1.00  0.00     0.281 C 
HETATM    8  S   UNL     1     -43.986  56.709 -51.040  1.00  0.00    -0.074 SA
HETATM    9  N   UNL     1     -41.951  53.258 -51.718  1.00  0.00    -0.067 N 
HETATM   10  H   UNL     1     -42.264  52.286 -51.826  1.00  0.00     0.280 HD
HETATM   11  C   UNL     1     -41.369  53.671 -53.063  1.00  0.00     0.240 C 
HETATM   12  C   UNL     1     -43.131  57.984 -51.796  1.00  0.00     0.089 A 
BRANCH   9  13
HETATM   13  C   UNL     1     -40.928  53.271 -50.601  1.00  0.00     0.231 C 
HETATM   14  C   UNL     1     -40.150  51.966 -50.584  1.00  0.00     0.034 C 
ENDBRANCH   9  13
BRANCH  12  15
HETATM   15  N   UNL     1     -43.660  59.289 -51.604  1.00  0.00    -0.327 N 
HETATM   16  C   UNL     1     -44.815  59.814 -52.180  1.00  0.00     0.097 A 
HETATM   17  C   UNL     1     -45.022  61.104 -51.747  1.00  0.00     0.019 A 
HETATM   18  C   UNL     1     -43.957  61.421 -50.891  1.00  0.00     0.019 A 
HETATM   19  C   UNL     1     -43.138  60.315 -50.836  1.00  0.00     0.097 A 
ENDBRANCH  12  15
ENDBRANCH   1   3
BRANCH   1  20
HETATM   20  N   UNL     1     -41.699  59.164 -54.278  1.00  0.00    -0.334 N 
HETATM   21  C   UNL     1     -42.407  58.776 -55.379  1.00  0.00     0.321 C 
HETATM   22  N   UNL     1     -41.891  57.716 -56.073  1.00  0.00    -0.306 N 
HETATM   23  O   UNL     1     -43.329  59.497 -55.744  1.00  0.00    -0.247 OA
HETATM   24  H   UNL     1     -40.892  57.670 -56.023  1.00  0.00     0.171 HD
HETATM   25  H   UNL     1     -42.156  59.985 -53.895  1.00  0.00     0.165 HD
BRANCH  22  26
HETATM   26  C   UNL     1     -42.456  57.228 -57.274  1.00  0.00     0.071 A 
HETATM   27  C   UNL     1     -42.811  55.881 -57.471  1.00  0.00     0.097 A 
HETATM   28  C   UNL     1     -43.406  55.499 -58.686  1.00  0.00     0.077 A 
HETATM   29  C   UNL     1     -43.609  56.432 -59.713  1.00  0.00     0.092 A 
HETATM   30  C   UNL     1     -43.203  57.758 -59.514  1.00  0.00     0.069 A 
HETATM   31 CL   UNL     1     -43.419  58.969 -60.730  1.00  0.00    -0.081 Cl
HETATM   32  C   UNL     1     -42.613  58.149 -58.313  1.00  0.00     0.059 A 
BRANCH  27  33
HETATM   33  O   UNL     1     -42.483  55.008 -56.466  1.00  0.00    -0.354 OA
HETATM   34  C   UNL     1     -43.521  54.201 -55.928  1.00  0.00     0.210 C 
ENDBRANCH  27  33
BRANCH  29  35
HETATM   35  O   UNL     1     -44.191  56.148 -60.921  1.00  0.00    -0.354 OA
HETATM   36  C   UNL     1     -45.052  55.020 -60.993  1.00  0.00     0.210 C 
ENDBRANCH  29  35
ENDBRANCH  22  26
ENDBRANCH   1  20
TORSDOF 7
ENDMDL
MODEL 7
REMARK VINA RESULT:      -7.3      2.299      5.097
REMARK  7 active torsions:
REMARK  status: ('A' for Active; 'I' for Inactive)
REMARK    1  A    between atoms: C_2  and  N_3 
REMARK    2  A    between atoms: C_8  and  C_9 
REMARK    3  A    between atoms: C_9  and  N_10 
REMARK       I    between atoms: N_10  and  C_11 
REMARK       I    between atoms: C_11  and  N_12 
REMARK    4  A    between atoms: N_12  and  C_13 
REMARK    5  A    between atoms: C_14  and  O_15 
REMARK    6  A    between atoms: C_18  and  O_19 
REMARK    7  A    between atoms: C_26  and  N_27 
ROOT
HETATM    1  C   UNL     1     -42.539  58.033 -53.368  1.00  0.00     0.118 C 
HETATM    2  C   UNL     1     -41.148  58.498 -53.792  1.00  0.00     0.037 C 
ENDROOT
BRANCH   1   3
HETATM    3  C   UNL     1     -43.617  59.030 -53.805  1.00  0.00     0.006 A 
HETATM    4  C   UNL     1     -44.621  59.591 -52.892  1.00  0.00    -0.031 A 
HETATM    5  C   UNL     1     -45.444  60.508 -53.512  1.00  0.00     0.017 A 
HETATM    6  C   UNL     1     -44.790  59.314 -51.418  1.00  0.00     0.068 C 
HETATM    7  C   UNL     1     -46.561  61.259 -52.868  1.00  0.00     0.281 C 
HETATM    8  S   UNL     1     -45.071  60.712 -55.140  1.00  0.00    -0.074 SA
HETATM    9  N   UNL     1     -46.432  61.256 -51.350  1.00  0.00    -0.067 N 
HETATM   10  H   UNL     1     -47.361  61.491 -50.981  1.00  0.00     0.280 HD
HETATM   11  C   UNL     1     -46.123  59.847 -50.859  1.00  0.00     0.240 C 
HETATM   12  C   UNL     1     -43.809  59.558 -55.088  1.00  0.00     0.089 A 
BRANCH   9  13
HETATM   13  C   UNL     1     -45.468  62.294 -50.815  1.00  0.00     0.231 C 
HETATM   14  C   UNL     1     -45.906  62.760 -49.437  1.00  0.00     0.034 C 
ENDBRANCH   9  13
BRANCH  12  15
HETATM   15  N   UNL     1     -43.158  59.290 -56.322  1.00  0.00    -0.327 N 
HETATM   16  C   UNL     1     -42.201  60.085 -56.951  1.00  0.00     0.097 A 
HETATM   17  C   UNL     1     -41.784  59.495 -58.122  1.00  0.00     0.019 A 
HETATM   18  C   UNL     1     -42.511  58.304 -58.258  1.00  0.00     0.019 A 
HETATM   19  C   UNL     1     -43.348  58.212 -57.169  1.00  0.00     0.097 A 
ENDBRANCH  12  15
ENDBRANCH   1   3
BRANCH   1  20
HETATM   20  N   UNL     1     -42.973  56.696 -53.778  1.00  0.00    -0.334 N 
HETATM   21  C   UNL     1     -42.620  55.455 -53.330  1.00  0.00     0.321 C 
HETATM   22  N   UNL     1     -41.300  55.291 -53.015  1.00  0.00    -0.306 N 
HETATM   23  O   UNL     1     -43.460  54.564 -53.408  1.00  0.00    -0.247 OA
HETATM   24  H   UNL     1     -40.695  55.862 -53.573  1.00  0.00     0.171 HD
HETATM   25  H   UNL     1     -43.956  56.662 -54.026  1.00  0.00     0.165 HD
BRANCH  22  26
HETATM   26  C   UNL     1     -40.748  54.055 -52.604  1.00  0.00     0.071 A 
HETATM   27  C   UNL     1     -40.377  53.777 -51.276  1.00  0.00     0.097 A 
HETATM   28  C   UNL     1     -39.877  52.503 -50.956  1.00  0.00     0.077 A 
HETATM   29  C   UNL     1     -39.706  51.526 -51.948  1.00  0.00     0.092 A 
HETATM   30  C   UNL     1     -40.036  51.842 -53.272  1.00  0.00     0.069 A 
HETATM   31 CL   UNL     1     -39.855  50.694 -54.555  1.00  0.00    -0.081 Cl
HETATM   32  C   UNL     1     -40.534  53.101 -53.602  1.00  0.00     0.059 A 
BRANCH  27  33
HETATM   33  O   UNL     1     -40.471  54.814 -50.384  1.00  0.00    -0.354 OA
HETATM   34  C   UNL     1     -41.536  54.781 -49.443  1.00  0.00     0.210 C 
ENDBRANCH  27  33
BRANCH  29  35
HETATM   35  O   UNL     1     -39.237  50.259 -51.722  1.00  0.00    -0.354 OA
HETATM   36  C   UNL     1     -39.773  49.540 -50.619  1.00  0.00     0.210 C 
ENDBRANCH  29  35
ENDBRANCH  22  26
ENDBRANCH   1  20
TORSDOF 7
ENDMDL
MODEL 8
REMARK VINA RESULT:      -7.3      3.634      7.746
REMARK  7 active torsions:
REMARK  status: ('A' for Active; 'I' for Inactive)
REMARK    1  A    between atoms: C_2  and  N_3 
REMARK    2  A    between atoms: C_8  and  C_9 
REMARK    3  A    between atoms: C_9  and  N_10 
REMARK       I    between atoms: N_10  and  C_11 
REMARK       I    between atoms: C_11  and  N_12 
REMARK    4  A    between atoms: N_12  and  C_13 
REMARK    5  A    between atoms: C_14  and  O_15 
REMARK    6  A    between atoms: C_18  and  O_19 
REMARK    7  A    between atoms: C_26  and  N_27 
ROOT
HETATM    1  C   UNL     1     -40.886  58.232 -53.724  1.00  0.00     0.118 C 
HETATM    2  C   UNL     1     -39.883  59.040 -52.902  1.00  0.00     0.037 C 
ENDROOT
BRANCH   1   3
HETATM    3  C   UNL     1     -41.675  57.261 -52.840  1.00  0.00     0.006 A 
HETATM    4  C   UNL     1     -41.581  55.800 -52.957  1.00  0.00    -0.031 A 
HETATM    5  C   UNL     1     -42.346  55.146 -52.013  1.00  0.00     0.017 A 
HETATM    6  C   UNL     1     -40.739  55.000 -53.919  1.00  0.00     0.068 C 
HETATM    7  C   UNL     1     -42.470  53.667 -51.858  1.00  0.00     0.281 C 
HETATM    8  S   UNL     1     -43.177  56.207 -51.007  1.00  0.00    -0.074 SA
HETATM    9  N   UNL     1     -41.327  52.936 -52.553  1.00  0.00    -0.067 N 
HETATM   10  H   UNL     1     -41.640  51.967 -52.682  1.00  0.00     0.280 HD
HETATM   11  C   UNL     1     -41.120  53.507 -53.949  1.00  0.00     0.240 C 
HETATM   12  C   UNL     1     -42.569  57.589 -51.813  1.00  0.00     0.089 A 
BRANCH   9  13
HETATM   13  C   UNL     1     -40.050  52.883 -51.740  1.00  0.00     0.231 C 
HETATM   14  C   UNL     1     -40.366  52.628 -50.277  1.00  0.00     0.034 C 
ENDBRANCH   9  13
BRANCH  12  15
HETATM   15  N   UNL     1     -43.053  58.842 -51.353  1.00  0.00    -0.327 N 
HETATM   16  C   UNL     1     -42.330  59.815 -50.664  1.00  0.00     0.097 A 
HETATM   17  C   UNL     1     -43.127  60.905 -50.398  1.00  0.00     0.019 A 
HETATM   18  C   UNL     1     -44.400  60.612 -50.908  1.00  0.00     0.019 A 
HETATM   19  C   UNL     1     -44.335  59.353 -51.462  1.00  0.00     0.097 A 
ENDBRANCH  12  15
ENDBRANCH   1   3
BRANCH   1  20
HETATM   20  N   UNL     1     -41.846  58.964 -54.553  1.00  0.00    -0.334 N 
HETATM   21  C   UNL     1     -42.590  58.576 -55.630  1.00  0.00     0.321 C 
HETATM   22  N   UNL     1     -41.966  57.736 -56.511  1.00  0.00    -0.306 N 
HETATM   23  O   UNL     1     -43.669  59.132 -55.804  1.00  0.00    -0.247 OA
HETATM   24  H   UNL     1     -40.978  57.889 -56.558  1.00  0.00     0.171 HD
HETATM   25  H   UNL     1     -42.403  59.622 -54.019  1.00  0.00     0.165 HD
BRANCH  22  26
HETATM   26  C   UNL     1     -42.563  57.291 -57.713  1.00  0.00     0.071 A 
HETATM   27  C   UNL     1     -42.666  58.088 -58.867  1.00  0.00     0.097 A 
HETATM   28  C   UNL     1     -43.238  57.543 -60.029  1.00  0.00     0.077 A 
HETATM   29  C   UNL     1     -43.744  56.235 -60.038  1.00  0.00     0.092 A 
HETATM   30  C   UNL     1     -43.675  55.475 -58.863  1.00  0.00     0.069 A 
HETATM   31 CL   UNL     1     -44.275  53.854 -58.789  1.00  0.00    -0.081 Cl
HETATM   32  C   UNL     1     -43.109  56.004 -57.704  1.00  0.00     0.059 A 
BRANCH  27  33
HETATM   33  O   UNL     1     -42.250  59.390 -58.751  1.00  0.00    -0.354 OA
HETATM   34  C   UNL     1     -42.678  60.310 -59.746  1.00  0.00     0.210 C 
ENDBRANCH  27  33
BRANCH  29  35
HETATM   35  O   UNL     1     -44.306  55.622 -61.127  1.00  0.00    -0.354 OA
HETATM   36  C   UNL     1     -45.713  55.730 -61.295  1.00  0.00     0.210 C 
ENDBRANCH  29  35
ENDBRANCH  22  26
ENDBRANCH   1  20
TORSDOF 7
ENDMDL
MODEL 9
REMARK VINA RESULT:      -7.3      3.342      7.664
REMARK  7 active torsions:
REMARK  status: ('A' for Active; 'I' for Inactive)
REMARK    1  A    between atoms: C_2  and  N_3 
REMARK    2  A    between atoms: C_8  and  C_9 
REMARK    3  A    between atoms: C_9  and  N_10 
REMARK       I    between atoms: N_10  and  C_11 
REMARK       I    between atoms: C_11  and  N_12 
REMARK    4  A    between atoms: N_12  and  C_13 
REMARK    5  A    between atoms: C_14  and  O_15 
REMARK    6  A    between atoms: C_18  and  O_19 
REMARK    7  A    between atoms: C_26  and  N_27 
ROOT
HETATM    1  C   UNL     1     -43.689  54.833 -52.399  1.00  0.00     0.118 C 
HETATM    2  C   UNL     1     -44.062  53.903 -51.246  1.00  0.00     0.037 C 
ENDROOT
BRANCH   1   3
HETATM    3  C   UNL     1     -43.037  56.121 -51.886  1.00  0.00     0.006 A 
HETATM    4  C   UNL     1     -43.533  57.465 -52.210  1.00  0.00    -0.031 A 
HETATM    5  C   UNL     1     -42.810  58.459 -51.583  1.00  0.00     0.017 A 
HETATM    6  C   UNL     1     -44.717  57.833 -53.070  1.00  0.00     0.068 C 
HETATM    7  C   UNL     1     -43.055  59.927 -51.699  1.00  0.00     0.281 C 
HETATM    8  S   UNL     1     -41.560  57.849 -50.637  1.00  0.00    -0.074 SA
HETATM    9  N   UNL     1     -44.457  60.217 -52.222  1.00  0.00    -0.067 N 
HETATM   10  H   UNL     1     -44.439  61.183 -52.573  1.00  0.00     0.280 HD
HETATM   11  C   UNL     1     -44.755  59.332 -53.425  1.00  0.00     0.240 C 
HETATM   12  C   UNL     1     -41.918  56.228 -51.052  1.00  0.00     0.089 A 
BRANCH   9  13
HETATM   13  C   UNL     1     -45.533  60.154 -51.159  1.00  0.00     0.231 C 
HETATM   14  C   UNL     1     -45.025  60.751 -49.858  1.00  0.00     0.034 C 
ENDBRANCH   9  13
BRANCH  12  15
HETATM   15  N   UNL     1     -41.045  55.242 -50.519  1.00  0.00    -0.327 N 
HETATM   16  C   UNL     1     -40.786  54.995 -49.172  1.00  0.00     0.097 A 
HETATM   17  C   UNL     1     -39.900  53.950 -49.039  1.00  0.00     0.019 A 
HETATM   18  C   UNL     1     -39.564  53.534 -50.335  1.00  0.00     0.019 A 
HETATM   19  C   UNL     1     -40.252  54.342 -51.212  1.00  0.00     0.097 A 
ENDBRANCH  12  15
ENDBRANCH   1   3
BRANCH   1  20
HETATM   20  N   UNL     1     -42.844  54.299 -53.469  1.00  0.00    -0.334 N 
HETATM   21  C   UNL     1     -42.418  54.850 -54.643  1.00  0.00     0.321 C 
HETATM   22  N   UNL     1     -43.332  55.627 -55.301  1.00  0.00    -0.306 N 
HETATM   23  O   UNL     1     -41.337  54.475 -55.087  1.00  0.00    -0.247 OA
HETATM   24  H   UNL     1     -44.275  55.325 -55.151  1.00  0.00     0.171 HD
HETATM   25  H   UNL     1     -42.096  53.709 -53.120  1.00  0.00     0.165 HD
BRANCH  22  26
HETATM   26  C   UNL     1     -43.083  56.216 -56.562  1.00  0.00     0.071 A 
HETATM   27  C   UNL     1     -42.439  57.456 -56.723  1.00  0.00     0.097 A 
HETATM   28  C   UNL     1     -42.198  57.941 -58.021  1.00  0.00     0.077 A 
HETATM   29  C   UNL     1     -42.629  57.226 -59.148  1.00  0.00     0.092 A 
HETATM   30  C   UNL     1     -43.312  56.017 -58.963  1.00  0.00     0.069 A 
HETATM   31 CL   UNL     1     -43.876  55.075 -60.300  1.00  0.00    -0.081 Cl
HETATM   32  C   UNL     1     -43.556  55.525 -57.681  1.00  0.00     0.059 A 
BRANCH  27  33
HETATM   33  O   UNL     1     -42.145  58.147 -55.576  1.00  0.00    -0.354 OA
HETATM   34  C   UNL     1     -42.074  59.564 -55.659  1.00  0.00     0.210 C 
ENDBRANCH  27  33
BRANCH  29  35
HETATM   35  O   UNL     1     -42.427  57.619 -60.445  1.00  0.00    -0.354 OA
HETATM   36  C   UNL     1     -42.016  58.960 -60.675  1.00  0.00     0.210 C 
ENDBRANCH  29  35
ENDBRANCH  22  26
ENDBRANCH   1  20
TORSDOF 7
ENDMDL
MODEL 10
REMARK VINA RESULT:      -7.2      3.765      8.751
REMARK  7 active torsions:
REMARK  status: ('A' for Active; 'I' for Inactive)
REMARK    1  A    between atoms: C_2  and  N_3 
REMARK    2  A    between atoms: C_8  and  C_9 
REMARK    3  A    between atoms: C_9  and  N_10 
REMARK       I    between atoms: N_10  and  C_11 
REMARK       I    between atoms: C_11  and  N_12 
REMARK    4  A    between atoms: N_12  and  C_13 
REMARK    5  A    between atoms: C_14  and  O_15 
REMARK    6  A    between atoms: C_18  and  O_19 
REMARK    7  A    between atoms: C_26  and  N_27 
ROOT
HETATM    1  C   UNL     1     -40.880  53.663 -54.335  1.00  0.00     0.118 C 
HETATM    2  C   UNL     1     -39.865  54.563 -55.037  1.00  0.00     0.037 C 
ENDROOT
BRANCH   1   3
HETATM    3  C   UNL     1     -40.929  53.948 -52.831  1.00  0.00     0.006 A 
HETATM    4  C   UNL     1     -41.319  55.246 -52.264  1.00  0.00    -0.031 A 
HETATM    5  C   UNL     1     -41.340  55.234 -50.885  1.00  0.00     0.017 A 
HETATM    6  C   UNL     1     -41.725  56.496 -53.005  1.00  0.00     0.068 C 
HETATM    7  C   UNL     1     -41.694  56.385 -50.004  1.00  0.00     0.281 C 
HETATM    8  S   UNL     1     -40.899  53.742 -50.246  1.00  0.00    -0.074 SA
HETATM    9  N   UNL     1     -42.465  57.455 -50.768  1.00  0.00    -0.067 N 
HETATM   10  H   UNL     1     -42.388  58.317 -50.215  1.00  0.00     0.280 HD
HETATM   11  C   UNL     1     -41.777  57.739 -52.097  1.00  0.00     0.240 C 
HETATM   12  C   UNL     1     -40.635  53.057 -51.792  1.00  0.00     0.089 A 
BRANCH   9  13
HETATM   13  C   UNL     1     -43.941  57.156 -50.918  1.00  0.00     0.231 C 
HETATM   14  C   UNL     1     -44.747  58.443 -50.880  1.00  0.00     0.034 C 
ENDBRANCH   9  13
BRANCH  12  15
HETATM   15  N   UNL     1     -40.153  51.721 -51.807  1.00  0.00    -0.327 N 
HETATM   16  C   UNL     1     -39.989  50.880 -50.708  1.00  0.00     0.097 A 
HETATM   17  C   UNL     1     -39.516  49.651 -51.112  1.00  0.00     0.019 A 
HETATM   18  C   UNL     1     -39.351  49.717 -52.503  1.00  0.00     0.019 A 
HETATM   19  C   UNL     1     -39.723  50.983 -52.897  1.00  0.00     0.097 A 
ENDBRANCH  12  15
ENDBRANCH   1   3
BRANCH   1  20
HETATM   20  N   UNL     1     -42.256  53.656 -54.835  1.00  0.00    -0.334 N 
HETATM   21  C   UNL     1     -42.867  54.394 -55.808  1.00  0.00     0.321 C 
HETATM   22  N   UNL     1     -42.498  55.709 -55.876  1.00  0.00    -0.306 N 
HETATM   23  O   UNL     1     -43.797  53.873 -56.415  1.00  0.00    -0.247 OA
HETATM   24  H   UNL     1     -42.246  56.086 -54.983  1.00  0.00     0.171 HD
HETATM   25  H   UNL     1     -42.658  52.725 -54.860  1.00  0.00     0.165 HD
BRANCH  22  26
HETATM   26  C   UNL     1     -43.081  56.632 -56.775  1.00  0.00     0.071 A 
HETATM   27  C   UNL     1     -44.173  57.454 -56.442  1.00  0.00     0.097 A 
HETATM   28  C   UNL     1     -44.655  58.372 -57.391  1.00  0.00     0.077 A 
HETATM   29  C   UNL     1     -44.090  58.447 -58.673  1.00  0.00     0.092 A 
HETATM   30  C   UNL     1     -43.035  57.585 -58.999  1.00  0.00     0.069 A 
HETATM   31 CL   UNL     1     -42.283  57.614 -60.557  1.00  0.00    -0.081 Cl
HETATM   32  C   UNL     1     -42.547  56.670 -58.066  1.00  0.00     0.059 A 
BRANCH  27  33
HETATM   33  O   UNL     1     -44.741  57.248 -55.211  1.00  0.00    -0.354 OA
HETATM   34  C   UNL     1     -45.041  58.392 -54.424  1.00  0.00     0.210 C 
ENDBRANCH  27  33
BRANCH  29  35
HETATM   35  O   UNL     1     -44.490  59.318 -59.652  1.00  0.00    -0.354 OA
HETATM   36  C   UNL     1     -44.103  60.680 -59.527  1.00  0.00     0.210 C 
ENDBRANCH  29  35
ENDBRANCH  22  26
ENDBRANCH   1  20
TORSDOF 7
ENDMDL
