MODEL 1
REMARK VINA RESULT:      -9.1      0.000      0.000
REMARK  7 active torsions:
REMARK  status: ('A' for Active; 'I' for Inactive)
REMARK    1  A    between atoms: C_4  and  C_5 
REMARK    2  A    between atoms: C_5  and  O_6 
REMARK    3  A    between atoms: C_5  and  C_7 
REMARK    4  A    between atoms: C_9  and  C_10 
REMARK    5  A    between atoms: C_10  and  N_11 
REMARK       I    between atoms: N_11  and  C_12 
REMARK    6  A    between atoms: C_12  and  C_13 
REMARK       I    between atoms: C_13  and  N_14 
REMARK    7  A    between atoms: N_14  and  C_15 
ROOT
HETATM    1  N   UNL     1     -42.654  58.668 -54.146  1.00  0.00    -0.348 N 
HETATM    2  C   UNL     1     -41.630  58.740 -53.235  1.00  0.00     0.310 C 
HETATM    3  O   UNL     1     -40.944  59.726 -52.996  1.00  0.00    -0.262 OA
HETATM    4  H   UNL     1     -43.054  57.748 -54.315  1.00  0.00     0.163 HD
ENDROOT
BRANCH   2   5
HETATM    5  C   UNL     1     -41.348  57.412 -52.498  1.00  0.00     0.313 C 
HETATM    6  N   UNL     1     -41.116  56.378 -53.380  1.00  0.00    -0.319 N 
HETATM    7  H   UNL     1     -41.162  56.648 -54.361  1.00  0.00     0.169 HD
HETATM    8  O   UNL     1     -41.378  57.398 -51.276  1.00  0.00    -0.262 OA
BRANCH   6   9
HETATM    9  C   UNL     1     -40.882  55.026 -53.083  1.00  0.00     0.036 A 
HETATM   10  C   UNL     1     -40.843  54.018 -54.045  1.00  0.00     0.039 A 
HETATM   11  C   UNL     1     -40.559  52.692 -53.680  1.00  0.00    -0.028 A 
HETATM   12  C   UNL     1     -40.327  52.365 -52.338  1.00  0.00     0.050 A 
HETATM   13  C   UNL     1     -40.592  51.598 -54.705  1.00  0.00     0.050 C 
HETATM   14  N   UNL     1     -40.022  51.023 -51.988  1.00  0.00    -0.317 N 
HETATM   15  C   UNL     1     -40.425  53.362 -51.357  1.00  0.00    -0.028 A 
HETATM   16  C   UNL     1     -39.695  50.060 -52.939  1.00  0.00     0.224 C 
HETATM   17  C   UNL     1     -39.869  50.666 -50.581  1.00  0.00     0.132 C 
HETATM   18  O   UNL     1     -39.409  48.897 -52.650  1.00  0.00    -0.273 OA
HETATM   19  C   UNL     1     -39.565  50.541 -54.367  1.00  0.00     0.108 C 
HETATM   20  C   UNL     1     -40.612  51.591 -49.633  1.00  0.00     0.025 C 
HETATM   21  C   UNL     1     -40.215  53.034 -49.904  1.00  0.00     0.042 C 
HETATM   22  C   UNL     1     -40.680  54.690 -51.739  1.00  0.00     0.039 A 
ENDBRANCH   6   9
ENDBRANCH   2   5
BRANCH   1  23
HETATM   23  C   UNL     1     -42.934  59.756 -55.044  1.00  0.00     0.169 C 
BRANCH  23  24
HETATM   24  C   UNL     1     -42.593  59.332 -56.433  1.00  0.00     0.001 A 
HETATM   25  S   UNL     1     -42.842  57.711 -56.929  1.00  0.00    -0.095 SA
HETATM   26  C   UNL     1     -42.239  58.019 -58.507  1.00  0.00     0.017 A 
HETATM   27  C   UNL     1     -41.865  59.344 -58.644  1.00  0.00     0.018 A 
HETATM   28  C   UNL     1     -42.071  60.098 -57.455  1.00  0.00     0.017 A 
BRANCH  26  29
HETATM   29  C   UNL     1     -42.175  56.900 -59.513  1.00  0.00     0.198 C 
BRANCH  29  30
HETATM   30  C   UNL     1     -43.519  56.314 -59.849  1.00  0.00     0.016 A 
HETATM   31  S   UNL     1     -44.806  57.354 -60.314  1.00  0.00    -0.103 SA
HETATM   32  C   UNL     1     -45.895  56.048 -60.475  1.00  0.00     0.050 A 
HETATM   33  C   UNL     1     -45.302  54.841 -60.184  1.00  0.00     0.008 A 
HETATM   34  C   UNL     1     -43.934  54.994 -59.818  1.00  0.00     0.018 A 
ENDBRANCH  29  30
BRANCH  29  35
HETATM   35  O   UNL     1     -41.655  57.446 -60.727  1.00  0.00    -0.385 OA
HETATM   36  H   UNL     1     -40.801  57.849 -60.493  1.00  0.00     0.210 HD
ENDBRANCH  29  35
ENDBRANCH  26  29
ENDBRANCH  23  24
ENDBRANCH   1  23
TORSDOF 7
ENDMDL
MODEL 2
REMARK VINA RESULT:      -8.9      1.624      2.756
REMARK  7 active torsions:
REMARK  status: ('A' for Active; 'I' for Inactive)
REMARK    1  A    between atoms: C_4  and  C_5 
REMARK    2  A    between atoms: C_5  and  O_6 
REMARK    3  A    between atoms: C_5  and  C_7 
REMARK    4  A    between atoms: C_9  and  C_10 
REMARK    5  A    between atoms: C_10  and  N_11 
REMARK       I    between atoms: N_11  and  C_12 
REMARK    6  A    between atoms: C_12  and  C_13 
REMARK       I    between atoms: C_13  and  N_14 
REMARK    7  A    between atoms: N_14  and  C_15 
ROOT
HETATM    1  N   UNL     1     -42.014  59.742 -55.453  1.00  0.00    -0.348 N 
HETATM    2  C   UNL     1     -41.722  59.903 -54.121  1.00  0.00     0.310 C 
HETATM    3  O   UNL     1     -42.015  60.870 -53.429  1.00  0.00    -0.262 OA
HETATM    4  H   UNL     1     -41.602  58.937 -55.919  1.00  0.00     0.163 HD
ENDROOT
BRANCH   2   5
HETATM    5  C   UNL     1     -40.922  58.734 -53.506  1.00  0.00     0.313 C 
HETATM    6  N   UNL     1     -41.640  57.557 -53.525  1.00  0.00    -0.319 N 
HETATM    7  H   UNL     1     -42.567  57.641 -53.938  1.00  0.00     0.169 HD
HETATM    8  O   UNL     1     -39.803  58.953 -53.065  1.00  0.00    -0.262 OA
BRANCH   6   9
HETATM    9  C   UNL     1     -41.264  56.307 -53.007  1.00  0.00     0.036 A 
HETATM   10  C   UNL     1     -41.079  56.059 -51.648  1.00  0.00     0.039 A 
HETATM   11  C   UNL     1     -40.745  54.771 -51.196  1.00  0.00    -0.028 A 
HETATM   12  C   UNL     1     -40.579  53.724 -52.111  1.00  0.00     0.050 A 
HETATM   13  C   UNL     1     -40.471  54.523 -49.743  1.00  0.00     0.050 C 
HETATM   14  N   UNL     1     -40.261  52.424 -51.637  1.00  0.00    -0.317 N 
HETATM   15  C   UNL     1     -40.705  53.980 -53.485  1.00  0.00    -0.028 A 
HETATM   16  C   UNL     1     -40.351  52.079 -50.291  1.00  0.00     0.224 C 
HETATM   17  C   UNL     1     -40.001  51.355 -52.596  1.00  0.00     0.132 C 
HETATM   18  O   UNL     1     -40.097  50.950 -49.867  1.00  0.00    -0.273 OA
HETATM   19  C   UNL     1     -40.919  53.129 -49.363  1.00  0.00     0.108 C 
HETATM   20  C   UNL     1     -39.523  51.852 -53.949  1.00  0.00     0.025 C 
HETATM   21  C   UNL     1     -40.499  52.883 -54.493  1.00  0.00     0.042 C 
HETATM   22  C   UNL     1     -41.068  55.266 -53.921  1.00  0.00     0.039 A 
ENDBRANCH   6   9
ENDBRANCH   2   5
BRANCH   1  23
HETATM   23  C   UNL     1     -42.594  60.807 -56.224  1.00  0.00     0.169 C 
BRANCH  23  24
HETATM   24  C   UNL     1     -42.744  60.351 -57.637  1.00  0.00     0.001 A 
HETATM   25  S   UNL     1     -44.035  59.317 -58.081  1.00  0.00    -0.095 SA
HETATM   26  C   UNL     1     -43.526  59.255 -59.720  1.00  0.00     0.017 A 
HETATM   27  C   UNL     1     -42.392  60.024 -59.915  1.00  0.00     0.018 A 
HETATM   28  C   UNL     1     -41.945  60.655 -58.720  1.00  0.00     0.017 A 
BRANCH  26  29
HETATM   29  C   UNL     1     -44.301  58.428 -60.712  1.00  0.00     0.198 C 
BRANCH  29  30
HETATM   30  C   UNL     1     -44.352  56.965 -60.366  1.00  0.00     0.016 A 
HETATM   31  S   UNL     1     -45.816  56.092 -60.583  1.00  0.00    -0.103 SA
HETATM   32  C   UNL     1     -45.125  54.649 -59.985  1.00  0.00     0.050 A 
HETATM   33  C   UNL     1     -43.808  54.817 -59.624  1.00  0.00     0.008 A 
HETATM   34  C   UNL     1     -43.363  56.153 -59.839  1.00  0.00     0.018 A 
ENDBRANCH  29  30
BRANCH  29  35
HETATM   35  O   UNL     1     -45.651  58.897 -60.695  1.00  0.00    -0.385 OA
HETATM   36  H   UNL     1     -45.879  59.081 -61.622  1.00  0.00     0.210 HD
ENDBRANCH  29  35
ENDBRANCH  26  29
ENDBRANCH  23  24
ENDBRANCH   1  23
TORSDOF 7
ENDMDL
MODEL 3
REMARK VINA RESULT:      -8.8      1.676      2.191
REMARK  7 active torsions:
REMARK  status: ('A' for Active; 'I' for Inactive)
REMARK    1  A    between atoms: C_4  and  C_5 
REMARK    2  A    between atoms: C_5  and  O_6 
REMARK    3  A    between atoms: C_5  and  C_7 
REMARK    4  A    between atoms: C_9  and  C_10 
REMARK    5  A    between atoms: C_10  and  N_11 
REMARK       I    between atoms: N_11  and  C_12 
REMARK    6  A    between atoms: C_12  and  C_13 
REMARK       I    between atoms: C_13  and  N_14 
REMARK    7  A    between atoms: N_14  and  C_15 
ROOT
HETATM    1  N   UNL     1     -42.068  60.280 -55.509  1.00  0.00    -0.348 N 
HETATM    2  C   UNL     1     -42.000  60.257 -54.138  1.00  0.00     0.310 C 
HETATM    3  O   UNL     1     -42.478  61.088 -53.378  1.00  0.00    -0.262 OA
HETATM    4  H   UNL     1     -41.521  59.582 -56.008  1.00  0.00     0.163 HD
ENDROOT
BRANCH   2   5
HETATM    5  C   UNL     1     -41.207  59.061 -53.567  1.00  0.00     0.313 C 
HETATM    6  N   UNL     1     -41.972  57.914 -53.524  1.00  0.00    -0.319 N 
HETATM    7  H   UNL     1     -42.921  58.033 -53.873  1.00  0.00     0.169 HD
HETATM    8  O   UNL     1     -40.052  59.237 -53.207  1.00  0.00    -0.262 OA
BRANCH   6   9
HETATM    9  C   UNL     1     -41.612  56.655 -53.020  1.00  0.00     0.036 A 
HETATM   10  C   UNL     1     -41.419  55.528 -53.819  1.00  0.00     0.039 A 
HETATM   11  C   UNL     1     -41.016  54.310 -53.250  1.00  0.00    -0.028 A 
HETATM   12  C   UNL     1     -40.816  54.208 -51.867  1.00  0.00     0.050 A 
HETATM   13  C   UNL     1     -40.883  53.081 -54.100  1.00  0.00     0.050 C 
HETATM   14  N   UNL     1     -40.389  52.974 -51.310  1.00  0.00    -0.317 N 
HETATM   15  C   UNL     1     -41.066  55.321 -51.050  1.00  0.00    -0.028 A 
HETATM   16  C   UNL     1     -39.915  51.926 -52.095  1.00  0.00     0.224 C 
HETATM   17  C   UNL     1     -40.268  52.846 -49.861  1.00  0.00     0.132 C 
HETATM   18  O   UNL     1     -39.523  50.856 -51.625  1.00  0.00    -0.273 OA
HETATM   19  C   UNL     1     -39.767  52.206 -53.574  1.00  0.00     0.108 C 
HETATM   20  C   UNL     1     -41.149  53.810 -49.087  1.00  0.00     0.025 C 
HETATM   21  C   UNL     1     -40.894  55.233 -49.558  1.00  0.00     0.042 C 
HETATM   22  C   UNL     1     -41.441  56.542 -51.636  1.00  0.00     0.039 A 
ENDBRANCH   6   9
ENDBRANCH   2   5
BRANCH   1  23
HETATM   23  C   UNL     1     -42.611  61.411 -56.211  1.00  0.00     0.169 C 
BRANCH  23  24
HETATM   24  C   UNL     1     -42.775  61.050 -57.650  1.00  0.00     0.001 A 
HETATM   25  S   UNL     1     -43.721  59.695 -58.100  1.00  0.00    -0.095 SA
HETATM   26  C   UNL     1     -43.415  59.937 -59.772  1.00  0.00     0.017 A 
HETATM   27  C   UNL     1     -42.609  61.045 -59.972  1.00  0.00     0.018 A 
HETATM   28  C   UNL     1     -42.245  61.685 -58.754  1.00  0.00     0.017 A 
BRANCH  26  29
HETATM   29  C   UNL     1     -44.004  58.990 -60.784  1.00  0.00     0.198 C 
BRANCH  29  30
HETATM   30  C   UNL     1     -43.941  57.546 -60.365  1.00  0.00     0.016 A 
HETATM   31  S   UNL     1     -45.393  56.638 -60.233  1.00  0.00    -0.103 SA
HETATM   32  C   UNL     1     -44.553  55.241 -59.721  1.00  0.00     0.050 A 
HETATM   33  C   UNL     1     -43.195  55.451 -59.648  1.00  0.00     0.008 A 
HETATM   34  C   UNL     1     -42.842  56.782 -60.015  1.00  0.00     0.018 A 
ENDBRANCH  29  30
BRANCH  29  35
HETATM   35  O   UNL     1     -45.389  59.315 -60.916  1.00  0.00    -0.385 OA
HETATM   36  H   UNL     1     -45.460  60.263 -60.716  1.00  0.00     0.210 HD
ENDBRANCH  29  35
ENDBRANCH  26  29
ENDBRANCH  23  24
ENDBRANCH   1  23
TORSDOF 7
ENDMDL
MODEL 4
REMARK VINA RESULT:      -8.8      2.180      2.793
REMARK  7 active torsions:
REMARK  status: ('A' for Active; 'I' for Inactive)
REMARK    1  A    between atoms: C_4  and  C_5 
REMARK    2  A    between atoms: C_5  and  O_6 
REMARK    3  A    between atoms: C_5  and  C_7 
REMARK    4  A    between atoms: C_9  and  C_10 
REMARK    5  A    between atoms: C_10  and  N_11 
REMARK       I    between atoms: N_11  and  C_12 
REMARK    6  A    between atoms: C_12  and  C_13 
REMARK       I    between atoms: C_13  and  N_14 
REMARK    7  A    between atoms: N_14  and  C_15 
ROOT
HETATM    1  N   UNL     1     -44.138  59.929 -54.331  1.00  0.00    -0.348 N 
HETATM    2  C   UNL     1     -42.874  60.319 -53.963  1.00  0.00     0.310 C 
HETATM    3  O   UNL     1     -42.464  61.471 -53.902  1.00  0.00    -0.262 OA
HETATM    4  H   UNL     1     -44.294  58.930 -54.447  1.00  0.00     0.163 HD
ENDROOT
BRANCH   2   5
HETATM    5  C   UNL     1     -41.922  59.147 -53.639  1.00  0.00     0.313 C 
HETATM    6  N   UNL     1     -42.615  57.987 -53.366  1.00  0.00    -0.319 N 
HETATM    7  H   UNL     1     -43.627  58.082 -53.423  1.00  0.00     0.169 HD
HETATM    8  O   UNL     1     -40.717  59.351 -53.633  1.00  0.00    -0.262 OA
BRANCH   6   9
HETATM    9  C   UNL     1     -42.095  56.741 -52.979  1.00  0.00     0.036 A 
HETATM   10  C   UNL     1     -41.953  55.660 -53.847  1.00  0.00     0.039 A 
HETATM   11  C   UNL     1     -41.383  54.456 -53.401  1.00  0.00    -0.028 A 
HETATM   12  C   UNL     1     -40.963  54.324 -52.071  1.00  0.00     0.050 A 
HETATM   13  C   UNL     1     -41.301  53.269 -54.315  1.00  0.00     0.050 C 
HETATM   14  N   UNL     1     -40.370  53.108 -51.641  1.00  0.00    -0.317 N 
HETATM   15  C   UNL     1     -41.158  55.388 -51.177  1.00  0.00    -0.028 A 
HETATM   16  C   UNL     1     -39.955  52.125 -52.535  1.00  0.00     0.224 C 
HETATM   17  C   UNL     1     -40.016  52.941 -50.235  1.00  0.00     0.132 C 
HETATM   18  O   UNL     1     -39.421  51.072 -52.179  1.00  0.00    -0.273 OA
HETATM   19  C   UNL     1     -40.059  52.463 -54.006  1.00  0.00     0.108 C 
HETATM   20  C   UNL     1     -40.830  53.811 -49.293  1.00  0.00     0.025 C 
HETATM   21  C   UNL     1     -40.750  55.264 -49.735  1.00  0.00     0.042 C 
HETATM   22  C   UNL     1     -41.703  56.596 -51.644  1.00  0.00     0.039 A 
ENDBRANCH   6   9
ENDBRANCH   2   5
BRANCH   1  23
HETATM   23  C   UNL     1     -45.095  60.875 -54.835  1.00  0.00     0.169 C 
BRANCH  23  24
HETATM   24  C   UNL     1     -45.623  60.377 -56.139  1.00  0.00     0.001 A 
HETATM   25  S   UNL     1     -45.143  58.846 -56.739  1.00  0.00    -0.095 SA
HETATM   26  C   UNL     1     -46.093  59.017 -58.159  1.00  0.00     0.017 A 
HETATM   27  C   UNL     1     -46.768  60.224 -58.160  1.00  0.00     0.018 A 
HETATM   28  C   UNL     1     -46.501  61.003 -56.999  1.00  0.00     0.017 A 
BRANCH  26  29
HETATM   29  C   UNL     1     -46.095  57.921 -59.192  1.00  0.00     0.198 C 
BRANCH  29  30
HETATM   30  C   UNL     1     -44.730  57.350 -59.467  1.00  0.00     0.016 A 
HETATM   31  S   UNL     1     -43.540  58.324 -60.232  1.00  0.00    -0.103 SA
HETATM   32  C   UNL     1     -42.396  57.055 -60.220  1.00  0.00     0.050 A 
HETATM   33  C   UNL     1     -42.899  55.909 -59.648  1.00  0.00     0.008 A 
HETATM   34  C   UNL     1     -44.247  56.077 -59.218  1.00  0.00     0.018 A 
ENDBRANCH  29  30
BRANCH  29  35
HETATM   35  O   UNL     1     -46.887  56.850 -58.676  1.00  0.00    -0.385 OA
HETATM   36  H   UNL     1     -46.524  56.038 -59.069  1.00  0.00     0.210 HD
ENDBRANCH  29  35
ENDBRANCH  26  29
ENDBRANCH  23  24
ENDBRANCH   1  23
TORSDOF 7
ENDMDL
MODEL 5
REMARK VINA RESULT:      -8.7      3.434      9.161
REMARK  7 active torsions:
REMARK  status: ('A' for Active; 'I' for Inactive)
REMARK    1  A    between atoms: C_4  and  C_5 
REMARK    2  A    between atoms: C_5  and  O_6 
REMARK    3  A    between atoms: C_5  and  C_7 
REMARK    4  A    between atoms: C_9  and  C_10 
REMARK    5  A    between atoms: C_10  and  N_11 
REMARK       I    between atoms: N_11  and  C_12 
REMARK    6  A    between atoms: C_12  and  C_13 
REMARK       I    between atoms: C_13  and  N_14 
REMARK    7  A    between atoms: N_14  and  C_15 
ROOT
HETATM    1  N   UNL     1     -42.482  58.231 -52.788  1.00  0.00    -0.348 N 
HETATM    2  C   UNL     1     -41.652  58.923 -53.634  1.00  0.00     0.310 C 
HETATM    3  O   UNL     1     -40.614  59.492 -53.321  1.00  0.00    -0.262 OA
HETATM    4  H   UNL     1     -43.368  57.912 -53.173  1.00  0.00     0.163 HD
ENDROOT
BRANCH   2   5
HETATM    5  C   UNL     1     -42.146  58.976 -55.096  1.00  0.00     0.313 C 
HETATM    6  N   UNL     1     -43.107  58.019 -55.346  1.00  0.00    -0.319 N 
HETATM    7  H   UNL     1     -43.338  57.441 -54.541  1.00  0.00     0.169 HD
HETATM    8  O   UNL     1     -41.651  59.797 -55.856  1.00  0.00    -0.262 OA
BRANCH   6   9
HETATM    9  C   UNL     1     -43.742  57.732 -56.565  1.00  0.00     0.036 A 
HETATM   10  C   UNL     1     -43.286  56.771 -57.466  1.00  0.00     0.039 A 
HETATM   11  C   UNL     1     -43.997  56.505 -58.647  1.00  0.00    -0.028 A 
HETATM   12  C   UNL     1     -45.168  57.215 -58.941  1.00  0.00     0.050 A 
HETATM   13  C   UNL     1     -43.465  55.525 -59.651  1.00  0.00     0.050 C 
HETATM   14  N   UNL     1     -45.886  56.920 -60.130  1.00  0.00    -0.317 N 
HETATM   15  C   UNL     1     -45.599  58.226 -58.069  1.00  0.00    -0.028 A 
HETATM   16  C   UNL     1     -45.625  55.788 -60.897  1.00  0.00     0.224 C 
HETATM   17  C   UNL     1     -47.055  57.722 -60.478  1.00  0.00     0.132 C 
HETATM   18  O   UNL     1     -46.252  55.509 -61.920  1.00  0.00    -0.273 OA
HETATM   19  C   UNL     1     -44.609  54.816 -60.340  1.00  0.00     0.108 C 
HETATM   20  C   UNL     1     -47.039  59.117 -59.878  1.00  0.00     0.025 C 
HETATM   21  C   UNL     1     -46.834  59.029 -58.374  1.00  0.00     0.042 C 
HETATM   22  C   UNL     1     -44.895  58.461 -56.876  1.00  0.00     0.039 A 
ENDBRANCH   6   9
ENDBRANCH   2   5
BRANCH   1  23
HETATM   23  C   UNL     1     -42.270  58.232 -51.365  1.00  0.00     0.169 C 
BRANCH  23  24
HETATM   24  C   UNL     1     -42.274  56.822 -50.878  1.00  0.00     0.001 A 
HETATM   25  S   UNL     1     -40.842  56.114 -50.260  1.00  0.00    -0.095 SA
HETATM   26  C   UNL     1     -41.618  54.613 -49.960  1.00  0.00     0.017 A 
HETATM   27  C   UNL     1     -42.953  54.666 -50.321  1.00  0.00     0.018 A 
HETATM   28  C   UNL     1     -43.330  55.935 -50.844  1.00  0.00     0.017 A 
BRANCH  26  29
HETATM   29  C   UNL     1     -40.831  53.468 -49.381  1.00  0.00     0.198 C 
BRANCH  29  30
HETATM   30  C   UNL     1     -40.324  52.501 -50.417  1.00  0.00     0.016 A 
HETATM   31  S   UNL     1     -40.274  50.822 -50.058  1.00  0.00    -0.103 SA
HETATM   32  C   UNL     1     -39.605  50.446 -51.585  1.00  0.00     0.050 A 
HETATM   33  C   UNL     1     -39.420  51.568 -52.359  1.00  0.00     0.008 A 
HETATM   34  C   UNL     1     -39.829  52.754 -51.685  1.00  0.00     0.018 A 
ENDBRANCH  29  30
BRANCH  29  35
HETATM   35  O   UNL     1     -39.678  54.021 -48.744  1.00  0.00    -0.385 OA
HETATM   36  H   UNL     1     -39.618  54.940 -49.056  1.00  0.00     0.210 HD
ENDBRANCH  29  35
ENDBRANCH  26  29
ENDBRANCH  23  24
ENDBRANCH   1  23
TORSDOF 7
ENDMDL
MODEL 6
REMARK VINA RESULT:      -8.7      2.218      3.342
REMARK  7 active torsions:
REMARK  status: ('A' for Active; 'I' for Inactive)
REMARK    1  A    between atoms: C_4  and  C_5 
REMARK    2  A    between atoms: C_5  and  O_6 
REMARK    3  A    between atoms: C_5  and  C_7 
REMARK    4  A    between atoms: C_9  and  C_10 
REMARK    5  A    between atoms: C_10  and  N_11 
REMARK       I    between atoms: N_11  and  C_12 
REMARK    6  A    between atoms: C_12  and  C_13 
REMARK       I    between atoms: C_13  and  N_14 
REMARK    7  A    between atoms: N_14  and  C_15 
ROOT
HETATM    1  N   UNL     1     -42.582  60.228 -55.041  1.00  0.00    -0.348 N 
HETATM    2  C   UNL     1     -42.172  60.202 -53.731  1.00  0.00     0.310 C 
HETATM    3  O   UNL     1     -42.434  61.037 -52.876  1.00  0.00    -0.262 OA
HETATM    4  H   UNL     1     -42.186  59.524 -55.660  1.00  0.00     0.163 HD
ENDROOT
BRANCH   2   5
HETATM    5  C   UNL     1     -41.273  58.996 -53.377  1.00  0.00     0.313 C 
HETATM    6  N   UNL     1     -42.007  57.839 -53.228  1.00  0.00    -0.319 N 
HETATM    7  H   UNL     1     -43.007  57.957 -53.376  1.00  0.00     0.169 HD
HETATM    8  O   UNL     1     -40.071  59.176 -53.246  1.00  0.00    -0.262 OA
BRANCH   6   9
HETATM    9  C   UNL     1     -41.545  56.566 -52.854  1.00  0.00     0.036 A 
HETATM   10  C   UNL     1     -41.218  56.216 -51.545  1.00  0.00     0.039 A 
HETATM   11  C   UNL     1     -40.804  54.910 -51.237  1.00  0.00    -0.028 A 
HETATM   12  C   UNL     1     -40.701  53.946 -52.248  1.00  0.00     0.050 A 
HETATM   13  C   UNL     1     -40.380  54.556 -49.843  1.00  0.00     0.050 C 
HETATM   14  N   UNL     1     -40.300  52.625 -51.917  1.00  0.00    -0.317 N 
HETATM   15  C   UNL     1     -40.970  54.307 -53.576  1.00  0.00    -0.028 A 
HETATM   16  C   UNL     1     -40.245  52.170 -50.602  1.00  0.00     0.224 C 
HETATM   17  C   UNL     1     -40.107  51.646 -52.982  1.00  0.00     0.132 C 
HETATM   18  O   UNL     1     -39.918  51.021 -50.300  1.00  0.00    -0.273 OA
HETATM   19  C   UNL     1     -40.747  53.121 -49.538  1.00  0.00     0.108 C 
HETATM   20  C   UNL     1     -39.781  52.267 -54.330  1.00  0.00     0.025 C 
HETATM   21  C   UNL     1     -40.835  53.303 -54.688  1.00  0.00     0.042 C 
HETATM   22  C   UNL     1     -41.412  55.609 -53.866  1.00  0.00     0.039 A 
ENDBRANCH   6   9
ENDBRANCH   2   5
BRANCH   1  23
HETATM   23  C   UNL     1     -43.272  61.365 -55.586  1.00  0.00     0.169 C 
BRANCH  23  24
HETATM   24  C   UNL     1     -44.341  60.882 -56.508  1.00  0.00     0.001 A 
HETATM   25  S   UNL     1     -45.035  59.331 -56.293  1.00  0.00    -0.095 SA
HETATM   26  C   UNL     1     -46.071  59.520 -57.649  1.00  0.00     0.017 A 
HETATM   27  C   UNL     1     -45.888  60.756 -58.243  1.00  0.00     0.018 A 
HETATM   28  C   UNL     1     -44.897  61.539 -57.587  1.00  0.00     0.017 A 
BRANCH  26  29
HETATM   29  C   UNL     1     -47.006  58.404 -58.035  1.00  0.00     0.198 C 
BRANCH  29  30
HETATM   30  C   UNL     1     -46.424  57.453 -59.045  1.00  0.00     0.016 A 
HETATM   31  S   UNL     1     -44.721  57.382 -59.261  1.00  0.00    -0.103 SA
HETATM   32  C   UNL     1     -44.858  56.203 -60.490  1.00  0.00     0.050 A 
HETATM   33  C   UNL     1     -46.168  55.863 -60.738  1.00  0.00     0.008 A 
HETATM   34  C   UNL     1     -47.072  56.586 -59.908  1.00  0.00     0.018 A 
ENDBRANCH  29  30
BRANCH  29  35
HETATM   35  O   UNL     1     -47.265  57.638 -56.857  1.00  0.00    -0.385 OA
HETATM   36  H   UNL     1     -47.018  56.723 -57.076  1.00  0.00     0.210 HD
ENDBRANCH  29  35
ENDBRANCH  26  29
ENDBRANCH  23  24
ENDBRANCH   1  23
TORSDOF 7
ENDMDL
MODEL 7
REMARK VINA RESULT:      -8.6      2.521      4.950
REMARK  7 active torsions:
REMARK  status: ('A' for Active; 'I' for Inactive)
REMARK    1  A    between atoms: C_4  and  C_5 
REMARK    2  A    between atoms: C_5  and  O_6 
REMARK    3  A    between atoms: C_5  and  C_7 
REMARK    4  A    between atoms: C_9  and  C_10 
REMARK    5  A    between atoms: C_10  and  N_11 
REMARK       I    between atoms: N_11  and  C_12 
REMARK    6  A    between atoms: C_12  and  C_13 
REMARK       I    between atoms: C_13  and  N_14 
REMARK    7  A    between atoms: N_14  and  C_15 
ROOT
HETATM    1  N   UNL     1     -41.862  57.728 -57.713  1.00  0.00    -0.348 N 
HETATM    2  C   UNL     1     -42.860  56.803 -57.894  1.00  0.00     0.310 C 
HETATM    3  O   UNL     1     -43.773  56.876 -58.706  1.00  0.00    -0.262 OA
HETATM    4  H   UNL     1     -41.241  57.585 -56.920  1.00  0.00     0.163 HD
ENDROOT
BRANCH   2   5
HETATM    5  C   UNL     1     -42.782  55.597 -56.931  1.00  0.00     0.313 C 
HETATM    6  N   UNL     1     -41.851  55.799 -55.934  1.00  0.00    -0.319 N 
HETATM    7  H   UNL     1     -41.373  56.696 -55.986  1.00  0.00     0.169 HD
HETATM    8  O   UNL     1     -43.494  54.626 -57.144  1.00  0.00    -0.262 OA
BRANCH   6   9
HETATM    9  C   UNL     1     -41.468  54.908 -54.919  1.00  0.00     0.036 A 
HETATM   10  C   UNL     1     -41.106  53.582 -55.151  1.00  0.00     0.039 A 
HETATM   11  C   UNL     1     -40.690  52.759 -54.091  1.00  0.00    -0.028 A 
HETATM   12  C   UNL     1     -40.648  53.260 -52.784  1.00  0.00     0.050 A 
HETATM   13  C   UNL     1     -40.374  51.313 -54.331  1.00  0.00     0.050 C 
HETATM   14  N   UNL     1     -40.206  52.422 -51.727  1.00  0.00    -0.317 N 
HETATM   15  C   UNL     1     -41.068  54.575 -52.535  1.00  0.00    -0.028 A 
HETATM   16  C   UNL     1     -39.573  51.203 -51.957  1.00  0.00     0.224 C 
HETATM   17  C   UNL     1     -40.248  52.916 -50.354  1.00  0.00     0.132 C 
HETATM   18  O   UNL     1     -39.167  50.473 -51.051  1.00  0.00    -0.273 OA
HETATM   19  C   UNL     1     -39.271  50.862 -53.399  1.00  0.00     0.108 C 
HETATM   20  C   UNL     1     -41.279  54.009 -50.131  1.00  0.00     0.025 C 
HETATM   21  C   UNL     1     -41.068  55.130 -51.136  1.00  0.00     0.042 C 
HETATM   22  C   UNL     1     -41.454  55.396 -53.608  1.00  0.00     0.039 A 
ENDBRANCH   6   9
ENDBRANCH   2   5
BRANCH   1  23
HETATM   23  C   UNL     1     -41.882  58.992 -58.398  1.00  0.00     0.169 C 
BRANCH  23  24
HETATM   24  C   UNL     1     -42.700  59.956 -57.606  1.00  0.00     0.001 A 
HETATM   25  S   UNL     1     -42.324  60.265 -55.964  1.00  0.00    -0.095 SA
HETATM   26  C   UNL     1     -43.627  61.369 -55.791  1.00  0.00     0.017 A 
HETATM   27  C   UNL     1     -44.326  61.498 -56.978  1.00  0.00     0.018 A 
HETATM   28  C   UNL     1     -43.792  60.690 -58.020  1.00  0.00     0.017 A 
BRANCH  26  29
HETATM   29  C   UNL     1     -43.869  62.037 -54.463  1.00  0.00     0.198 C 
BRANCH  29  30
HETATM   30  C   UNL     1     -44.251  61.078 -53.368  1.00  0.00     0.016 A 
HETATM   31  S   UNL     1     -43.405  61.117 -51.873  1.00  0.00    -0.103 SA
HETATM   32  C   UNL     1     -44.323  59.822 -51.241  1.00  0.00     0.050 A 
HETATM   33  C   UNL     1     -45.256  59.361 -52.141  1.00  0.00     0.008 A 
HETATM   34  C   UNL     1     -45.212  60.082 -53.370  1.00  0.00     0.018 A 
ENDBRANCH  29  30
BRANCH  29  35
HETATM   35  O   UNL     1     -42.640  62.644 -54.060  1.00  0.00    -0.385 OA
HETATM   36  H   UNL     1     -42.802  63.008 -53.173  1.00  0.00     0.210 HD
ENDBRANCH  29  35
ENDBRANCH  26  29
ENDBRANCH  23  24
ENDBRANCH   1  23
TORSDOF 7
ENDMDL
MODEL 8
REMARK VINA RESULT:      -8.6      6.457      9.616
REMARK  7 active torsions:
REMARK  status: ('A' for Active; 'I' for Inactive)
REMARK    1  A    between atoms: C_4  and  C_5 
REMARK    2  A    between atoms: C_5  and  O_6 
REMARK    3  A    between atoms: C_5  and  C_7 
REMARK    4  A    between atoms: C_9  and  C_10 
REMARK    5  A    between atoms: C_10  and  N_11 
REMARK       I    between atoms: N_11  and  C_12 
REMARK    6  A    between atoms: C_12  and  C_13 
REMARK       I    between atoms: C_13  and  N_14 
REMARK    7  A    between atoms: N_14  and  C_15 
ROOT
HETATM    1  N   UNL     1     -44.267  60.528 -50.974  1.00  0.00    -0.348 N 
HETATM    2  C   UNL     1     -42.930  60.795 -50.819  1.00  0.00     0.310 C 
HETATM    3  O   UNL     1     -42.445  61.839 -50.404  1.00  0.00    -0.262 OA
HETATM    4  H   UNL     1     -44.511  59.657 -51.440  1.00  0.00     0.163 HD
ENDROOT
BRANCH   2   5
HETATM    5  C   UNL     1     -42.003  59.639 -51.256  1.00  0.00     0.313 C 
HETATM    6  N   UNL     1     -42.574  58.407 -51.015  1.00  0.00    -0.319 N 
HETATM    7  H   UNL     1     -43.502  58.452 -50.599  1.00  0.00     0.169 HD
HETATM    8  O   UNL     1     -40.906  59.908 -51.725  1.00  0.00    -0.262 OA
BRANCH   6   9
HETATM    9  C   UNL     1     -42.011  57.139 -51.228  1.00  0.00     0.036 A 
HETATM   10  C   UNL     1     -41.394  56.390 -50.227  1.00  0.00     0.039 A 
HETATM   11  C   UNL     1     -40.891  55.107 -50.502  1.00  0.00    -0.028 A 
HETATM   12  C   UNL     1     -40.991  54.572 -51.792  1.00  0.00     0.050 A 
HETATM   13  C   UNL     1     -40.161  54.334 -49.444  1.00  0.00     0.050 C 
HETATM   14  N   UNL     1     -40.496  53.266 -52.049  1.00  0.00    -0.317 N 
HETATM   15  C   UNL     1     -41.556  55.344 -52.818  1.00  0.00    -0.028 A 
HETATM   16  C   UNL     1     -40.141  52.390 -51.027  1.00  0.00     0.224 C 
HETATM   17  C   UNL     1     -40.520  52.746 -53.412  1.00  0.00     0.132 C 
HETATM   18  O   UNL     1     -39.728  51.247 -51.233  1.00  0.00    -0.273 OA
HETATM   19  C   UNL     1     -40.417  52.854 -49.614  1.00  0.00     0.108 C 
HETATM   20  C   UNL     1     -40.515  53.827 -54.479  1.00  0.00     0.025 C 
HETATM   21  C   UNL     1     -41.646  54.810 -54.222  1.00  0.00     0.042 C 
HETATM   22  C   UNL     1     -42.082  56.613 -52.523  1.00  0.00     0.039 A 
ENDBRANCH   6   9
ENDBRANCH   2   5
BRANCH   1  23
HETATM   23  C   UNL     1     -45.260  61.551 -50.786  1.00  0.00     0.169 C 
BRANCH  23  24
HETATM   24  C   UNL     1     -45.688  61.549 -49.357  1.00  0.00     0.001 A 
HETATM   25  S   UNL     1     -46.552  62.878 -48.709  1.00  0.00    -0.095 SA
HETATM   26  C   UNL     1     -46.640  62.163 -47.150  1.00  0.00     0.017 A 
HETATM   27  C   UNL     1     -46.024  60.924 -47.140  1.00  0.00     0.018 A 
HETATM   28  C   UNL     1     -45.480  60.570 -48.407  1.00  0.00     0.017 A 
BRANCH  26  29
HETATM   29  C   UNL     1     -47.324  62.899 -46.029  1.00  0.00     0.198 C 
BRANCH  29  30
HETATM   30  C   UNL     1     -46.369  63.519 -45.045  1.00  0.00     0.016 A 
HETATM   31  S   UNL     1     -46.984  64.411 -43.712  1.00  0.00    -0.103 SA
HETATM   32  C   UNL     1     -45.415  64.782 -43.149  1.00  0.00     0.050 A 
HETATM   33  C   UNL     1     -44.436  64.244 -43.951  1.00  0.00     0.008 A 
HETATM   34  C   UNL     1     -44.985  63.520 -45.048  1.00  0.00     0.018 A 
ENDBRANCH  29  30
BRANCH  29  35
HETATM   35  O   UNL     1     -48.062  63.975 -46.612  1.00  0.00    -0.385 OA
HETATM   36  H   UNL     1     -47.672  64.119 -47.491  1.00  0.00     0.210 HD
ENDBRANCH  29  35
ENDBRANCH  26  29
ENDBRANCH  23  24
ENDBRANCH   1  23
TORSDOF 7
ENDMDL
MODEL 9
REMARK VINA RESULT:      -8.5      2.936      4.355
REMARK  7 active torsions:
REMARK  status: ('A' for Active; 'I' for Inactive)
REMARK    1  A    between atoms: C_4  and  C_5 
REMARK    2  A    between atoms: C_5  and  O_6 
REMARK    3  A    between atoms: C_5  and  C_7 
REMARK    4  A    between atoms: C_9  and  C_10 
REMARK    5  A    between atoms: C_10  and  N_11 
REMARK       I    between atoms: N_11  and  C_12 
REMARK    6  A    between atoms: C_12  and  C_13 
REMARK       I    between atoms: C_13  and  N_14 
REMARK    7  A    between atoms: N_14  and  C_15 
ROOT
HETATM    1  N   UNL     1     -43.844  57.163 -57.642  1.00  0.00    -0.348 N 
HETATM    2  C   UNL     1     -43.593  57.947 -56.543  1.00  0.00     0.310 C 
HETATM    3  O   UNL     1     -44.031  59.072 -56.344  1.00  0.00    -0.262 OA
HETATM    4  H   UNL     1     -43.315  56.298 -57.719  1.00  0.00     0.163 HD
ENDROOT
BRANCH   2   5
HETATM    5  C   UNL     1     -42.638  57.301 -55.514  1.00  0.00     0.313 C 
HETATM    6  N   UNL     1     -42.906  55.960 -55.340  1.00  0.00    -0.319 N 
HETATM    7  H   UNL     1     -43.674  55.611 -55.910  1.00  0.00     0.169 HD
HETATM    8  O   UNL     1     -41.801  58.003 -54.967  1.00  0.00    -0.262 OA
BRANCH   6   9
HETATM    9  C   UNL     1     -42.288  55.065 -54.453  1.00  0.00     0.036 A 
HETATM   10  C   UNL     1     -41.827  53.802 -54.825  1.00  0.00     0.039 A 
HETATM   11  C   UNL     1     -41.177  52.976 -53.894  1.00  0.00    -0.028 A 
HETATM   12  C   UNL     1     -40.998  53.406 -52.574  1.00  0.00     0.050 A 
HETATM   13  C   UNL     1     -40.751  51.589 -54.276  1.00  0.00     0.050 C 
HETATM   14  N   UNL     1     -40.321  52.567 -51.650  1.00  0.00    -0.317 N 
HETATM   15  C   UNL     1     -41.512  54.650 -52.177  1.00  0.00    -0.028 A 
HETATM   16  C   UNL     1     -39.605  51.443 -52.050  1.00  0.00     0.224 C 
HETATM   17  C   UNL     1     -40.213  52.979 -50.253  1.00  0.00     0.132 C 
HETATM   18  O   UNL     1     -38.997  50.715 -51.263  1.00  0.00    -0.273 OA
HETATM   19  C   UNL     1     -39.483  51.217 -53.541  1.00  0.00     0.108 C 
HETATM   20  C   UNL     1     -41.309  53.934 -49.813  1.00  0.00     0.025 C 
HETATM   21  C   UNL     1     -41.364  55.125 -50.757  1.00  0.00     0.042 C 
HETATM   22  C   UNL     1     -42.134  55.479 -53.126  1.00  0.00     0.039 A 
ENDBRANCH   6   9
ENDBRANCH   2   5
BRANCH   1  23
HETATM   23  C   UNL     1     -44.564  57.675 -58.776  1.00  0.00     0.169 C 
BRANCH  23  24
HETATM   24  C   UNL     1     -43.613  58.416 -59.655  1.00  0.00     0.001 A 
HETATM   25  S   UNL     1     -43.934  60.037 -60.107  1.00  0.00    -0.095 SA
HETATM   26  C   UNL     1     -42.501  60.142 -61.048  1.00  0.00     0.017 A 
HETATM   27  C   UNL     1     -41.792  58.954 -61.002  1.00  0.00     0.018 A 
HETATM   28  C   UNL     1     -42.429  57.965 -60.200  1.00  0.00     0.017 A 
BRANCH  26  29
HETATM   29  C   UNL     1     -42.181  61.417 -61.780  1.00  0.00     0.198 C 
BRANCH  29  30
HETATM   30  C   UNL     1     -41.048  62.195 -61.168  1.00  0.00     0.016 A 
HETATM   31  S   UNL     1     -40.006  63.115 -62.179  1.00  0.00    -0.103 SA
HETATM   32  C   UNL     1     -39.053  63.618 -60.854  1.00  0.00     0.050 A 
HETATM   33  C   UNL     1     -39.509  63.103 -59.662  1.00  0.00     0.008 A 
HETATM   34  C   UNL     1     -40.656  62.278 -59.843  1.00  0.00     0.018 A 
ENDBRANCH  29  30
BRANCH  29  35
HETATM   35  O   UNL     1     -41.762  61.059 -63.098  1.00  0.00    -0.385 OA
HETATM   36  H   UNL     1     -41.185  60.283 -62.992  1.00  0.00     0.210 HD
ENDBRANCH  29  35
ENDBRANCH  26  29
ENDBRANCH  23  24
ENDBRANCH   1  23
TORSDOF 7
ENDMDL
MODEL 10
REMARK VINA RESULT:      -8.5      3.281      9.045
REMARK  7 active torsions:
REMARK  status: ('A' for Active; 'I' for Inactive)
REMARK    1  A    between atoms: C_4  and  C_5 
REMARK    2  A    between atoms: C_5  and  O_6 
REMARK    3  A    between atoms: C_5  and  C_7 
REMARK    4  A    between atoms: C_9  and  C_10 
REMARK    5  A    between atoms: C_10  and  N_11 
REMARK       I    between atoms: N_11  and  C_12 
REMARK    6  A    between atoms: C_12  and  C_13 
REMARK       I    between atoms: C_13  and  N_14 
REMARK    7  A    between atoms: N_14  and  C_15 
ROOT
HETATM    1  N   UNL     1     -42.759  59.299 -53.134  1.00  0.00    -0.348 N 
HETATM    2  C   UNL     1     -41.812  59.376 -54.126  1.00  0.00     0.310 C 
HETATM    3  O   UNL     1     -40.609  59.533 -53.965  1.00  0.00    -0.262 OA
HETATM    4  H   UNL     1     -43.733  59.284 -53.429  1.00  0.00     0.163 HD
ENDROOT
BRANCH   2   5
HETATM    5  C   UNL     1     -42.389  59.278 -55.555  1.00  0.00     0.313 C 
HETATM    6  N   UNL     1     -43.424  58.370 -55.628  1.00  0.00    -0.319 N 
HETATM    7  H   UNL     1     -43.644  57.917 -54.743  1.00  0.00     0.169 HD
HETATM    8  O   UNL     1     -41.889  59.957 -56.440  1.00  0.00    -0.262 OA
BRANCH   6   9
HETATM    9  C   UNL     1     -44.149  57.976 -56.764  1.00  0.00     0.036 A 
HETATM   10  C   UNL     1     -45.365  58.545 -57.140  1.00  0.00     0.039 A 
HETATM   11  C   UNL     1     -46.014  58.132 -58.315  1.00  0.00    -0.028 A 
HETATM   12  C   UNL     1     -45.452  57.130 -59.116  1.00  0.00     0.050 A 
HETATM   13  C   UNL     1     -47.358  58.690 -58.677  1.00  0.00     0.050 C 
HETATM   14  N   UNL     1     -46.110  56.738 -60.312  1.00  0.00    -0.317 N 
HETATM   15  C   UNL     1     -44.259  56.511 -58.713  1.00  0.00    -0.028 A 
HETATM   16  C   UNL     1     -47.158  57.472 -60.860  1.00  0.00     0.224 C 
HETATM   17  C   UNL     1     -45.570  55.634 -61.098  1.00  0.00     0.132 C 
HETATM   18  O   UNL     1     -47.727  57.155 -61.907  1.00  0.00    -0.273 OA
HETATM   19  C   UNL     1     -47.493  58.781 -60.181  1.00  0.00     0.108 C 
HETATM   20  C   UNL     1     -44.736  54.657 -60.287  1.00  0.00     0.025 C 
HETATM   21  C   UNL     1     -43.649  55.409 -59.535  1.00  0.00     0.042 C 
HETATM   22  C   UNL     1     -43.606  56.955 -57.551  1.00  0.00     0.039 A 
ENDBRANCH   6   9
ENDBRANCH   2   5
BRANCH   1  23
HETATM   23  C   UNL     1     -42.422  59.549 -51.759  1.00  0.00     0.169 C 
BRANCH  23  24
HETATM   24  C   UNL     1     -42.012  58.263 -51.123  1.00  0.00     0.001 A 
HETATM   25  S   UNL     1     -42.872  56.820 -51.455  1.00  0.00    -0.095 SA
HETATM   26  C   UNL     1     -41.870  55.890 -50.416  1.00  0.00     0.017 A 
HETATM   27  C   UNL     1     -40.891  56.679 -49.837  1.00  0.00     0.018 A 
HETATM   28  C   UNL     1     -40.971  58.040 -50.246  1.00  0.00     0.017 A 
BRANCH  26  29
HETATM   29  C   UNL     1     -42.136  54.418 -50.243  1.00  0.00     0.198 C 
BRANCH  29  30
HETATM   30  C   UNL     1     -41.353  53.549 -51.190  1.00  0.00     0.016 A 
HETATM   31  S   UNL     1     -40.234  52.405 -50.565  1.00  0.00    -0.103 SA
HETATM   32  C   UNL     1     -39.774  51.897 -52.130  1.00  0.00     0.050 A 
HETATM   33  C   UNL     1     -40.451  52.578 -53.115  1.00  0.00     0.008 A 
HETATM   34  C   UNL     1     -41.358  53.535 -52.574  1.00  0.00     0.018 A 
ENDBRANCH  29  30
BRANCH  29  35
HETATM   35  O   UNL     1     -41.717  54.060 -48.925  1.00  0.00    -0.385 OA
HETATM   36  H   UNL     1     -42.240  54.614 -48.320  1.00  0.00     0.210 HD
ENDBRANCH  29  35
ENDBRANCH  26  29
ENDBRANCH  23  24
ENDBRANCH   1  23
TORSDOF 7
ENDMDL
