MODEL 1
REMARK VINA RESULT:      -8.1      0.000      0.000
REMARK  9 active torsions:
REMARK  status: ('A' for Active; 'I' for Inactive)
REMARK    1  A    between atoms: C_2  and  O_3 
REMARK    2  A    between atoms: O_3  and  C_4 
REMARK    3  A    between atoms: C_4  and  C_5 
REMARK    4  A    between atoms: C_7  and  C_8 
REMARK       I    between atoms: C_8  and  N_9 
REMARK    5  A    between atoms: N_9  and  N_10 
REMARK    6  A    between atoms: N_10  and  C_11 
REMARK    7  A    between atoms: C_11  and  N_12 
REMARK    8  A    between atoms: N_12  and  C_13 
REMARK    9  A    between atoms: C_13  and  C_14 
ROOT
HETATM    1  C   UNL     1     -43.208  56.078 -53.819  1.00  0.00     0.078 A 
HETATM    2  O   UNL     1     -43.863  56.655 -54.864  1.00  0.00    -0.307 OA
HETATM    3  C   UNL     1     -44.598  57.702 -54.370  1.00  0.00     0.145 A 
HETATM    4  C   UNL     1     -44.389  57.791 -53.004  1.00  0.00     0.045 A 
HETATM    5  C   UNL     1     -43.498  56.749 -52.652  1.00  0.00     0.038 A 
ENDROOT
BRANCH   3   6
HETATM    6  C   UNL     1     -45.412  58.464 -55.298  1.00  0.00     0.293 C 
HETATM    7  N   UNL     1     -46.156  57.695 -56.180  1.00  0.00    -0.262 N 
HETATM    8  H   UNL     1     -46.293  56.699 -56.041  1.00  0.00     0.190 HD
HETATM    9  O   UNL     1     -45.471  59.694 -55.336  1.00  0.00    -0.264 OA
BRANCH   7  10
HETATM   10  N   UNL     1     -47.091  58.340 -57.013  1.00  0.00    -0.274 N 
HETATM   11  H   UNL     1     -48.007  58.453 -56.580  1.00  0.00     0.189 HD
BRANCH  10  12
HETATM   12  C   UNL     1     -47.023  58.180 -58.372  1.00  0.00     0.186 C 
HETATM   13  S   UNL     1     -47.371  59.374 -59.495  1.00  0.00    -0.040 SA
BRANCH  12  14
HETATM   14  N   UNL     1     -46.707  56.940 -58.829  1.00  0.00    -0.364 N 
HETATM   15  H   UNL     1     -47.106  56.183 -58.282  1.00  0.00     0.162 HD
BRANCH  14  16
HETATM   16  C   UNL     1     -45.651  56.530 -59.751  1.00  0.00     0.154 C 
BRANCH  16  17
HETATM   17  C   UNL     1     -44.336  56.169 -59.039  1.00  0.00     0.139 C 
HETATM   18  O   UNL     1     -43.994  57.214 -58.105  1.00  0.00    -0.384 OA
HETATM   19  C   UNL     1     -42.648  57.634 -58.363  1.00  0.00     0.168 C 
HETATM   20  C   UNL     1     -42.341  57.242 -59.789  1.00  0.00     0.029 C 
HETATM   21  C   UNL     1     -43.135  55.972 -59.956  1.00  0.00     0.035 C 
ENDBRANCH  16  17
ENDBRANCH  14  16
ENDBRANCH  12  14
ENDBRANCH  10  12
ENDBRANCH   7  10
ENDBRANCH   3   6
BRANCH   1  22
HETATM   22  C   UNL     1     -42.356  54.898 -54.124  1.00  0.00     0.240 C 
BRANCH  22  23
HETATM   23  O   UNL     1     -41.181  55.040 -53.330  1.00  0.00    -0.345 OA
BRANCH  23  24
HETATM   24  C   UNL     1     -40.718  53.913 -52.706  1.00  0.00     0.069 A 
HETATM   25  C   UNL     1     -40.535  53.761 -51.322  1.00  0.00     0.037 A 
HETATM   26  C   UNL     1     -40.071  52.551 -50.791  1.00  0.00     0.010 A 
HETATM   27  C   UNL     1     -39.806  51.507 -51.658  1.00  0.00    -0.052 A 
HETATM   28  C   UNL     1     -39.985  51.654 -53.035  1.00  0.00    -0.049 A 
HETATM   29  C   UNL     1     -39.270  50.148 -51.333  1.00  0.00     0.039 C 
HETATM   30  C   UNL     1     -40.440  52.848 -53.569  1.00  0.00     0.044 A 
HETATM   31  C   UNL     1     -39.576  50.414 -53.764  1.00  0.00     0.039 C 
HETATM   32  C   UNL     1     -39.590  49.383 -52.626  1.00  0.00     0.009 C 
ENDBRANCH  23  24
ENDBRANCH  22  23
ENDBRANCH   1  22
TORSDOF 9
ENDMDL
MODEL 2
REMARK VINA RESULT:      -8.0      2.627      3.357
REMARK  9 active torsions:
REMARK  status: ('A' for Active; 'I' for Inactive)
REMARK    1  A    between atoms: C_2  and  O_3 
REMARK    2  A    between atoms: O_3  and  C_4 
REMARK    3  A    between atoms: C_4  and  C_5 
REMARK    4  A    between atoms: C_7  and  C_8 
REMARK       I    between atoms: C_8  and  N_9 
REMARK    5  A    between atoms: N_9  and  N_10 
REMARK    6  A    between atoms: N_10  and  C_11 
REMARK    7  A    between atoms: C_11  and  N_12 
REMARK    8  A    between atoms: N_12  and  C_13 
REMARK    9  A    between atoms: C_13  and  C_14 
ROOT
HETATM    1  C   UNL     1     -42.871  56.820 -51.308  1.00  0.00     0.078 A 
HETATM    2  O   UNL     1     -41.989  57.396 -52.173  1.00  0.00    -0.307 OA
HETATM    3  C   UNL     1     -42.594  58.501 -52.713  1.00  0.00     0.145 A 
HETATM    4  C   UNL     1     -43.863  58.628 -52.170  1.00  0.00     0.045 A 
HETATM    5  C   UNL     1     -44.039  57.549 -51.271  1.00  0.00     0.038 A 
ENDROOT
BRANCH   3   6
HETATM    6  C   UNL     1     -41.857  59.275 -53.693  1.00  0.00     0.293 C 
HETATM    7  N   UNL     1     -42.626  59.771 -54.735  1.00  0.00    -0.262 N 
HETATM    8  H   UNL     1     -43.641  59.785 -54.695  1.00  0.00     0.190 HD
HETATM    9  O   UNL     1     -40.646  59.501 -53.645  1.00  0.00    -0.264 OA
BRANCH   7  10
HETATM   10  N   UNL     1     -42.029  60.661 -55.649  1.00  0.00    -0.274 N 
HETATM   11  H   UNL     1     -42.053  61.632 -55.342  1.00  0.00     0.189 HD
BRANCH  10  12
HETATM   12  C   UNL     1     -42.077  60.397 -56.993  1.00  0.00     0.186 C 
HETATM   13  S   UNL     1     -41.363  61.339 -58.180  1.00  0.00    -0.040 SA
BRANCH  12  14
HETATM   14  N   UNL     1     -42.813  59.322 -57.381  1.00  0.00    -0.364 N 
HETATM   15  H   UNL     1     -43.813  59.433 -57.243  1.00  0.00     0.162 HD
BRANCH  14  16
HETATM   16  C   UNL     1     -42.387  57.951 -57.647  1.00  0.00     0.154 C 
BRANCH  16  17
HETATM   17  C   UNL     1     -43.381  56.899 -57.126  1.00  0.00     0.139 C 
HETATM   18  O   UNL     1     -43.509  57.028 -55.694  1.00  0.00    -0.384 OA
HETATM   19  C   UNL     1     -43.281  55.745 -55.099  1.00  0.00     0.168 C 
HETATM   20  C   UNL     1     -42.483  54.942 -56.098  1.00  0.00     0.029 C 
HETATM   21  C   UNL     1     -43.006  55.451 -57.417  1.00  0.00     0.035 C 
ENDBRANCH  16  17
ENDBRANCH  14  16
ENDBRANCH  12  14
ENDBRANCH  10  12
ENDBRANCH   7  10
ENDBRANCH   3   6
BRANCH   1  22
HETATM   22  C   UNL     1     -42.425  55.583 -50.615  1.00  0.00     0.240 C 
BRANCH  22  23
HETATM   23  O   UNL     1     -41.051  55.413 -50.950  1.00  0.00    -0.345 OA
BRANCH  23  24
HETATM   24  C   UNL     1     -40.655  54.153 -51.312  1.00  0.00     0.069 A 
HETATM   25  C   UNL     1     -40.241  53.140 -50.431  1.00  0.00     0.037 A 
HETATM   26  C   UNL     1     -39.876  51.878 -50.915  1.00  0.00     0.010 A 
HETATM   27  C   UNL     1     -39.940  51.648 -52.276  1.00  0.00    -0.052 A 
HETATM   28  C   UNL     1     -40.350  52.652 -53.156  1.00  0.00    -0.049 A 
HETATM   29  C   UNL     1     -39.565  50.406 -53.024  1.00  0.00     0.039 C 
HETATM   30  C   UNL     1     -40.710  53.904 -52.688  1.00  0.00     0.044 A 
HETATM   31  C   UNL     1     -40.278  52.183 -54.575  1.00  0.00     0.039 C 
HETATM   32  C   UNL     1     -40.236  50.660 -54.382  1.00  0.00     0.009 C 
ENDBRANCH  23  24
ENDBRANCH  22  23
ENDBRANCH   1  22
TORSDOF 9
ENDMDL
MODEL 3
REMARK VINA RESULT:      -7.8      2.685      3.343
REMARK  9 active torsions:
REMARK  status: ('A' for Active; 'I' for Inactive)
REMARK    1  A    between atoms: C_2  and  O_3 
REMARK    2  A    between atoms: O_3  and  C_4 
REMARK    3  A    between atoms: C_4  and  C_5 
REMARK    4  A    between atoms: C_7  and  C_8 
REMARK       I    between atoms: C_8  and  N_9 
REMARK    5  A    between atoms: N_9  and  N_10 
REMARK    6  A    between atoms: N_10  and  C_11 
REMARK    7  A    between atoms: C_11  and  N_12 
REMARK    8  A    between atoms: N_12  and  C_13 
REMARK    9  A    between atoms: C_13  and  C_14 
ROOT
HETATM    1  C   UNL     1     -41.033  57.498 -50.729  1.00  0.00     0.078 A 
HETATM    2  O   UNL     1     -41.228  57.386 -52.073  1.00  0.00    -0.307 OA
HETATM    3  C   UNL     1     -41.357  58.652 -52.584  1.00  0.00     0.145 A 
HETATM    4  C   UNL     1     -41.228  59.567 -51.551  1.00  0.00     0.045 A 
HETATM    5  C   UNL     1     -41.021  58.826 -50.364  1.00  0.00     0.038 A 
ENDROOT
BRANCH   3   6
HETATM    6  C   UNL     1     -41.601  58.794 -54.006  1.00  0.00     0.293 C 
HETATM    7  N   UNL     1     -42.149  57.674 -54.613  1.00  0.00    -0.262 N 
HETATM    8  H   UNL     1     -42.551  56.913 -54.074  1.00  0.00     0.190 HD
HETATM    9  O   UNL     1     -41.360  59.808 -54.664  1.00  0.00    -0.264 OA
BRANCH   7  10
HETATM   10  N   UNL     1     -42.563  57.769 -55.956  1.00  0.00    -0.274 N 
HETATM   11  H   UNL     1     -42.819  58.716 -56.234  1.00  0.00     0.189 HD
BRANCH  10  12
HETATM   12  C   UNL     1     -43.205  56.715 -56.552  1.00  0.00     0.186 C 
HETATM   13  S   UNL     1     -42.740  55.111 -56.414  1.00  0.00    -0.040 SA
BRANCH  12  14
HETATM   14  N   UNL     1     -44.256  57.013 -57.359  1.00  0.00    -0.364 N 
HETATM   15  H   UNL     1     -44.970  56.292 -57.394  1.00  0.00     0.162 HD
BRANCH  14  16
HETATM   16  C   UNL     1     -44.367  58.025 -58.406  1.00  0.00     0.154 C 
BRANCH  16  17
HETATM   17  C   UNL     1     -44.635  57.426 -59.798  1.00  0.00     0.139 C 
HETATM   18  O   UNL     1     -45.905  56.741 -59.787  1.00  0.00    -0.384 OA
HETATM   19  C   UNL     1     -45.709  55.411 -60.283  1.00  0.00     0.168 C 
HETATM   20  C   UNL     1     -44.246  55.090 -60.090  1.00  0.00     0.029 C 
HETATM   21  C   UNL     1     -43.589  56.433 -60.288  1.00  0.00     0.035 C 
ENDBRANCH  16  17
ENDBRANCH  14  16
ENDBRANCH  12  14
ENDBRANCH  10  12
ENDBRANCH   7  10
ENDBRANCH   3   6
BRANCH   1  22
HETATM   22  C   UNL     1     -40.885  56.234 -49.961  1.00  0.00     0.240 C 
BRANCH  22  23
HETATM   23  O   UNL     1     -41.732  55.281 -50.597  1.00  0.00    -0.345 OA
BRANCH  23  24
HETATM   24  C   UNL     1     -41.141  54.130 -51.042  1.00  0.00     0.069 A 
HETATM   25  C   UNL     1     -40.605  53.117 -50.229  1.00  0.00     0.037 A 
HETATM   26  C   UNL     1     -40.039  51.969 -50.796  1.00  0.00     0.010 A 
HETATM   27  C   UNL     1     -40.028  51.849 -52.174  1.00  0.00    -0.052 A 
HETATM   28  C   UNL     1     -40.559  52.853 -52.987  1.00  0.00    -0.049 A 
HETATM   29  C   UNL     1     -39.448  50.745 -53.002  1.00  0.00     0.039 C 
HETATM   30  C   UNL     1     -41.117  53.994 -52.435  1.00  0.00     0.044 A 
HETATM   31  C   UNL     1     -40.375  52.524 -54.434  1.00  0.00     0.039 C 
HETATM   32  C   UNL     1     -40.109  51.013 -54.363  1.00  0.00     0.009 C 
ENDBRANCH  23  24
ENDBRANCH  22  23
ENDBRANCH   1  22
TORSDOF 9
ENDMDL
MODEL 4
REMARK VINA RESULT:      -7.8      2.148      2.878
REMARK  9 active torsions:
REMARK  status: ('A' for Active; 'I' for Inactive)
REMARK    1  A    between atoms: C_2  and  O_3 
REMARK    2  A    between atoms: O_3  and  C_4 
REMARK    3  A    between atoms: C_4  and  C_5 
REMARK    4  A    between atoms: C_7  and  C_8 
REMARK       I    between atoms: C_8  and  N_9 
REMARK    5  A    between atoms: N_9  and  N_10 
REMARK    6  A    between atoms: N_10  and  C_11 
REMARK    7  A    between atoms: C_11  and  N_12 
REMARK    8  A    between atoms: N_12  and  C_13 
REMARK    9  A    between atoms: C_13  and  C_14 
ROOT
HETATM    1  C   UNL     1     -42.551  55.732 -51.117  1.00  0.00     0.078 A 
HETATM    2  O   UNL     1     -42.999  55.442 -52.372  1.00  0.00    -0.307 OA
HETATM    3  C   UNL     1     -43.260  56.629 -53.006  1.00  0.00     0.145 A 
HETATM    4  C   UNL     1     -42.958  57.673 -52.147  1.00  0.00     0.045 A 
HETATM    5  C   UNL     1     -42.504  57.096 -50.937  1.00  0.00     0.038 A 
ENDROOT
BRANCH   3   6
HETATM    6  C   UNL     1     -43.779  56.582 -54.360  1.00  0.00     0.293 C 
HETATM    7  N   UNL     1     -42.918  56.016 -55.289  1.00  0.00    -0.262 N 
HETATM    8  H   UNL     1     -42.101  55.482 -55.009  1.00  0.00     0.190 HD
HETATM    9  O   UNL     1     -44.888  56.995 -54.704  1.00  0.00    -0.264 OA
BRANCH   7  10
HETATM   10  N   UNL     1     -43.393  55.786 -56.595  1.00  0.00    -0.274 N 
HETATM   11  H   UNL     1     -43.654  54.816 -56.764  1.00  0.00     0.189 HD
BRANCH  10  12
HETATM   12  C   UNL     1     -42.908  56.528 -57.640  1.00  0.00     0.186 C 
HETATM   13  S   UNL     1     -42.455  58.138 -57.542  1.00  0.00    -0.040 SA
BRANCH  12  14
HETATM   14  N   UNL     1     -42.854  55.917 -58.853  1.00  0.00    -0.364 N 
HETATM   15  H   UNL     1     -42.087  56.228 -59.441  1.00  0.00     0.162 HD
BRANCH  14  16
HETATM   16  C   UNL     1     -43.880  55.148 -59.553  1.00  0.00     0.154 C 
BRANCH  16  17
HETATM   17  C   UNL     1     -44.768  56.016 -60.462  1.00  0.00     0.139 C 
HETATM   18  O   UNL     1     -44.192  57.335 -60.575  1.00  0.00    -0.384 OA
HETATM   19  C   UNL     1     -45.199  58.301 -60.248  1.00  0.00     0.168 C 
HETATM   20  C   UNL     1     -46.230  57.582 -59.411  1.00  0.00     0.029 C 
HETATM   21  C   UNL     1     -46.206  56.190 -59.989  1.00  0.00     0.035 C 
ENDBRANCH  16  17
ENDBRANCH  14  16
ENDBRANCH  12  14
ENDBRANCH  10  12
ENDBRANCH   7  10
ENDBRANCH   3   6
BRANCH   1  22
HETATM   22  C   UNL     1     -42.222  54.581 -50.237  1.00  0.00     0.240 C 
BRANCH  22  23
HETATM   23  O   UNL     1     -40.831  54.328 -50.417  1.00  0.00    -0.345 OA
BRANCH  23  24
HETATM   24  C   UNL     1     -40.487  53.108 -50.934  1.00  0.00     0.069 A 
HETATM   25  C   UNL     1     -40.251  51.941 -50.189  1.00  0.00     0.037 A 
HETATM   26  C   UNL     1     -39.922  50.739 -50.828  1.00  0.00     0.010 A 
HETATM   27  C   UNL     1     -39.844  50.725 -52.208  1.00  0.00    -0.052 A 
HETATM   28  C   UNL     1     -40.076  51.883 -52.953  1.00  0.00    -0.049 A 
HETATM   29  C   UNL     1     -39.474  49.582 -53.103  1.00  0.00     0.039 C 
HETATM   30  C   UNL     1     -40.399  53.077 -52.330  1.00  0.00     0.044 A 
HETATM   31  C   UNL     1     -39.873  51.631 -54.414  1.00  0.00     0.039 C 
HETATM   32  C   UNL     1     -39.962  50.099 -54.465  1.00  0.00     0.009 C 
ENDBRANCH  23  24
ENDBRANCH  22  23
ENDBRANCH   1  22
TORSDOF 9
ENDMDL
MODEL 5
REMARK VINA RESULT:      -7.7      1.196      2.092
REMARK  9 active torsions:
REMARK  status: ('A' for Active; 'I' for Inactive)
REMARK    1  A    between atoms: C_2  and  O_3 
REMARK    2  A    between atoms: O_3  and  C_4 
REMARK    3  A    between atoms: C_4  and  C_5 
REMARK    4  A    between atoms: C_7  and  C_8 
REMARK       I    between atoms: C_8  and  N_9 
REMARK    5  A    between atoms: N_9  and  N_10 
REMARK    6  A    between atoms: N_10  and  C_11 
REMARK    7  A    between atoms: C_11  and  N_12 
REMARK    8  A    between atoms: N_12  and  C_13 
REMARK    9  A    between atoms: C_13  and  C_14 
ROOT
HETATM    1  C   UNL     1     -43.658  57.918 -52.896  1.00  0.00     0.078 A 
HETATM    2  O   UNL     1     -43.962  57.837 -54.222  1.00  0.00    -0.307 OA
HETATM    3  C   UNL     1     -44.899  58.799 -54.497  1.00  0.00     0.145 A 
HETATM    4  C   UNL     1     -45.175  59.501 -53.334  1.00  0.00     0.045 A 
HETATM    5  C   UNL     1     -44.379  58.935 -52.310  1.00  0.00     0.038 A 
ENDROOT
BRANCH   3   6
HETATM    6  C   UNL     1     -45.405  58.893 -55.852  1.00  0.00     0.293 C 
HETATM    7  N   UNL     1     -46.104  57.777 -56.288  1.00  0.00    -0.262 N 
HETATM    8  H   UNL     1     -46.426  57.060 -55.644  1.00  0.00     0.190 HD
HETATM    9  O   UNL     1     -45.254  59.866 -56.594  1.00  0.00    -0.264 OA
BRANCH   7  10
HETATM   10  N   UNL     1     -46.764  57.837 -57.531  1.00  0.00    -0.274 N 
HETATM   11  H   UNL     1     -47.750  57.587 -57.477  1.00  0.00     0.189 HD
BRANCH  10  12
HETATM   12  C   UNL     1     -46.078  57.560 -58.684  1.00  0.00     0.186 C 
HETATM   13  S   UNL     1     -46.306  58.347 -60.146  1.00  0.00    -0.040 SA
BRANCH  12  14
HETATM   14  N   UNL     1     -45.195  56.528 -58.640  1.00  0.00    -0.364 N 
HETATM   15  H   UNL     1     -45.061  56.136 -57.713  1.00  0.00     0.162 HD
BRANCH  14  16
HETATM   16  C   UNL     1     -44.191  56.120 -59.619  1.00  0.00     0.154 C 
BRANCH  16  17
HETATM   17  C   UNL     1     -42.765  56.550 -59.236  1.00  0.00     0.139 C 
HETATM   18  O   UNL     1     -42.792  57.210 -57.952  1.00  0.00    -0.384 OA
HETATM   19  C   UNL     1     -42.135  58.477 -58.077  1.00  0.00     0.168 C 
HETATM   20  C   UNL     1     -42.181  58.843 -59.542  1.00  0.00     0.029 C 
HETATM   21  C   UNL     1     -42.087  57.499 -60.217  1.00  0.00     0.035 C 
ENDBRANCH  16  17
ENDBRANCH  14  16
ENDBRANCH  12  14
ENDBRANCH  10  12
ENDBRANCH   7  10
ENDBRANCH   3   6
BRANCH   1  22
HETATM   22  C   UNL     1     -42.665  56.946 -52.370  1.00  0.00     0.240 C 
BRANCH  22  23
HETATM   23  O   UNL     1     -41.657  56.826 -53.371  1.00  0.00    -0.345 OA
BRANCH  23  24
HETATM   24  C   UNL     1     -41.182  55.567 -53.621  1.00  0.00     0.069 A 
HETATM   25  C   UNL     1     -40.846  55.055 -54.885  1.00  0.00     0.037 A 
HETATM   26  C   UNL     1     -40.349  53.753 -55.020  1.00  0.00     0.010 A 
HETATM   27  C   UNL     1     -40.187  52.986 -53.881  1.00  0.00    -0.052 A 
HETATM   28  C   UNL     1     -40.521  53.490 -52.622  1.00  0.00    -0.049 A 
HETATM   29  C   UNL     1     -39.716  51.569 -53.779  1.00  0.00     0.039 C 
HETATM   30  C   UNL     1     -41.016  54.775 -52.479  1.00  0.00     0.044 A 
HETATM   31  C   UNL     1     -40.317  52.457 -51.560  1.00  0.00     0.039 C 
HETATM   32  C   UNL     1     -39.388  51.470 -52.281  1.00  0.00     0.009 C 
ENDBRANCH  23  24
ENDBRANCH  22  23
ENDBRANCH   1  22
TORSDOF 9
ENDMDL
MODEL 6
REMARK VINA RESULT:      -7.5      3.188      5.497
REMARK  9 active torsions:
REMARK  status: ('A' for Active; 'I' for Inactive)
REMARK    1  A    between atoms: C_2  and  O_3 
REMARK    2  A    between atoms: O_3  and  C_4 
REMARK    3  A    between atoms: C_4  and  C_5 
REMARK    4  A    between atoms: C_7  and  C_8 
REMARK       I    between atoms: C_8  and  N_9 
REMARK    5  A    between atoms: N_9  and  N_10 
REMARK    6  A    between atoms: N_10  and  C_11 
REMARK    7  A    between atoms: C_11  and  N_12 
REMARK    8  A    between atoms: N_12  and  C_13 
REMARK    9  A    between atoms: C_13  and  C_14 
ROOT
HETATM    1  C   UNL     1     -42.914  56.223 -57.017  1.00  0.00     0.078 A 
HETATM    2  O   UNL     1     -42.656  57.305 -56.230  1.00  0.00    -0.307 OA
HETATM    3  C   UNL     1     -42.457  58.383 -57.054  1.00  0.00     0.145 A 
HETATM    4  C   UNL     1     -42.607  57.975 -58.370  1.00  0.00     0.045 A 
HETATM    5  C   UNL     1     -42.899  56.590 -58.344  1.00  0.00     0.038 A 
ENDROOT
BRANCH   3   6
HETATM    6  C   UNL     1     -42.137  59.659 -56.445  1.00  0.00     0.293 C 
HETATM    7  N   UNL     1     -42.790  59.908 -55.247  1.00  0.00    -0.262 N 
HETATM    8  H   UNL     1     -43.267  59.173 -54.733  1.00  0.00     0.190 HD
HETATM    9  O   UNL     1     -41.355  60.487 -56.915  1.00  0.00    -0.264 OA
BRANCH   7  10
HETATM   10  N   UNL     1     -42.427  61.049 -54.505  1.00  0.00    -0.274 N 
HETATM   11  H   UNL     1     -41.419  61.180 -54.433  1.00  0.00     0.189 HD
BRANCH  10  12
HETATM   12  C   UNL     1     -43.221  61.476 -53.473  1.00  0.00     0.186 C 
HETATM   13  S   UNL     1     -44.607  62.401 -53.651  1.00  0.00    -0.040 SA
BRANCH  12  14
HETATM   14  N   UNL     1     -42.808  61.170 -52.215  1.00  0.00    -0.364 N 
HETATM   15  H   UNL     1     -42.123  61.815 -51.835  1.00  0.00     0.162 HD
BRANCH  14  16
HETATM   16  C   UNL     1     -42.939  59.919 -51.472  1.00  0.00     0.154 C 
BRANCH  16  17
HETATM   17  C   UNL     1     -41.611  59.154 -51.341  1.00  0.00     0.139 C 
HETATM   18  O   UNL     1     -40.644  59.714 -52.255  1.00  0.00    -0.384 OA
HETATM   19  C   UNL     1     -40.097  58.651 -53.046  1.00  0.00     0.168 C 
HETATM   20  C   UNL     1     -41.103  57.524 -53.008  1.00  0.00     0.029 C 
HETATM   21  C   UNL     1     -41.691  57.660 -51.627  1.00  0.00     0.035 C 
ENDBRANCH  16  17
ENDBRANCH  14  16
ENDBRANCH  12  14
ENDBRANCH  10  12
ENDBRANCH   7  10
ENDBRANCH   3   6
BRANCH   1  22
HETATM   22  C   UNL     1     -43.145  54.927 -56.327  1.00  0.00     0.240 C 
BRANCH  22  23
HETATM   23  O   UNL     1     -41.855  54.396 -56.036  1.00  0.00    -0.345 OA
BRANCH  23  24
HETATM   24  C   UNL     1     -41.582  54.121 -54.723  1.00  0.00     0.069 A 
HETATM   25  C   UNL     1     -40.357  53.648 -54.223  1.00  0.00     0.037 A 
HETATM   26  C   UNL     1     -40.185  53.418 -52.853  1.00  0.00     0.010 A 
HETATM   27  C   UNL     1     -41.244  53.676 -52.002  1.00  0.00    -0.052 A 
HETATM   28  C   UNL     1     -42.464  54.146 -52.494  1.00  0.00    -0.049 A 
HETATM   29  C   UNL     1     -41.311  53.472 -50.520  1.00  0.00     0.039 C 
HETATM   30  C   UNL     1     -42.644  54.372 -53.848  1.00  0.00     0.044 A 
HETATM   31  C   UNL     1     -43.466  54.289 -51.393  1.00  0.00     0.039 C 
HETATM   32  C   UNL     1     -42.552  54.303 -50.159  1.00  0.00     0.009 C 
ENDBRANCH  23  24
ENDBRANCH  22  23
ENDBRANCH   1  22
TORSDOF 9
ENDMDL
MODEL 7
REMARK VINA RESULT:      -7.5      2.670      4.398
REMARK  9 active torsions:
REMARK  status: ('A' for Active; 'I' for Inactive)
REMARK    1  A    between atoms: C_2  and  O_3 
REMARK    2  A    between atoms: O_3  and  C_4 
REMARK    3  A    between atoms: C_4  and  C_5 
REMARK    4  A    between atoms: C_7  and  C_8 
REMARK       I    between atoms: C_8  and  N_9 
REMARK    5  A    between atoms: N_9  and  N_10 
REMARK    6  A    between atoms: N_10  and  C_11 
REMARK    7  A    between atoms: C_11  and  N_12 
REMARK    8  A    between atoms: N_12  and  C_13 
REMARK    9  A    between atoms: C_13  and  C_14 
ROOT
HETATM    1  C   UNL     1     -43.125  55.764 -56.402  1.00  0.00     0.078 A 
HETATM    2  O   UNL     1     -43.679  56.804 -55.718  1.00  0.00    -0.307 OA
HETATM    3  C   UNL     1     -43.918  57.814 -56.613  1.00  0.00     0.145 A 
HETATM    4  C   UNL     1     -43.524  57.398 -57.875  1.00  0.00     0.045 A 
HETATM    5  C   UNL     1     -43.015  56.084 -57.738  1.00  0.00     0.038 A 
ENDROOT
BRANCH   3   6
HETATM    6  C   UNL     1     -44.488  59.051 -56.114  1.00  0.00     0.293 C 
HETATM    7  N   UNL     1     -45.406  58.890 -55.087  1.00  0.00    -0.262 N 
HETATM    8  H   UNL     1     -45.500  58.015 -54.581  1.00  0.00     0.190 HD
HETATM    9  O   UNL     1     -44.208  60.175 -56.534  1.00  0.00    -0.264 OA
BRANCH   7  10
HETATM   10  N   UNL     1     -45.895  60.039 -54.434  1.00  0.00    -0.274 N 
HETATM   11  H   UNL     1     -46.239  60.752 -55.076  1.00  0.00     0.189 HD
BRANCH  10  12
HETATM   12  C   UNL     1     -45.345  60.437 -53.244  1.00  0.00     0.186 C 
HETATM   13  S   UNL     1     -46.001  60.125 -51.734  1.00  0.00    -0.040 SA
BRANCH  12  14
HETATM   14  N   UNL     1     -44.216  61.190 -53.311  1.00  0.00    -0.364 N 
HETATM   15  H   UNL     1     -44.305  62.020 -53.890  1.00  0.00     0.162 HD
BRANCH  14  16
HETATM   16  C   UNL     1     -42.841  60.839 -52.966  1.00  0.00     0.154 C 
BRANCH  16  17
HETATM   17  C   UNL     1     -42.565  59.328 -53.055  1.00  0.00     0.139 C 
HETATM   18  O   UNL     1     -42.229  58.825 -51.745  1.00  0.00    -0.384 OA
HETATM   19  C   UNL     1     -40.992  58.107 -51.835  1.00  0.00     0.168 C 
HETATM   20  C   UNL     1     -40.286  58.620 -53.068  1.00  0.00     0.029 C 
HETATM   21  C   UNL     1     -41.434  58.930 -53.995  1.00  0.00     0.035 C 
ENDBRANCH  16  17
ENDBRANCH  14  16
ENDBRANCH  12  14
ENDBRANCH  10  12
ENDBRANCH   7  10
ENDBRANCH   3   6
BRANCH   1  22
HETATM   22  C   UNL     1     -42.763  54.556 -55.617  1.00  0.00     0.240 C 
BRANCH  22  23
HETATM   23  O   UNL     1     -42.136  55.028 -54.427  1.00  0.00    -0.345 OA
BRANCH  23  24
HETATM   24  C   UNL     1     -41.397  54.121 -53.717  1.00  0.00     0.069 A 
HETATM   25  C   UNL     1     -40.873  54.321 -52.429  1.00  0.00     0.037 A 
HETATM   26  C   UNL     1     -40.145  53.310 -51.788  1.00  0.00     0.010 A 
HETATM   27  C   UNL     1     -39.961  52.109 -52.448  1.00  0.00    -0.052 A 
HETATM   28  C   UNL     1     -40.479  51.906 -53.729  1.00  0.00    -0.049 A 
HETATM   29  C   UNL     1     -39.192  50.909 -51.988  1.00  0.00     0.039 C 
HETATM   30  C   UNL     1     -41.197  52.900 -54.371  1.00  0.00     0.044 A 
HETATM   31  C   UNL     1     -40.097  50.558 -54.254  1.00  0.00     0.039 C 
HETATM   32  C   UNL     1     -39.709  49.834 -52.956  1.00  0.00     0.009 C 
ENDBRANCH  23  24
ENDBRANCH  22  23
ENDBRANCH   1  22
TORSDOF 9
ENDMDL
MODEL 8
REMARK VINA RESULT:      -7.3      1.661      2.272
REMARK  9 active torsions:
REMARK  status: ('A' for Active; 'I' for Inactive)
REMARK    1  A    between atoms: C_2  and  O_3 
REMARK    2  A    between atoms: O_3  and  C_4 
REMARK    3  A    between atoms: C_4  and  C_5 
REMARK    4  A    between atoms: C_7  and  C_8 
REMARK       I    between atoms: C_8  and  N_9 
REMARK    5  A    between atoms: N_9  and  N_10 
REMARK    6  A    between atoms: N_10  and  C_11 
REMARK    7  A    between atoms: C_11  and  N_12 
REMARK    8  A    between atoms: N_12  and  C_13 
REMARK    9  A    between atoms: C_13  and  C_14 
ROOT
HETATM    1  C   UNL     1     -41.648  58.280 -53.937  1.00  0.00     0.078 A 
HETATM    2  O   UNL     1     -42.912  57.949 -54.324  1.00  0.00    -0.307 OA
HETATM    3  C   UNL     1     -43.540  59.097 -54.732  1.00  0.00     0.145 A 
HETATM    4  C   UNL     1     -42.655  60.158 -54.613  1.00  0.00     0.045 A 
HETATM    5  C   UNL     1     -41.444  59.632 -54.103  1.00  0.00     0.038 A 
ENDROOT
BRANCH   3   6
HETATM    6  C   UNL     1     -44.919  59.005 -55.170  1.00  0.00     0.293 C 
HETATM    7  N   UNL     1     -45.179  57.959 -56.043  1.00  0.00    -0.262 N 
HETATM    8  H   UNL     1     -44.521  57.198 -56.181  1.00  0.00     0.190 HD
HETATM    9  O   UNL     1     -45.821  59.768 -54.821  1.00  0.00    -0.264 OA
BRANCH   7  10
HETATM   10  N   UNL     1     -46.516  57.695 -56.400  1.00  0.00    -0.274 N 
HETATM   11  H   UNL     1     -46.905  56.878 -55.932  1.00  0.00     0.189 HD
BRANCH  10  12
HETATM   12  C   UNL     1     -46.963  58.007 -57.657  1.00  0.00     0.186 C 
HETATM   13  S   UNL     1     -47.690  59.455 -58.083  1.00  0.00    -0.040 SA
BRANCH  12  14
HETATM   14  N   UNL     1     -46.857  57.038 -58.603  1.00  0.00    -0.364 N 
HETATM   15  H   UNL     1     -46.609  56.124 -58.236  1.00  0.00     0.162 HD
BRANCH  14  16
HETATM   16  C   UNL     1     -46.722  57.163 -60.052  1.00  0.00     0.154 C 
BRANCH  16  17
HETATM   17  C   UNL     1     -45.520  56.386 -60.616  1.00  0.00     0.139 C 
HETATM   18  O   UNL     1     -45.699  54.977 -60.361  1.00  0.00    -0.384 OA
HETATM   19  C   UNL     1     -44.523  54.479 -59.711  1.00  0.00     0.168 C 
HETATM   20  C   UNL     1     -43.846  55.669 -59.075  1.00  0.00     0.029 C 
HETATM   21  C   UNL     1     -44.166  56.781 -60.041  1.00  0.00     0.035 C 
ENDBRANCH  16  17
ENDBRANCH  14  16
ENDBRANCH  12  14
ENDBRANCH  10  12
ENDBRANCH   7  10
ENDBRANCH   3   6
BRANCH   1  22
HETATM   22  C   UNL     1     -40.786  57.180 -53.435  1.00  0.00     0.240 C 
BRANCH  22  23
HETATM   23  O   UNL     1     -41.662  56.100 -53.119  1.00  0.00    -0.345 OA
BRANCH  23  24
HETATM   24  C   UNL     1     -41.172  54.835 -53.299  1.00  0.00     0.069 A 
HETATM   25  C   UNL     1     -40.897  54.231 -54.537  1.00  0.00     0.037 A 
HETATM   26  C   UNL     1     -40.378  52.932 -54.600  1.00  0.00     0.010 A 
HETATM   27  C   UNL     1     -40.132  52.261 -53.416  1.00  0.00    -0.052 A 
HETATM   28  C   UNL     1     -40.404  52.856 -52.183  1.00  0.00    -0.049 A 
HETATM   29  C   UNL     1     -39.622  50.865 -53.233  1.00  0.00     0.039 C 
HETATM   30  C   UNL     1     -40.921  54.139 -52.111  1.00  0.00     0.044 A 
HETATM   31  C   UNL     1     -40.115  51.914 -51.057  1.00  0.00     0.039 C 
HETATM   32  C   UNL     1     -39.206  50.891 -51.754  1.00  0.00     0.009 C 
ENDBRANCH  23  24
ENDBRANCH  22  23
ENDBRANCH   1  22
TORSDOF 9
ENDMDL
MODEL 9
REMARK VINA RESULT:      -7.2      4.977      6.324
REMARK  9 active torsions:
REMARK  status: ('A' for Active; 'I' for Inactive)
REMARK    1  A    between atoms: C_2  and  O_3 
REMARK    2  A    between atoms: O_3  and  C_4 
REMARK    3  A    between atoms: C_4  and  C_5 
REMARK    4  A    between atoms: C_7  and  C_8 
REMARK       I    between atoms: C_8  and  N_9 
REMARK    5  A    between atoms: N_9  and  N_10 
REMARK    6  A    between atoms: N_10  and  C_11 
REMARK    7  A    between atoms: C_11  and  N_12 
REMARK    8  A    between atoms: N_12  and  C_13 
REMARK    9  A    between atoms: C_13  and  C_14 
ROOT
HETATM    1  C   UNL     1     -41.184  57.603 -53.152  1.00  0.00     0.078 A 
HETATM    2  O   UNL     1     -42.426  57.578 -52.591  1.00  0.00    -0.307 OA
HETATM    3  C   UNL     1     -42.598  58.751 -51.903  1.00  0.00     0.145 A 
HETATM    4  C   UNL     1     -41.459  59.527 -52.048  1.00  0.00     0.045 A 
HETATM    5  C   UNL     1     -40.554  58.789 -52.848  1.00  0.00     0.038 A 
ENDROOT
BRANCH   3   6
HETATM    6  C   UNL     1     -43.845  58.949 -51.190  1.00  0.00     0.293 C 
HETATM    7  N   UNL     1     -43.777  59.865 -50.150  1.00  0.00    -0.262 N 
HETATM    8  H   UNL     1     -42.992  60.501 -50.045  1.00  0.00     0.190 HD
HETATM    9  O   UNL     1     -44.904  58.376 -51.451  1.00  0.00    -0.264 OA
BRANCH   7  10
HETATM   10  N   UNL     1     -44.970  60.238 -49.501  1.00  0.00    -0.274 N 
HETATM   11  H   UNL     1     -45.806  60.050 -50.053  1.00  0.00     0.189 HD
BRANCH  10  12
HETATM   12  C   UNL     1     -44.977  61.305 -48.642  1.00  0.00     0.186 C 
HETATM   13  S   UNL     1     -44.974  61.188 -46.970  1.00  0.00    -0.040 SA
BRANCH  12  14
HETATM   14  N   UNL     1     -45.052  62.542 -49.200  1.00  0.00    -0.364 N 
HETATM   15  H   UNL     1     -45.987  62.938 -49.205  1.00  0.00     0.162 HD
BRANCH  14  16
HETATM   16  C   UNL     1     -44.098  63.232 -50.063  1.00  0.00     0.154 C 
BRANCH  16  17
HETATM   17  C   UNL     1     -44.600  63.396 -51.508  1.00  0.00     0.139 C 
HETATM   18  O   UNL     1     -45.133  62.139 -51.975  1.00  0.00    -0.384 OA
HETATM   19  C   UNL     1     -44.506  61.815 -53.223  1.00  0.00     0.168 C 
HETATM   20  C   UNL     1     -43.205  62.581 -53.264  1.00  0.00     0.029 C 
HETATM   21  C   UNL     1     -43.548  63.843 -52.514  1.00  0.00     0.035 C 
ENDBRANCH  16  17
ENDBRANCH  14  16
ENDBRANCH  12  14
ENDBRANCH  10  12
ENDBRANCH   7  10
ENDBRANCH   3   6
BRANCH   1  22
HETATM   22  C   UNL     1     -40.774  56.410 -53.938  1.00  0.00     0.240 C 
BRANCH  22  23
HETATM   23  O   UNL     1     -41.636  55.351 -53.530  1.00  0.00    -0.345 OA
BRANCH  23  24
HETATM   24  C   UNL     1     -41.038  54.235 -53.009  1.00  0.00     0.069 A 
HETATM   25  C   UNL     1     -40.632  54.071 -51.674  1.00  0.00     0.037 A 
HETATM   26  C   UNL     1     -40.046  52.874 -51.247  1.00  0.00     0.010 A 
HETATM   27  C   UNL     1     -39.884  51.853 -52.165  1.00  0.00    -0.052 A 
HETATM   28  C   UNL     1     -40.284  52.011 -53.494  1.00  0.00    -0.049 A 
HETATM   29  C   UNL     1     -39.252  50.511 -51.956  1.00  0.00     0.039 C 
HETATM   30  C   UNL     1     -40.862  53.193 -53.926  1.00  0.00     0.044 A 
HETATM   31  C   UNL     1     -39.950  50.798 -54.302  1.00  0.00     0.039 C 
HETATM   32  C   UNL     1     -39.746  49.752 -53.197  1.00  0.00     0.009 C 
ENDBRANCH  23  24
ENDBRANCH  22  23
ENDBRANCH   1  22
TORSDOF 9
ENDMDL
MODEL 10
REMARK VINA RESULT:      -7.1      1.877      2.080
REMARK  9 active torsions:
REMARK  status: ('A' for Active; 'I' for Inactive)
REMARK    1  A    between atoms: C_2  and  O_3 
REMARK    2  A    between atoms: O_3  and  C_4 
REMARK    3  A    between atoms: C_4  and  C_5 
REMARK    4  A    between atoms: C_7  and  C_8 
REMARK       I    between atoms: C_8  and  N_9 
REMARK    5  A    between atoms: N_9  and  N_10 
REMARK    6  A    between atoms: N_10  and  C_11 
REMARK    7  A    between atoms: C_11  and  N_12 
REMARK    8  A    between atoms: N_12  and  C_13 
REMARK    9  A    between atoms: C_13  and  C_14 
ROOT
HETATM    1  C   UNL     1     -42.998  56.612 -52.543  1.00  0.00     0.078 A 
HETATM    2  O   UNL     1     -43.533  57.557 -53.366  1.00  0.00    -0.307 OA
HETATM    3  C   UNL     1     -44.545  58.180 -52.684  1.00  0.00     0.145 A 
HETATM    4  C   UNL     1     -44.636  57.631 -51.415  1.00  0.00     0.045 A 
HETATM    5  C   UNL     1     -43.644  56.625 -51.327  1.00  0.00     0.038 A 
ENDROOT
BRANCH   3   6
HETATM    6  C   UNL     1     -45.293  59.218 -53.368  1.00  0.00     0.293 C 
HETATM    7  N   UNL     1     -45.282  59.122 -54.751  1.00  0.00    -0.262 N 
HETATM    8  H   UNL     1     -44.974  58.280 -55.229  1.00  0.00     0.190 HD
HETATM    9  O   UNL     1     -45.904  60.130 -52.809  1.00  0.00    -0.264 OA
BRANCH   7  10
HETATM   10  N   UNL     1     -46.104  59.991 -55.494  1.00  0.00    -0.274 N 
HETATM   11  H   UNL     1     -47.017  59.595 -55.714  1.00  0.00     0.189 HD
BRANCH  10  12
HETATM   12  C   UNL     1     -45.543  60.877 -56.377  1.00  0.00     0.186 C 
HETATM   13  S   UNL     1     -45.729  62.541 -56.312  1.00  0.00    -0.040 SA
BRANCH  12  14
HETATM   14  N   UNL     1     -44.839  60.348 -57.411  1.00  0.00    -0.364 N 
HETATM   15  H   UNL     1     -44.000  60.868 -57.651  1.00  0.00     0.162 HD
BRANCH  14  16
HETATM   16  C   UNL     1     -45.253  59.372 -58.416  1.00  0.00     0.154 C 
BRANCH  16  17
HETATM   17  C   UNL     1     -44.484  58.043 -58.317  1.00  0.00     0.139 C 
HETATM   18  O   UNL     1     -44.098  57.814 -56.946  1.00  0.00    -0.384 OA
HETATM   19  C   UNL     1     -42.690  57.551 -56.907  1.00  0.00     0.168 C 
HETATM   20  C   UNL     1     -42.106  58.149 -58.165  1.00  0.00     0.029 C 
HETATM   21  C   UNL     1     -43.220  57.960 -59.163  1.00  0.00     0.035 C 
ENDBRANCH  16  17
ENDBRANCH  14  16
ENDBRANCH  12  14
ENDBRANCH  10  12
ENDBRANCH   7  10
ENDBRANCH   3   6
BRANCH   1  22
HETATM   22  C   UNL     1     -41.885  55.793 -53.089  1.00  0.00     0.240 C 
BRANCH  22  23
HETATM   23  O   UNL     1     -41.098  55.394 -51.969  1.00  0.00    -0.345 OA
BRANCH  23  24
HETATM   24  C   UNL     1     -40.694  54.086 -51.933  1.00  0.00     0.069 A 
HETATM   25  C   UNL     1     -40.429  53.343 -50.771  1.00  0.00     0.037 A 
HETATM   26  C   UNL     1     -40.039  52.001 -50.854  1.00  0.00     0.010 A 
HETATM   27  C   UNL     1     -39.928  51.421 -52.104  1.00  0.00    -0.052 A 
HETATM   28  C   UNL     1     -40.189  52.156 -53.263  1.00  0.00    -0.049 A 
HETATM   29  C   UNL     1     -39.493  50.029 -52.443  1.00  0.00     0.039 C 
HETATM   30  C   UNL     1     -40.573  53.484 -53.190  1.00  0.00     0.044 A 
HETATM   31  C   UNL     1     -39.943  51.332 -54.487  1.00  0.00     0.039 C 
HETATM   32  C   UNL     1     -39.970  49.913 -53.899  1.00  0.00     0.009 C 
ENDBRANCH  23  24
ENDBRANCH  22  23
ENDBRANCH   1  22
TORSDOF 9
ENDMDL
