MODEL 1
REMARK VINA RESULT:      -9.0      0.000      0.000
REMARK  3 active torsions:
REMARK  status: ('A' for Active; 'I' for Inactive)
REMARK    1  A    between atoms: C_6  and  C_7 
REMARK    2  A    between atoms: C_14  and  N_15 
REMARK    3  A    between atoms: N_15  and  C_16 
ROOT
HETATM    1  C   UNL     1     -44.535  58.252 -52.527  1.00  0.00     0.001 A 
HETATM    2  C   UNL     1     -44.348  57.458 -53.655  1.00  0.00     0.018 A 
HETATM    3  C   UNL     1     -43.494  56.325 -53.615  1.00  0.00     0.039 A 
HETATM    4  C   UNL     1     -42.843  55.995 -52.420  1.00  0.00     0.073 A 
HETATM    5  N   UNL     1     -42.038  54.936 -52.301  1.00  0.00    -0.228 NA
HETATM    6  C   UNL     1     -41.862  54.164 -53.385  1.00  0.00     0.164 A 
HETATM    7  N   UNL     1     -42.439  54.389 -54.575  1.00  0.00    -0.210 NA
HETATM    8  C   UNL     1     -43.242  55.460 -54.694  1.00  0.00     0.143 A 
HETATM    9  C   UNL     1     -43.046  56.803 -51.307  1.00  0.00     0.032 A 
HETATM   10  C   UNL     1     -43.879  57.924 -51.348  1.00  0.00     0.002 A 
ENDROOT
BRANCH   8  11
HETATM   11  N   UNL     1     -43.836  55.738 -55.955  1.00  0.00    -0.340 N 
HETATM   12  H   UNL     1     -44.780  56.075 -55.806  1.00  0.00     0.167 HD
BRANCH  11  13
HETATM   13  C   UNL     1     -43.230  56.344 -57.079  1.00  0.00     0.036 A 
HETATM   14  C   UNL     1     -42.714  57.643 -56.965  1.00  0.00     0.069 A 
HETATM   15  C   UNL     1     -42.183  58.307 -58.076  1.00  0.00     0.104 A 
HETATM   16  C   UNL     1     -42.157  57.676 -59.320  1.00  0.00     0.102 A 
HETATM   17  O   UNL     1     -41.617  59.531 -57.842  1.00  0.00    -0.348 OA
HETATM   18  O   UNL     1     -41.564  58.218 -60.426  1.00  0.00    -0.348 OA
HETATM   19  C   UNL     1     -42.669  56.389 -59.451  1.00  0.00     0.042 A 
HETATM   20  C   UNL     1     -42.197  59.431 -60.837  1.00  0.00     0.178 C 
HETATM   21  C   UNL     1     -41.713  60.624 -60.030  1.00  0.00     0.053 C 
HETATM   22  C   UNL     1     -42.236  60.569 -58.604  1.00  0.00     0.178 C 
HETATM   23  C   UNL     1     -43.225  55.741 -58.345  1.00  0.00     0.032 A 
ENDBRANCH  11  13
ENDBRANCH   8  11
BRANCH   6  24
HETATM   24  C   UNL     1     -40.971  53.004 -53.271  1.00  0.00     0.029 A 
HETATM   25  C   UNL     1     -40.240  52.745 -52.111  1.00  0.00     0.131 A 
HETATM   26  N   UNL     1     -39.396  51.694 -51.934  1.00  0.00    -0.272 NA
HETATM   27  C   UNL     1     -39.262  50.845 -52.972  1.00  0.00     0.116 A 
HETATM   28  C   UNL     1     -39.932  50.995 -54.173  1.00  0.00     0.020 A 
HETATM   29  C   UNL     1     -40.792  52.083 -54.318  1.00  0.00     0.018 A 
ENDBRANCH   6  24
TORSDOF 3
ENDMDL
MODEL 2
REMARK VINA RESULT:      -8.9      1.995      2.356
REMARK  3 active torsions:
REMARK  status: ('A' for Active; 'I' for Inactive)
REMARK    1  A    between atoms: C_6  and  C_7 
REMARK    2  A    between atoms: C_14  and  N_15 
REMARK    3  A    between atoms: N_15  and  C_16 
ROOT
HETATM    1  C   UNL     1     -44.741  58.302 -52.314  1.00  0.00     0.001 A 
HETATM    2  C   UNL     1     -43.982  57.937 -53.422  1.00  0.00     0.018 A 
HETATM    3  C   UNL     1     -43.190  56.758 -53.406  1.00  0.00     0.039 A 
HETATM    4  C   UNL     1     -43.188  55.947 -52.265  1.00  0.00     0.073 A 
HETATM    5  N   UNL     1     -42.482  54.815 -52.182  1.00  0.00    -0.228 NA
HETATM    6  C   UNL     1     -41.755  54.456 -53.252  1.00  0.00     0.164 A 
HETATM    7  N   UNL     1     -41.690  55.159 -54.392  1.00  0.00    -0.210 NA
HETATM    8  C   UNL     1     -42.394  56.301 -54.471  1.00  0.00     0.143 A 
HETATM    9  C   UNL     1     -43.955  56.333 -51.172  1.00  0.00     0.032 A 
HETATM   10  C   UNL     1     -44.726  57.498 -51.183  1.00  0.00     0.002 A 
ENDROOT
BRANCH   8  11
HETATM   11  N   UNL     1     -42.312  57.080 -55.656  1.00  0.00    -0.340 N 
HETATM   12  H   UNL     1     -41.347  57.356 -55.800  1.00  0.00     0.167 HD
BRANCH  11  13
HETATM   13  C   UNL     1     -42.988  56.864 -56.879  1.00  0.00     0.036 A 
HETATM   14  C   UNL     1     -43.874  57.842 -57.356  1.00  0.00     0.069 A 
HETATM   15  C   UNL     1     -44.623  57.629 -58.518  1.00  0.00     0.104 A 
HETATM   16  C   UNL     1     -44.493  56.433 -59.224  1.00  0.00     0.102 A 
HETATM   17  O   UNL     1     -45.386  58.679 -58.953  1.00  0.00    -0.348 OA
HETATM   18  O   UNL     1     -45.112  56.192 -60.418  1.00  0.00    -0.348 OA
HETATM   19  C   UNL     1     -43.621  55.451 -58.762  1.00  0.00     0.042 A 
HETATM   20  C   UNL     1     -46.535  56.191 -60.297  1.00  0.00     0.178 C 
HETATM   21  C   UNL     1     -47.107  57.599 -60.318  1.00  0.00     0.053 C 
HETATM   22  C   UNL     1     -46.772  58.345 -59.036  1.00  0.00     0.178 C 
HETATM   23  C   UNL     1     -42.897  55.656 -57.584  1.00  0.00     0.032 A 
ENDBRANCH  11  13
ENDBRANCH   8  11
BRANCH   6  24
HETATM   24  C   UNL     1     -40.966  53.221 -53.169  1.00  0.00     0.029 A 
HETATM   25  C   UNL     1     -40.254  52.875 -52.020  1.00  0.00     0.131 A 
HETATM   26  N   UNL     1     -39.503  51.752 -51.871  1.00  0.00    -0.272 NA
HETATM   27  C   UNL     1     -39.449  50.918 -52.928  1.00  0.00     0.116 A 
HETATM   28  C   UNL     1     -40.110  51.151 -54.121  1.00  0.00     0.020 A 
HETATM   29  C   UNL     1     -40.873  52.312 -54.236  1.00  0.00     0.018 A 
ENDBRANCH   6  24
TORSDOF 3
ENDMDL
MODEL 3
REMARK VINA RESULT:      -8.9      3.166      7.497
REMARK  3 active torsions:
REMARK  status: ('A' for Active; 'I' for Inactive)
REMARK    1  A    between atoms: C_6  and  C_7 
REMARK    2  A    between atoms: C_14  and  N_15 
REMARK    3  A    between atoms: N_15  and  C_16 
ROOT
HETATM    1  C   UNL     1     -42.080  58.900 -51.101  1.00  0.00     0.001 A 
HETATM    2  C   UNL     1     -42.295  57.663 -51.703  1.00  0.00     0.018 A 
HETATM    3  C   UNL     1     -42.353  57.541 -53.116  1.00  0.00     0.039 A 
HETATM    4  C   UNL     1     -42.176  58.680 -53.912  1.00  0.00     0.073 A 
HETATM    5  N   UNL     1     -42.201  58.641 -55.248  1.00  0.00    -0.228 NA
HETATM    6  C   UNL     1     -42.400  57.449 -55.831  1.00  0.00     0.164 A 
HETATM    7  N   UNL     1     -42.578  56.299 -55.162  1.00  0.00    -0.210 NA
HETATM    8  C   UNL     1     -42.561  56.342 -53.819  1.00  0.00     0.143 A 
HETATM    9  C   UNL     1     -41.963  59.902 -53.288  1.00  0.00     0.032 A 
HETATM   10  C   UNL     1     -41.915  60.025 -51.897  1.00  0.00     0.002 A 
ENDROOT
BRANCH   8  11
HETATM   11  N   UNL     1     -42.782  55.143 -53.090  1.00  0.00    -0.340 N 
HETATM   12  H   UNL     1     -43.659  54.733 -53.392  1.00  0.00     0.167 HD
BRANCH  11  13
HETATM   13  C   UNL     1     -41.831  54.158 -52.740  1.00  0.00     0.036 A 
HETATM   14  C   UNL     1     -41.353  53.283 -53.727  1.00  0.00     0.069 A 
HETATM   15  C   UNL     1     -40.475  52.243 -53.403  1.00  0.00     0.104 A 
HETATM   16  C   UNL     1     -40.059  52.065 -52.084  1.00  0.00     0.102 A 
HETATM   17  O   UNL     1     -39.990  51.505 -54.450  1.00  0.00    -0.348 OA
HETATM   18  O   UNL     1     -39.128  51.139 -51.706  1.00  0.00    -0.348 OA
HETATM   19  C   UNL     1     -40.528  52.922 -51.092  1.00  0.00     0.042 A 
HETATM   20  C   UNL     1     -39.567  49.802 -51.953  1.00  0.00     0.178 C 
HETATM   21  C   UNL     1     -39.346  49.391 -53.399  1.00  0.00     0.053 C 
HETATM   22  C   UNL     1     -40.306  50.118 -54.327  1.00  0.00     0.178 C 
HETATM   23  C   UNL     1     -41.428  53.942 -51.416  1.00  0.00     0.032 A 
ENDBRANCH  11  13
ENDBRANCH   8  11
BRANCH   6  24
HETATM   24  C   UNL     1     -42.442  57.394 -57.297  1.00  0.00     0.029 A 
HETATM   25  C   UNL     1     -42.052  58.476 -58.088  1.00  0.00     0.131 A 
HETATM   26  N   UNL     1     -42.064  58.499 -59.447  1.00  0.00    -0.272 NA
HETATM   27  C   UNL     1     -42.493  57.381 -60.066  1.00  0.00     0.116 A 
HETATM   28  C   UNL     1     -42.905  56.246 -59.393  1.00  0.00     0.020 A 
HETATM   29  C   UNL     1     -42.876  56.257 -57.999  1.00  0.00     0.018 A 
ENDBRANCH   6  24
TORSDOF 3
ENDMDL
MODEL 4
REMARK VINA RESULT:      -8.9      2.524      5.293
REMARK  3 active torsions:
REMARK  status: ('A' for Active; 'I' for Inactive)
REMARK    1  A    between atoms: C_6  and  C_7 
REMARK    2  A    between atoms: C_14  and  N_15 
REMARK    3  A    between atoms: N_15  and  C_16 
ROOT
HETATM    1  C   UNL     1     -40.319  53.264 -54.643  1.00  0.00     0.001 A 
HETATM    2  C   UNL     1     -40.857  54.350 -55.327  1.00  0.00     0.018 A 
HETATM    3  C   UNL     1     -41.745  55.250 -54.682  1.00  0.00     0.039 A 
HETATM    4  C   UNL     1     -42.069  55.049 -53.334  1.00  0.00     0.073 A 
HETATM    5  N   UNL     1     -42.884  55.862 -52.655  1.00  0.00    -0.228 NA
HETATM    6  C   UNL     1     -43.398  56.915 -53.310  1.00  0.00     0.164 A 
HETATM    7  N   UNL     1     -43.149  57.200 -54.597  1.00  0.00    -0.210 NA
HETATM    8  C   UNL     1     -42.337  56.376 -55.280  1.00  0.00     0.143 A 
HETATM    9  C   UNL     1     -41.519  53.957 -52.673  1.00  0.00     0.032 A 
HETATM   10  C   UNL     1     -40.653  53.065 -53.311  1.00  0.00     0.002 A 
ENDROOT
BRANCH   8  11
HETATM   11  N   UNL     1     -42.088  56.638 -56.654  1.00  0.00    -0.340 N 
HETATM   12  H   UNL     1     -41.142  56.349 -56.877  1.00  0.00     0.167 HD
BRANCH  11  13
HETATM   13  C   UNL     1     -42.969  56.447 -57.743  1.00  0.00     0.036 A 
HETATM   14  C   UNL     1     -43.676  57.545 -58.256  1.00  0.00     0.069 A 
HETATM   15  C   UNL     1     -44.617  57.382 -59.277  1.00  0.00     0.104 A 
HETATM   16  C   UNL     1     -44.864  56.114 -59.804  1.00  0.00     0.102 A 
HETATM   17  O   UNL     1     -45.182  58.525 -59.776  1.00  0.00    -0.348 OA
HETATM   18  O   UNL     1     -45.691  55.888 -60.868  1.00  0.00    -0.348 OA
HETATM   19  C   UNL     1     -44.174  55.014 -59.303  1.00  0.00     0.042 A 
HETATM   20  C   UNL     1     -47.045  56.245 -60.583  1.00  0.00     0.178 C 
HETATM   21  C   UNL     1     -47.284  57.737 -60.751  1.00  0.00     0.053 C 
HETATM   22  C   UNL     1     -46.605  58.528 -59.645  1.00  0.00     0.178 C 
HETATM   23  C   UNL     1     -43.255  55.178 -58.263  1.00  0.00     0.032 A 
ENDBRANCH  11  13
ENDBRANCH   8  11
BRANCH   6  24
HETATM   24  C   UNL     1     -44.303  57.809 -52.579  1.00  0.00     0.029 A 
HETATM   25  C   UNL     1     -44.771  57.503 -51.301  1.00  0.00     0.131 A 
HETATM   26  N   UNL     1     -45.610  58.280 -50.565  1.00  0.00    -0.272 NA
HETATM   27  C   UNL     1     -46.016  59.433 -51.131  1.00  0.00     0.116 A 
HETATM   28  C   UNL     1     -45.623  59.846 -52.392  1.00  0.00     0.020 A 
HETATM   29  C   UNL     1     -44.760  59.025 -53.116  1.00  0.00     0.018 A 
ENDBRANCH   6  24
TORSDOF 3
ENDMDL
MODEL 5
REMARK VINA RESULT:      -8.7      1.550      4.838
REMARK  3 active torsions:
REMARK  status: ('A' for Active; 'I' for Inactive)
REMARK    1  A    between atoms: C_6  and  C_7 
REMARK    2  A    between atoms: C_14  and  N_15 
REMARK    3  A    between atoms: N_15  and  C_16 
ROOT
HETATM    1  C   UNL     1     -40.865  52.972 -53.904  1.00  0.00     0.001 A 
HETATM    2  C   UNL     1     -41.687  53.721 -54.741  1.00  0.00     0.018 A 
HETATM    3  C   UNL     1     -42.464  54.793 -54.230  1.00  0.00     0.039 A 
HETATM    4  C   UNL     1     -42.388  55.109 -52.867  1.00  0.00     0.073 A 
HETATM    5  N   UNL     1     -43.076  56.114 -52.317  1.00  0.00    -0.228 NA
HETATM    6  C   UNL     1     -43.864  56.842 -53.123  1.00  0.00     0.164 A 
HETATM    7  N   UNL     1     -44.006  56.627 -54.439  1.00  0.00    -0.210 NA
HETATM    8  C   UNL     1     -43.319  55.610 -54.989  1.00  0.00     0.143 A 
HETATM    9  C   UNL     1     -41.560  54.347 -52.052  1.00  0.00     0.032 A 
HETATM   10  C   UNL     1     -40.803  53.285 -52.554  1.00  0.00     0.002 A 
ENDROOT
BRANCH   8  11
HETATM   11  N   UNL     1     -43.482  55.341 -56.375  1.00  0.00    -0.340 N 
HETATM   12  H   UNL     1     -44.428  55.013 -56.536  1.00  0.00     0.167 HD
BRANCH  11  13
HETATM   13  C   UNL     1     -42.992  56.096 -57.464  1.00  0.00     0.036 A 
HETATM   14  C   UNL     1     -42.496  57.389 -57.237  1.00  0.00     0.069 A 
HETATM   15  C   UNL     1     -42.080  58.198 -58.299  1.00  0.00     0.104 A 
HETATM   16  C   UNL     1     -42.150  57.722 -59.609  1.00  0.00     0.102 A 
HETATM   17  O   UNL     1     -41.524  59.404 -57.967  1.00  0.00    -0.348 OA
HETATM   18  O   UNL     1     -41.670  58.410 -60.687  1.00  0.00    -0.348 OA
HETATM   19  C   UNL     1     -42.643  56.443 -59.852  1.00  0.00     0.042 A 
HETATM   20  C   UNL     1     -42.363  59.642 -60.892  1.00  0.00     0.178 C 
HETATM   21  C   UNL     1     -41.837  60.746 -59.990  1.00  0.00     0.053 C 
HETATM   22  C   UNL     1     -42.231  60.504 -58.542  1.00  0.00     0.178 C 
HETATM   23  C   UNL     1     -43.085  55.649 -58.789  1.00  0.00     0.032 A 
ENDBRANCH  11  13
ENDBRANCH   8  11
BRANCH   6  24
HETATM   24  C   UNL     1     -44.634  57.942 -52.529  1.00  0.00     0.029 A 
HETATM   25  C   UNL     1     -45.060  59.037 -53.281  1.00  0.00     0.131 A 
HETATM   26  N   UNL     1     -45.773  60.090 -52.801  1.00  0.00    -0.272 NA
HETATM   27  C   UNL     1     -46.084  60.060 -51.490  1.00  0.00     0.116 A 
HETATM   28  C   UNL     1     -45.718  59.031 -50.641  1.00  0.00     0.020 A 
HETATM   29  C   UNL     1     -44.989  57.966 -51.169  1.00  0.00     0.018 A 
ENDBRANCH   6  24
TORSDOF 3
ENDMDL
MODEL 6
REMARK VINA RESULT:      -8.4      3.202      6.029
REMARK  3 active torsions:
REMARK  status: ('A' for Active; 'I' for Inactive)
REMARK    1  A    between atoms: C_6  and  C_7 
REMARK    2  A    between atoms: C_14  and  N_15 
REMARK    3  A    between atoms: N_15  and  C_16 
ROOT
HETATM    1  C   UNL     1     -44.376  57.648 -56.809  1.00  0.00     0.001 A 
HETATM    2  C   UNL     1     -44.390  57.369 -55.445  1.00  0.00     0.018 A 
HETATM    3  C   UNL     1     -43.587  56.329 -54.906  1.00  0.00     0.039 A 
HETATM    4  C   UNL     1     -42.761  55.586 -55.759  1.00  0.00     0.073 A 
HETATM    5  N   UNL     1     -41.967  54.604 -55.323  1.00  0.00    -0.228 NA
HETATM    6  C   UNL     1     -41.972  54.339 -54.007  1.00  0.00     0.164 A 
HETATM    7  N   UNL     1     -42.721  54.991 -53.106  1.00  0.00    -0.210 NA
HETATM    8  C   UNL     1     -43.526  55.973 -53.548  1.00  0.00     0.143 A 
HETATM    9  C   UNL     1     -42.766  55.883 -57.116  1.00  0.00     0.032 A 
HETATM   10  C   UNL     1     -43.563  56.900 -57.648  1.00  0.00     0.002 A 
ENDROOT
BRANCH   8  11
HETATM   11  N   UNL     1     -44.355  56.654 -52.617  1.00  0.00    -0.340 N 
HETATM   12  H   UNL     1     -44.831  55.969 -52.040  1.00  0.00     0.167 HD
BRANCH  11  13
HETATM   13  C   UNL     1     -44.058  57.834 -51.899  1.00  0.00     0.036 A 
HETATM   14  C   UNL     1     -45.096  58.530 -51.261  1.00  0.00     0.069 A 
HETATM   15  C   UNL     1     -44.855  59.745 -50.611  1.00  0.00     0.104 A 
HETATM   16  C   UNL     1     -43.567  60.282 -50.587  1.00  0.00     0.102 A 
HETATM   17  O   UNL     1     -45.912  60.298 -49.938  1.00  0.00    -0.348 OA
HETATM   18  O   UNL     1     -43.234  61.408 -49.890  1.00  0.00    -0.348 OA
HETATM   19  C   UNL     1     -42.528  59.605 -51.219  1.00  0.00     0.042 A 
HETATM   20  C   UNL     1     -43.916  62.565 -50.376  1.00  0.00     0.178 C 
HETATM   21  C   UNL     1     -45.324  62.671 -49.815  1.00  0.00     0.053 C 
HETATM   22  C   UNL     1     -46.232  61.606 -50.412  1.00  0.00     0.178 C 
HETATM   23  C   UNL     1     -42.778  58.406 -51.891  1.00  0.00     0.032 A 
ENDBRANCH  11  13
ENDBRANCH   8  11
BRANCH   6  24
HETATM   24  C   UNL     1     -41.112  53.254 -53.517  1.00  0.00     0.029 A 
HETATM   25  C   UNL     1     -40.657  53.211 -52.199  1.00  0.00     0.131 A 
HETATM   26  N   UNL     1     -39.859  52.243 -51.675  1.00  0.00    -0.272 NA
HETATM   27  C   UNL     1     -39.484  51.253 -52.510  1.00  0.00     0.116 A 
HETATM   28  C   UNL     1     -39.869  51.186 -53.837  1.00  0.00     0.020 A 
HETATM   29  C   UNL     1     -40.689  52.195 -54.339  1.00  0.00     0.018 A 
ENDBRANCH   6  24
TORSDOF 3
ENDMDL
MODEL 7
REMARK VINA RESULT:      -8.4      3.122      7.015
REMARK  3 active torsions:
REMARK  status: ('A' for Active; 'I' for Inactive)
REMARK    1  A    between atoms: C_6  and  C_7 
REMARK    2  A    between atoms: C_14  and  N_15 
REMARK    3  A    between atoms: N_15  and  C_16 
ROOT
HETATM    1  C   UNL     1     -40.550  52.701 -52.185  1.00  0.00     0.001 A 
HETATM    2  C   UNL     1     -41.542  53.678 -52.158  1.00  0.00     0.018 A 
HETATM    3  C   UNL     1     -41.932  54.352 -53.345  1.00  0.00     0.039 A 
HETATM    4  C   UNL     1     -41.320  54.017 -54.560  1.00  0.00     0.073 A 
HETATM    5  N   UNL     1     -41.645  54.596 -55.719  1.00  0.00    -0.228 NA
HETATM    6  C   UNL     1     -42.606  55.532 -55.698  1.00  0.00     0.164 A 
HETATM    7  N   UNL     1     -43.256  55.924 -54.592  1.00  0.00    -0.210 NA
HETATM    8  C   UNL     1     -42.921  55.347 -53.426  1.00  0.00     0.143 A 
HETATM    9  C   UNL     1     -40.333  53.039 -54.560  1.00  0.00     0.032 A 
HETATM   10  C   UNL     1     -39.941  52.382 -53.390  1.00  0.00     0.002 A 
ENDROOT
BRANCH   8  11
HETATM   11  N   UNL     1     -43.572  55.772 -52.236  1.00  0.00    -0.340 N 
HETATM   12  H   UNL     1     -43.381  55.100 -51.501  1.00  0.00     0.167 HD
BRANCH  11  13
HETATM   13  C   UNL     1     -43.679  57.089 -51.734  1.00  0.00     0.036 A 
HETATM   14  C   UNL     1     -44.949  57.662 -51.571  1.00  0.00     0.069 A 
HETATM   15  C   UNL     1     -45.092  58.990 -51.157  1.00  0.00     0.104 A 
HETATM   16  C   UNL     1     -43.963  59.765 -50.894  1.00  0.00     0.102 A 
HETATM   17  O   UNL     1     -46.371  59.425 -50.935  1.00  0.00    -0.348 OA
HETATM   18  O   UNL     1     -44.022  61.034 -50.390  1.00  0.00    -0.348 OA
HETATM   19  C   UNL     1     -42.696  59.213 -51.055  1.00  0.00     0.042 A 
HETATM   20  C   UNL     1     -44.675  61.939 -51.281  1.00  0.00     0.178 C 
HETATM   21  C   UNL     1     -46.188  61.855 -51.166  1.00  0.00     0.053 C 
HETATM   22  C   UNL     1     -46.709  60.550 -51.747  1.00  0.00     0.178 C 
HETATM   23  C   UNL     1     -42.557  57.895 -51.498  1.00  0.00     0.032 A 
ENDBRANCH  11  13
ENDBRANCH   8  11
BRANCH   6  24
HETATM   24  C   UNL     1     -42.965  56.184 -56.963  1.00  0.00     0.029 A 
HETATM   25  C   UNL     1     -43.024  57.572 -57.088  1.00  0.00     0.131 A 
HETATM   26  N   UNL     1     -43.350  58.245 -58.224  1.00  0.00    -0.272 NA
HETATM   27  C   UNL     1     -43.639  57.496 -59.307  1.00  0.00     0.116 A 
HETATM   28  C   UNL     1     -43.616  56.113 -59.308  1.00  0.00     0.020 A 
HETATM   29  C   UNL     1     -43.275  55.457 -58.126  1.00  0.00     0.018 A 
ENDBRANCH   6  24
TORSDOF 3
ENDMDL
MODEL 8
REMARK VINA RESULT:      -8.3      3.528      7.385
REMARK  3 active torsions:
REMARK  status: ('A' for Active; 'I' for Inactive)
REMARK    1  A    between atoms: C_6  and  C_7 
REMARK    2  A    between atoms: C_14  and  N_15 
REMARK    3  A    between atoms: N_15  and  C_16 
ROOT
HETATM    1  C   UNL     1     -43.406  59.856 -52.474  1.00  0.00     0.001 A 
HETATM    2  C   UNL     1     -42.629  58.841 -53.025  1.00  0.00     0.018 A 
HETATM    3  C   UNL     1     -42.933  58.304 -54.304  1.00  0.00     0.039 A 
HETATM    4  C   UNL     1     -44.021  58.814 -55.023  1.00  0.00     0.073 A 
HETATM    5  N   UNL     1     -44.358  58.371 -56.238  1.00  0.00    -0.228 NA
HETATM    6  C   UNL     1     -43.606  57.398 -56.776  1.00  0.00     0.164 A 
HETATM    7  N   UNL     1     -42.544  56.843 -56.174  1.00  0.00    -0.210 NA
HETATM    8  C   UNL     1     -42.211  57.285 -54.948  1.00  0.00     0.143 A 
HETATM    9  C   UNL     1     -44.781  59.827 -54.452  1.00  0.00     0.032 A 
HETATM   10  C   UNL     1     -44.488  60.349 -53.189  1.00  0.00     0.002 A 
ENDROOT
BRANCH   8  11
HETATM   11  N   UNL     1     -41.111  56.686 -54.277  1.00  0.00    -0.340 N 
HETATM   12  H   UNL     1     -40.841  57.278 -53.500  1.00  0.00     0.167 HD
BRANCH  11  13
HETATM   13  C   UNL     1     -40.916  55.316 -53.991  1.00  0.00     0.036 A 
HETATM   14  C   UNL     1     -41.244  54.826 -52.717  1.00  0.00     0.069 A 
HETATM   15  C   UNL     1     -40.989  53.496 -52.370  1.00  0.00     0.104 A 
HETATM   16  C   UNL     1     -40.403  52.632 -53.296  1.00  0.00     0.102 A 
HETATM   17  O   UNL     1     -41.432  53.090 -51.140  1.00  0.00    -0.348 OA
HETATM   18  O   UNL     1     -40.215  51.298 -53.067  1.00  0.00    -0.348 OA
HETATM   19  C   UNL     1     -40.068  53.103 -54.562  1.00  0.00     0.042 A 
HETATM   20  C   UNL     1     -39.316  51.058 -51.983  1.00  0.00     0.178 C 
HETATM   21  C   UNL     1     -40.012  51.161 -50.636  1.00  0.00     0.053 C 
HETATM   22  C   UNL     1     -40.373  52.603 -50.315  1.00  0.00     0.178 C 
HETATM   23  C   UNL     1     -40.298  54.441 -54.895  1.00  0.00     0.032 A 
ENDBRANCH  11  13
ENDBRANCH   8  11
BRANCH   6  24
HETATM   24  C   UNL     1     -43.973  56.894 -58.105  1.00  0.00     0.029 A 
HETATM   25  C   UNL     1     -44.945  57.518 -58.888  1.00  0.00     0.131 A 
HETATM   26  N   UNL     1     -45.338  57.109 -60.124  1.00  0.00    -0.272 NA
HETATM   27  C   UNL     1     -44.732  56.010 -60.617  1.00  0.00     0.116 A 
HETATM   28  C   UNL     1     -43.756  55.306 -59.936  1.00  0.00     0.020 A 
HETATM   29  C   UNL     1     -43.376  55.756 -58.672  1.00  0.00     0.018 A 
ENDBRANCH   6  24
TORSDOF 3
ENDMDL
MODEL 9
REMARK VINA RESULT:      -8.2      1.736      4.515
REMARK  3 active torsions:
REMARK  status: ('A' for Active; 'I' for Inactive)
REMARK    1  A    between atoms: C_6  and  C_7 
REMARK    2  A    between atoms: C_14  and  N_15 
REMARK    3  A    between atoms: N_15  and  C_16 
ROOT
HETATM    1  C   UNL     1     -40.741  51.681 -54.235  1.00  0.00     0.001 A 
HETATM    2  C   UNL     1     -41.505  52.727 -54.746  1.00  0.00     0.018 A 
HETATM    3  C   UNL     1     -41.555  53.982 -54.085  1.00  0.00     0.039 A 
HETATM    4  C   UNL     1     -40.815  54.172 -52.911  1.00  0.00     0.073 A 
HETATM    5  N   UNL     1     -40.800  55.329 -52.243  1.00  0.00    -0.228 NA
HETATM    6  C   UNL     1     -41.528  56.342 -52.738  1.00  0.00     0.164 A 
HETATM    7  N   UNL     1     -42.269  56.266 -53.854  1.00  0.00    -0.210 NA
HETATM    8  C   UNL     1     -42.289  55.099 -54.519  1.00  0.00     0.143 A 
HETATM    9  C   UNL     1     -40.061  53.113 -52.421  1.00  0.00     0.032 A 
HETATM   10  C   UNL     1     -40.018  51.874 -53.066  1.00  0.00     0.002 A 
ENDROOT
BRANCH   8  11
HETATM   11  N   UNL     1     -43.095  54.985 -55.684  1.00  0.00    -0.340 N 
HETATM   12  H   UNL     1     -44.067  54.911 -55.404  1.00  0.00     0.167 HD
BRANCH  11  13
HETATM   13  C   UNL     1     -42.949  55.680 -56.906  1.00  0.00     0.036 A 
HETATM   14  C   UNL     1     -42.486  57.005 -56.893  1.00  0.00     0.069 A 
HETATM   15  C   UNL     1     -42.407  57.752 -58.072  1.00  0.00     0.104 A 
HETATM   16  C   UNL     1     -42.788  57.182 -59.287  1.00  0.00     0.102 A 
HETATM   17  O   UNL     1     -41.852  58.999 -57.969  1.00  0.00    -0.348 OA
HETATM   18  O   UNL     1     -42.644  57.811 -60.492  1.00  0.00    -0.348 OA
HETATM   19  C   UNL     1     -43.253  55.870 -59.317  1.00  0.00     0.042 A 
HETATM   20  C   UNL     1     -43.436  58.996 -60.579  1.00  0.00     0.178 C 
HETATM   21  C   UNL     1     -42.756  60.181 -59.913  1.00  0.00     0.053 C 
HETATM   22  C   UNL     1     -42.745  60.027 -58.400  1.00  0.00     0.178 C 
HETATM   23  C   UNL     1     -43.358  55.137 -58.132  1.00  0.00     0.032 A 
ENDBRANCH  11  13
ENDBRANCH   8  11
BRANCH   6  24
HETATM   24  C   UNL     1     -41.530  57.615 -52.007  1.00  0.00     0.029 A 
HETATM   25  C   UNL     1     -41.986  58.799 -52.587  1.00  0.00     0.131 A 
HETATM   26  N   UNL     1     -42.016  60.012 -51.975  1.00  0.00    -0.272 NA
HETATM   27  C   UNL     1     -41.562  60.060 -50.707  1.00  0.00     0.116 A 
HETATM   28  C   UNL     1     -41.083  58.955 -50.025  1.00  0.00     0.020 A 
HETATM   29  C   UNL     1     -41.070  57.727 -50.684  1.00  0.00     0.018 A 
ENDBRANCH   6  24
TORSDOF 3
ENDMDL
MODEL 10
REMARK VINA RESULT:      -7.7      1.961      2.279
REMARK  3 active torsions:
REMARK  status: ('A' for Active; 'I' for Inactive)
REMARK    1  A    between atoms: C_6  and  C_7 
REMARK    2  A    between atoms: C_14  and  N_15 
REMARK    3  A    between atoms: N_15  and  C_16 
ROOT
HETATM    1  C   UNL     1     -42.519  59.060 -51.374  1.00  0.00     0.001 A 
HETATM    2  C   UNL     1     -43.002  58.230 -52.383  1.00  0.00     0.018 A 
HETATM    3  C   UNL     1     -42.456  56.934 -52.583  1.00  0.00     0.039 A 
HETATM    4  C   UNL     1     -41.430  56.482 -51.744  1.00  0.00     0.073 A 
HETATM    5  N   UNL     1     -40.880  55.270 -51.860  1.00  0.00    -0.228 NA
HETATM    6  C   UNL     1     -41.348  54.465 -52.826  1.00  0.00     0.164 A 
HETATM    7  N   UNL     1     -42.328  54.798 -53.679  1.00  0.00    -0.210 NA
HETATM    8  C   UNL     1     -42.875  56.021 -53.566  1.00  0.00     0.143 A 
HETATM    9  C   UNL     1     -40.966  57.329 -50.745  1.00  0.00     0.032 A 
HETATM   10  C   UNL     1     -41.495  58.608 -50.553  1.00  0.00     0.002 A 
ENDROOT
BRANCH   8  11
HETATM   11  N   UNL     1     -43.889  56.408 -54.482  1.00  0.00    -0.340 N 
HETATM   12  H   UNL     1     -44.679  56.773 -53.961  1.00  0.00     0.167 HD
BRANCH  11  13
HETATM   13  C   UNL     1     -43.727  57.065 -55.723  1.00  0.00     0.036 A 
HETATM   14  C   UNL     1     -44.734  57.928 -56.181  1.00  0.00     0.069 A 
HETATM   15  C   UNL     1     -44.647  58.530 -57.441  1.00  0.00     0.104 A 
HETATM   16  C   UNL     1     -43.547  58.280 -58.261  1.00  0.00     0.102 A 
HETATM   17  O   UNL     1     -45.631  59.429 -57.756  1.00  0.00    -0.348 OA
HETATM   18  O   UNL     1     -43.342  58.908 -59.458  1.00  0.00    -0.348 OA
HETATM   19  C   UNL     1     -42.541  57.423 -57.822  1.00  0.00     0.042 A 
HETATM   20  C   UNL     1     -44.364  58.604 -60.408  1.00  0.00     0.178 C 
HETATM   21  C   UNL     1     -45.601  59.462 -60.204  1.00  0.00     0.053 C 
HETATM   22  C   UNL     1     -46.343  59.061 -58.938  1.00  0.00     0.178 C 
HETATM   23  C   UNL     1     -42.646  56.801 -56.575  1.00  0.00     0.032 A 
ENDBRANCH  11  13
ENDBRANCH   8  11
BRANCH   6  24
HETATM   24  C   UNL     1     -40.744  53.136 -52.972  1.00  0.00     0.029 A 
HETATM   25  C   UNL     1     -40.816  52.419 -54.167  1.00  0.00     0.131 A 
HETATM   26  N   UNL     1     -40.283  51.186 -54.376  1.00  0.00    -0.272 NA
HETATM   27  C   UNL     1     -39.640  50.622 -53.334  1.00  0.00     0.116 A 
HETATM   28  C   UNL     1     -39.503  51.232 -52.100  1.00  0.00     0.020 A 
HETATM   29  C   UNL     1     -40.059  52.498 -51.924  1.00  0.00     0.018 A 
ENDBRANCH   6  24
TORSDOF 3
ENDMDL
