MODEL 1
REMARK VINA RESULT:      -8.8      0.000      0.000
REMARK  8 active torsions:
REMARK  status: ('A' for Active; 'I' for Inactive)
REMARK    1  A    between atoms: C_8  and  C_9 
REMARK    2  A    between atoms: N_10  and  C_11 
REMARK    3  A    between atoms: C_11  and  C_12 
REMARK    4  A    between atoms: C_17  and  S_18 
REMARK    5  A    between atoms: S_18  and  C_19 
REMARK    6  A    between atoms: C_19  and  C_20 
REMARK       I    between atoms: C_20  and  N_21 
REMARK    7  A    between atoms: N_21  and  C_22 
REMARK    8  A    between atoms: C_30  and  O_31 
ROOT
HETATM    1  C   UNL     1     -42.600  56.825 -54.093  1.00  0.00     0.167 A 
HETATM    2  N   UNL     1     -42.164  58.128 -53.906  1.00  0.00    -0.301 N 
HETATM    3  C   UNL     1     -43.262  58.914 -54.157  1.00  0.00     0.192 A 
HETATM    4  N   UNL     1     -44.287  58.168 -54.480  1.00  0.00    -0.122 NA
HETATM    5  N   UNL     1     -43.882  56.872 -54.430  1.00  0.00    -0.128 NA
ENDROOT
BRANCH   1   6
HETATM    6  C   UNL     1     -41.896  55.547 -53.891  1.00  0.00     0.046 A 
HETATM    7  C   UNL     1     -41.622  55.010 -52.626  1.00  0.00     0.030 A 
HETATM    8  C   UNL     1     -40.924  53.794 -52.471  1.00  0.00    -0.025 A 
HETATM    9  C   UNL     1     -40.665  53.254 -51.200  1.00  0.00     0.012 A 
HETATM   10  C   UNL     1     -40.464  53.103 -53.613  1.00  0.00    -0.023 A 
HETATM   11  C   UNL     1     -39.958  52.057 -51.062  1.00  0.00     0.001 A 
HETATM   12  C   UNL     1     -39.499  51.384 -52.190  1.00  0.00     0.001 A 
HETATM   13  C   UNL     1     -39.751  51.903 -53.459  1.00  0.00     0.012 A 
HETATM   14  C   UNL     1     -40.717  53.640 -54.880  1.00  0.00     0.049 A 
HETATM   15  C   UNL     1     -41.410  54.842 -55.010  1.00  0.00     0.080 A 
BRANCH  15  16
HETATM   16  O   UNL     1     -41.572  55.288 -56.299  1.00  0.00    -0.360 OA
HETATM   17  H   UNL     1     -42.486  55.075 -56.583  1.00  0.00     0.217 HD
ENDBRANCH  15  16
ENDBRANCH   1   6
BRANCH   2  18
HETATM   18  C   UNL     1     -40.832  58.602 -53.579  1.00  0.00     0.198 C 
BRANCH  18  19
HETATM   19  C   UNL     1     -40.655  58.894 -52.139  1.00  0.00     0.070 A 
HETATM   20  O   UNL     1     -39.442  59.416 -51.791  1.00  0.00    -0.325 OA
HETATM   21  C   UNL     1     -39.475  59.647 -50.455  1.00  0.00     0.142 A 
HETATM   22  C   UNL     1     -40.695  59.284 -49.935  1.00  0.00     0.027 A 
HETATM   23  C   UNL     1     -41.461  58.800 -51.023  1.00  0.00     0.036 A 
ENDBRANCH  18  19
ENDBRANCH   2  18
BRANCH   3  24
HETATM   24  S   UNL     1     -43.312  60.639 -54.061  1.00  0.00    -0.081 SA
BRANCH  24  25
HETATM   25  C   UNL     1     -43.459  61.069 -55.820  1.00  0.00     0.185 C 
BRANCH  25  26
HETATM   26  C   UNL     1     -42.611  60.194 -56.730  1.00  0.00     0.227 C 
HETATM   27  N   UNL     1     -43.291  59.219 -57.422  1.00  0.00    -0.356 N 
HETATM   28  H   UNL     1     -44.298  59.143 -57.280  1.00  0.00     0.162 HD
HETATM   29  O   UNL     1     -41.387  60.307 -56.763  1.00  0.00    -0.273 OA
BRANCH  27  30
HETATM   30  C   UNL     1     -42.626  58.158 -58.141  1.00  0.00     0.084 C 
HETATM   31  C   UNL     1     -43.556  56.983 -58.423  1.00  0.00     0.025 C 
HETATM   32  C   UNL     1     -42.832  56.192 -59.503  1.00  0.00     0.002 C 
HETATM   33  C   UNL     1     -41.968  57.206 -60.254  1.00  0.00     0.002 C 
HETATM   34  C   UNL     1     -42.161  58.543 -59.544  1.00  0.00     0.025 C 
ENDBRANCH  27  30
ENDBRANCH  25  26
ENDBRANCH  24  25
ENDBRANCH   3  24
TORSDOF 8
ENDMDL
MODEL 2
REMARK VINA RESULT:      -8.8      2.132      4.086
REMARK  8 active torsions:
REMARK  status: ('A' for Active; 'I' for Inactive)
REMARK    1  A    between atoms: C_8  and  C_9 
REMARK    2  A    between atoms: N_10  and  C_11 
REMARK    3  A    between atoms: C_11  and  C_12 
REMARK    4  A    between atoms: C_17  and  S_18 
REMARK    5  A    between atoms: S_18  and  C_19 
REMARK    6  A    between atoms: C_19  and  C_20 
REMARK       I    between atoms: C_20  and  N_21 
REMARK    7  A    between atoms: N_21  and  C_22 
REMARK    8  A    between atoms: C_30  and  O_31 
ROOT
HETATM    1  C   UNL     1     -41.361  55.805 -51.188  1.00  0.00     0.167 A 
HETATM    2  N   UNL     1     -42.475  56.442 -51.716  1.00  0.00    -0.301 N 
HETATM    3  C   UNL     1     -42.362  57.752 -51.321  1.00  0.00     0.192 A 
HETATM    4  N   UNL     1     -41.281  57.915 -50.603  1.00  0.00    -0.122 NA
HETATM    5  N   UNL     1     -40.652  56.712 -50.529  1.00  0.00    -0.128 NA
ENDROOT
BRANCH   1   6
HETATM    6  C   UNL     1     -40.895  54.417 -51.342  1.00  0.00     0.046 A 
HETATM    7  C   UNL     1     -40.670  53.813 -52.587  1.00  0.00     0.030 A 
HETATM    8  C   UNL     1     -40.246  52.472 -52.696  1.00  0.00    -0.025 A 
HETATM    9  C   UNL     1     -40.009  51.877 -53.947  1.00  0.00     0.012 A 
HETATM   10  C   UNL     1     -40.063  51.702 -51.527  1.00  0.00    -0.023 A 
HETATM   11  C   UNL     1     -39.605  50.544 -54.039  1.00  0.00     0.001 A 
HETATM   12  C   UNL     1     -39.433  49.785 -52.885  1.00  0.00     0.001 A 
HETATM   13  C   UNL     1     -39.660  50.361 -51.635  1.00  0.00     0.012 A 
HETATM   14  C   UNL     1     -40.301  52.289 -50.280  1.00  0.00     0.049 A 
HETATM   15  C   UNL     1     -40.718  53.616 -50.196  1.00  0.00     0.080 A 
BRANCH  15  16
HETATM   16  O   UNL     1     -40.952  54.077 -48.923  1.00  0.00    -0.360 OA
HETATM   17  H   UNL     1     -41.830  54.511 -48.912  1.00  0.00     0.217 HD
ENDBRANCH  15  16
ENDBRANCH   1   6
BRANCH   2  18
HETATM   18  C   UNL     1     -43.573  55.870 -52.474  1.00  0.00     0.198 C 
BRANCH  18  19
HETATM   19  C   UNL     1     -43.208  55.541 -53.870  1.00  0.00     0.070 A 
HETATM   20  O   UNL     1     -42.287  56.368 -54.446  1.00  0.00    -0.325 OA
HETATM   21  C   UNL     1     -42.056  55.899 -55.698  1.00  0.00     0.142 A 
HETATM   22  C   UNL     1     -42.813  54.776 -55.936  1.00  0.00     0.027 A 
HETATM   23  C   UNL     1     -43.557  54.541 -54.755  1.00  0.00     0.036 A 
ENDBRANCH  18  19
ENDBRANCH   2  18
BRANCH   3  24
HETATM   24  S   UNL     1     -43.468  59.022 -51.706  1.00  0.00    -0.081 SA
BRANCH  24  25
HETATM   25  C   UNL     1     -42.328  60.273 -52.364  1.00  0.00     0.185 C 
BRANCH  25  26
HETATM   26  C   UNL     1     -41.736  59.902 -53.714  1.00  0.00     0.227 C 
HETATM   27  N   UNL     1     -42.550  60.120 -54.801  1.00  0.00    -0.356 N 
HETATM   28  H   UNL     1     -43.480  60.505 -54.636  1.00  0.00     0.162 HD
HETATM   29  O   UNL     1     -40.636  59.360 -53.801  1.00  0.00    -0.273 OA
BRANCH  27  30
HETATM   30  C   UNL     1     -42.250  59.614 -56.121  1.00  0.00     0.084 C 
HETATM   31  C   UNL     1     -43.472  58.998 -56.792  1.00  0.00     0.025 C 
HETATM   32  C   UNL     1     -43.080  58.912 -58.261  1.00  0.00     0.002 C 
HETATM   33  C   UNL     1     -42.061  60.029 -58.487  1.00  0.00     0.002 C 
HETATM   34  C   UNL     1     -41.836  60.686 -57.127  1.00  0.00     0.025 C 
ENDBRANCH  27  30
ENDBRANCH  25  26
ENDBRANCH  24  25
ENDBRANCH   3  24
TORSDOF 8
ENDMDL
MODEL 3
REMARK VINA RESULT:      -8.7      3.624      6.953
REMARK  8 active torsions:
REMARK  status: ('A' for Active; 'I' for Inactive)
REMARK    1  A    between atoms: C_8  and  C_9 
REMARK    2  A    between atoms: N_10  and  C_11 
REMARK    3  A    between atoms: C_11  and  C_12 
REMARK    4  A    between atoms: C_17  and  S_18 
REMARK    5  A    between atoms: S_18  and  C_19 
REMARK    6  A    between atoms: C_19  and  C_20 
REMARK       I    between atoms: C_20  and  N_21 
REMARK    7  A    between atoms: N_21  and  C_22 
REMARK    8  A    between atoms: C_30  and  O_31 
ROOT
HETATM    1  C   UNL     1     -41.474  55.998 -51.140  1.00  0.00     0.167 A 
HETATM    2  N   UNL     1     -42.556  56.594 -51.771  1.00  0.00    -0.301 N 
HETATM    3  C   UNL     1     -42.469  57.927 -51.454  1.00  0.00     0.192 A 
HETATM    4  N   UNL     1     -41.432  58.142 -50.686  1.00  0.00    -0.122 NA
HETATM    5  N   UNL     1     -40.806  56.949 -50.499  1.00  0.00    -0.128 NA
ENDROOT
BRANCH   1   6
HETATM    6  C   UNL     1     -40.997  54.606 -51.179  1.00  0.00     0.046 A 
HETATM    7  C   UNL     1     -40.684  53.931 -52.367  1.00  0.00     0.030 A 
HETATM    8  C   UNL     1     -40.253  52.588 -52.366  1.00  0.00    -0.025 A 
HETATM    9  C   UNL     1     -39.927  51.922 -53.560  1.00  0.00     0.012 A 
HETATM   10  C   UNL     1     -40.151  51.889 -51.145  1.00  0.00    -0.023 A 
HETATM   11  C   UNL     1     -39.517  50.587 -53.545  1.00  0.00     0.001 A 
HETATM   12  C   UNL     1     -39.426  49.899 -52.339  1.00  0.00     0.001 A 
HETATM   13  C   UNL     1     -39.740  50.546 -51.144  1.00  0.00     0.012 A 
HETATM   14  C   UNL     1     -40.477  52.547 -49.954  1.00  0.00     0.049 A 
HETATM   15  C   UNL     1     -40.899  53.875 -49.978  1.00  0.00     0.080 A 
BRANCH  15  16
HETATM   16  O   UNL     1     -41.222  54.409 -48.754  1.00  0.00    -0.360 OA
HETATM   17  H   UNL     1     -40.390  54.569 -48.262  1.00  0.00     0.217 HD
ENDBRANCH  15  16
ENDBRANCH   1   6
BRANCH   2  18
HETATM   18  C   UNL     1     -43.607  55.969 -52.553  1.00  0.00     0.198 C 
BRANCH  18  19
HETATM   19  C   UNL     1     -43.186  55.634 -53.932  1.00  0.00     0.070 A 
HETATM   20  O   UNL     1     -42.406  56.568 -54.551  1.00  0.00    -0.325 OA
HETATM   21  C   UNL     1     -42.095  56.080 -55.778  1.00  0.00     0.142 A 
HETATM   22  C   UNL     1     -42.660  54.839 -55.958  1.00  0.00     0.027 A 
HETATM   23  C   UNL     1     -43.363  54.547 -54.764  1.00  0.00     0.036 A 
ENDBRANCH  18  19
ENDBRANCH   2  18
BRANCH   3  24
HETATM   24  S   UNL     1     -43.554  59.164 -51.982  1.00  0.00    -0.081 SA
BRANCH  24  25
HETATM   25  C   UNL     1     -44.979  58.845 -50.901  1.00  0.00     0.185 C 
BRANCH  25  26
HETATM   26  C   UNL     1     -45.488  60.087 -50.188  1.00  0.00     0.227 C 
HETATM   27  N   UNL     1     -44.868  60.386 -48.997  1.00  0.00    -0.356 N 
HETATM   28  H   UNL     1     -44.125  59.767 -48.673  1.00  0.00     0.162 HD
HETATM   29  O   UNL     1     -46.452  60.718 -50.617  1.00  0.00    -0.273 OA
BRANCH  27  30
HETATM   30  C   UNL     1     -45.371  61.380 -48.078  1.00  0.00     0.084 C 
HETATM   31  C   UNL     1     -45.044  61.039 -46.628  1.00  0.00     0.025 C 
HETATM   32  C   UNL     1     -45.271  62.348 -45.884  1.00  0.00     0.002 C 
HETATM   33  C   UNL     1     -45.029  63.458 -46.907  1.00  0.00     0.002 C 
HETATM   34  C   UNL     1     -44.738  62.761 -48.234  1.00  0.00     0.025 C 
ENDBRANCH  27  30
ENDBRANCH  25  26
ENDBRANCH  24  25
ENDBRANCH   3  24
TORSDOF 8
ENDMDL
MODEL 4
REMARK VINA RESULT:      -8.7      1.366      2.120
REMARK  8 active torsions:
REMARK  status: ('A' for Active; 'I' for Inactive)
REMARK    1  A    between atoms: C_8  and  C_9 
REMARK    2  A    between atoms: N_10  and  C_11 
REMARK    3  A    between atoms: C_11  and  C_12 
REMARK    4  A    between atoms: C_17  and  S_18 
REMARK    5  A    between atoms: S_18  and  C_19 
REMARK    6  A    between atoms: C_19  and  C_20 
REMARK       I    between atoms: C_20  and  N_21 
REMARK    7  A    between atoms: N_21  and  C_22 
REMARK    8  A    between atoms: C_30  and  O_31 
ROOT
HETATM    1  C   UNL     1     -42.549  57.181 -52.803  1.00  0.00     0.167 A 
HETATM    2  N   UNL     1     -42.036  58.440 -53.080  1.00  0.00    -0.301 N 
HETATM    3  C   UNL     1     -43.134  59.253 -53.222  1.00  0.00     0.192 A 
HETATM    4  N   UNL     1     -44.232  58.561 -53.058  1.00  0.00    -0.122 NA
HETATM    5  N   UNL     1     -43.872  57.279 -52.786  1.00  0.00    -0.128 NA
ENDROOT
BRANCH   1   6
HETATM    6  C   UNL     1     -41.859  55.923 -52.475  1.00  0.00     0.046 A 
HETATM    7  C   UNL     1     -41.417  55.011 -53.443  1.00  0.00     0.030 A 
HETATM    8  C   UNL     1     -40.780  53.803 -53.089  1.00  0.00    -0.025 A 
HETATM    9  C   UNL     1     -40.327  52.899 -54.065  1.00  0.00     0.012 A 
HETATM   10  C   UNL     1     -40.598  53.484 -51.726  1.00  0.00    -0.023 A 
HETATM   11  C   UNL     1     -39.713  51.699 -53.699  1.00  0.00     0.001 A 
HETATM   12  C   UNL     1     -39.543  51.385 -52.354  1.00  0.00     0.001 A 
HETATM   13  C   UNL     1     -39.983  52.272 -51.372  1.00  0.00     0.012 A 
HETATM   14  C   UNL     1     -41.051  54.379 -50.751  1.00  0.00     0.049 A 
HETATM   15  C   UNL     1     -41.676  55.568 -51.124  1.00  0.00     0.080 A 
BRANCH  15  16
HETATM   16  O   UNL     1     -42.106  56.354 -50.082  1.00  0.00    -0.360 OA
HETATM   17  H   UNL     1     -42.149  57.281 -50.397  1.00  0.00     0.217 HD
ENDBRANCH  15  16
ENDBRANCH   1   6
BRANCH   2  18
HETATM   18  C   UNL     1     -40.651  58.838 -53.252  1.00  0.00     0.198 C 
BRANCH  18  19
HETATM   19  C   UNL     1     -39.966  59.133 -51.973  1.00  0.00     0.070 A 
HETATM   20  O   UNL     1     -38.606  59.221 -52.043  1.00  0.00    -0.325 OA
HETATM   21  C   UNL     1     -38.160  59.524 -50.798  1.00  0.00     0.142 A 
HETATM   22  C   UNL     1     -39.216  59.638 -49.925  1.00  0.00     0.027 A 
HETATM   23  C   UNL     1     -40.386  59.388 -50.684  1.00  0.00     0.036 A 
ENDBRANCH  18  19
ENDBRANCH   2  18
BRANCH   3  24
HETATM   24  S   UNL     1     -43.099  60.947 -53.562  1.00  0.00    -0.081 SA
BRANCH  24  25
HETATM   25  C   UNL     1     -43.636  60.952 -55.298  1.00  0.00     0.185 C 
BRANCH  25  26
HETATM   26  C   UNL     1     -42.908  59.933 -56.159  1.00  0.00     0.227 C 
HETATM   27  N   UNL     1     -43.674  58.888 -56.621  1.00  0.00    -0.356 N 
HETATM   28  H   UNL     1     -44.659  58.861 -56.358  1.00  0.00     0.162 HD
HETATM   29  O   UNL     1     -41.695  60.006 -56.345  1.00  0.00    -0.273 OA
BRANCH  27  30
HETATM   30  C   UNL     1     -43.108  57.716 -57.248  1.00  0.00     0.084 C 
HETATM   31  C   UNL     1     -43.117  56.506 -56.320  1.00  0.00     0.025 C 
HETATM   32  C   UNL     1     -42.886  55.326 -57.254  1.00  0.00     0.002 C 
HETATM   33  C   UNL     1     -43.429  55.759 -58.616  1.00  0.00     0.002 C 
HETATM   34  C   UNL     1     -43.894  57.204 -58.452  1.00  0.00     0.025 C 
ENDBRANCH  27  30
ENDBRANCH  25  26
ENDBRANCH  24  25
ENDBRANCH   3  24
TORSDOF 8
ENDMDL
MODEL 5
REMARK VINA RESULT:      -8.7      4.351      7.235
REMARK  8 active torsions:
REMARK  status: ('A' for Active; 'I' for Inactive)
REMARK    1  A    between atoms: C_8  and  C_9 
REMARK    2  A    between atoms: N_10  and  C_11 
REMARK    3  A    between atoms: C_11  and  C_12 
REMARK    4  A    between atoms: C_17  and  S_18 
REMARK    5  A    between atoms: S_18  and  C_19 
REMARK    6  A    between atoms: C_19  and  C_20 
REMARK       I    between atoms: C_20  and  N_21 
REMARK    7  A    between atoms: N_21  and  C_22 
REMARK    8  A    between atoms: C_30  and  O_31 
ROOT
HETATM    1  C   UNL     1     -43.567  56.873 -51.396  1.00  0.00     0.167 A 
HETATM    2  N   UNL     1     -43.486  58.225 -51.699  1.00  0.00    -0.301 N 
HETATM    3  C   UNL     1     -44.635  58.777 -51.190  1.00  0.00     0.192 A 
HETATM    4  N   UNL     1     -45.371  57.852 -50.630  1.00  0.00    -0.122 NA
HETATM    5  N   UNL     1     -44.706  56.673 -50.746  1.00  0.00    -0.128 NA
ENDROOT
BRANCH   1   6
HETATM    6  C   UNL     1     -42.596  55.788 -51.615  1.00  0.00     0.046 A 
HETATM    7  C   UNL     1     -42.594  54.974 -52.755  1.00  0.00     0.030 A 
HETATM    8  C   UNL     1     -41.663  53.927 -52.918  1.00  0.00    -0.025 A 
HETATM    9  C   UNL     1     -41.657  53.123 -54.071  1.00  0.00     0.012 A 
HETATM   10  C   UNL     1     -40.717  53.670 -51.902  1.00  0.00    -0.023 A 
HETATM   11  C   UNL     1     -40.739  52.080 -54.211  1.00  0.00     0.001 A 
HETATM   12  C   UNL     1     -39.814  51.825 -53.204  1.00  0.00     0.001 A 
HETATM   13  C   UNL     1     -39.802  52.616 -52.054  1.00  0.00     0.012 A 
HETATM   14  C   UNL     1     -40.721  54.466 -50.752  1.00  0.00     0.049 A 
HETATM   15  C   UNL     1     -41.650  55.496 -50.613  1.00  0.00     0.080 A 
BRANCH  15  16
HETATM   16  O   UNL     1     -41.581  56.190 -49.429  1.00  0.00    -0.360 OA
HETATM   17  H   UNL     1     -41.038  55.669 -48.801  1.00  0.00     0.217 HD
ENDBRANCH  15  16
ENDBRANCH   1   6
BRANCH   2  18
HETATM   18  C   UNL     1     -42.457  58.927 -52.443  1.00  0.00     0.198 C 
BRANCH  18  19
HETATM   19  C   UNL     1     -41.227  59.165 -51.654  1.00  0.00     0.070 A 
HETATM   20  O   UNL     1     -40.055  59.028 -52.341  1.00  0.00    -0.325 OA
HETATM   21  C   UNL     1     -39.049  59.312 -51.476  1.00  0.00     0.142 A 
HETATM   22  C   UNL     1     -39.557  59.634 -50.240  1.00  0.00     0.027 A 
HETATM   23  C   UNL     1     -40.965  59.543 -50.354  1.00  0.00     0.036 A 
ENDBRANCH  18  19
ENDBRANCH   2  18
BRANCH   3  24
HETATM   24  S   UNL     1     -45.069  60.448 -51.261  1.00  0.00    -0.081 SA
BRANCH  24  25
HETATM   25  C   UNL     1     -44.276  61.065 -49.747  1.00  0.00     0.185 C 
BRANCH  25  26
HETATM   26  C   UNL     1     -45.232  61.196 -48.573  1.00  0.00     0.227 C 
HETATM   27  N   UNL     1     -45.166  62.382 -47.880  1.00  0.00    -0.356 N 
HETATM   28  H   UNL     1     -44.491  63.082 -48.189  1.00  0.00     0.162 HD
HETATM   29  O   UNL     1     -45.945  60.257 -48.225  1.00  0.00    -0.273 OA
BRANCH  27  30
HETATM   30  C   UNL     1     -45.822  62.588 -46.610  1.00  0.00     0.084 C 
HETATM   31  C   UNL     1     -45.122  63.647 -45.766  1.00  0.00     0.025 C 
HETATM   32  C   UNL     1     -46.152  64.009 -44.704  1.00  0.00     0.002 C 
HETATM   33  C   UNL     1     -47.517  63.729 -45.333  1.00  0.00     0.002 C 
HETATM   34  C   UNL     1     -47.239  63.146 -46.716  1.00  0.00     0.025 C 
ENDBRANCH  27  30
ENDBRANCH  25  26
ENDBRANCH  24  25
ENDBRANCH   3  24
TORSDOF 8
ENDMDL
MODEL 6
REMARK VINA RESULT:      -8.2      3.950      7.187
REMARK  8 active torsions:
REMARK  status: ('A' for Active; 'I' for Inactive)
REMARK    1  A    between atoms: C_8  and  C_9 
REMARK    2  A    between atoms: N_10  and  C_11 
REMARK    3  A    between atoms: C_11  and  C_12 
REMARK    4  A    between atoms: C_17  and  S_18 
REMARK    5  A    between atoms: S_18  and  C_19 
REMARK    6  A    between atoms: C_19  and  C_20 
REMARK       I    between atoms: C_20  and  N_21 
REMARK    7  A    between atoms: N_21  and  C_22 
REMARK    8  A    between atoms: C_30  and  O_31 
ROOT
HETATM    1  C   UNL     1     -43.421  56.224 -51.517  1.00  0.00     0.167 A 
HETATM    2  N   UNL     1     -43.457  57.509 -52.037  1.00  0.00    -0.301 N 
HETATM    3  C   UNL     1     -44.558  58.098 -51.466  1.00  0.00     0.192 A 
HETATM    4  N   UNL     1     -45.160  57.254 -50.669  1.00  0.00    -0.122 NA
HETATM    5  N   UNL     1     -44.450  56.095 -50.689  1.00  0.00    -0.128 NA
ENDROOT
BRANCH   1   6
HETATM    6  C   UNL     1     -42.428  55.152 -51.695  1.00  0.00     0.046 A 
HETATM    7  C   UNL     1     -42.306  54.402 -52.873  1.00  0.00     0.030 A 
HETATM    8  C   UNL     1     -41.358  53.365 -52.998  1.00  0.00    -0.025 A 
HETATM    9  C   UNL     1     -41.231  52.627 -54.187  1.00  0.00     0.012 A 
HETATM   10  C   UNL     1     -40.520  53.050 -51.907  1.00  0.00    -0.023 A 
HETATM   11  C   UNL     1     -40.299  51.593 -54.291  1.00  0.00     0.001 A 
HETATM   12  C   UNL     1     -39.481  51.280 -53.210  1.00  0.00     0.001 A 
HETATM   13  C   UNL     1     -39.590  52.005 -52.023  1.00  0.00     0.012 A 
HETATM   14  C   UNL     1     -40.646  53.780 -50.720  1.00  0.00     0.049 A 
HETATM   15  C   UNL     1     -41.588  54.802 -50.619  1.00  0.00     0.080 A 
BRANCH  15  16
HETATM   16  O   UNL     1     -41.643  55.429 -49.397  1.00  0.00    -0.360 OA
HETATM   17  H   UNL     1     -40.785  55.292 -48.946  1.00  0.00     0.217 HD
ENDBRANCH  15  16
ENDBRANCH   1   6
BRANCH   2  18
HETATM   18  C   UNL     1     -42.578  58.115 -53.020  1.00  0.00     0.198 C 
BRANCH  18  19
HETATM   19  C   UNL     1     -42.958  57.800 -54.416  1.00  0.00     0.070 A 
HETATM   20  O   UNL     1     -42.055  58.173 -55.368  1.00  0.00    -0.325 OA
HETATM   21  C   UNL     1     -42.553  57.779 -56.567  1.00  0.00     0.142 A 
HETATM   22  C   UNL     1     -43.764  57.152 -56.401  1.00  0.00     0.027 A 
HETATM   23  C   UNL     1     -44.027  57.161 -55.009  1.00  0.00     0.036 A 
ENDBRANCH  18  19
ENDBRANCH   2  18
BRANCH   3  24
HETATM   24  S   UNL     1     -45.091  59.719 -51.738  1.00  0.00    -0.081 SA
BRANCH  24  25
HETATM   25  C   UNL     1     -44.187  60.595 -50.429  1.00  0.00     0.185 C 
BRANCH  25  26
HETATM   26  C   UNL     1     -45.076  61.056 -49.285  1.00  0.00     0.227 C 
HETATM   27  N   UNL     1     -44.728  62.256 -48.708  1.00  0.00    -0.356 N 
HETATM   28  H   UNL     1     -43.912  62.747 -49.073  1.00  0.00     0.162 HD
HETATM   29  O   UNL     1     -45.985  60.348 -48.858  1.00  0.00    -0.273 OA
BRANCH  27  30
HETATM   30  C   UNL     1     -45.307  62.730 -47.472  1.00  0.00     0.084 C 
HETATM   31  C   UNL     1     -44.853  61.906 -46.272  1.00  0.00     0.025 C 
HETATM   32  C   UNL     1     -45.211  62.776 -45.074  1.00  0.00     0.002 C 
HETATM   33  C   UNL     1     -45.180  64.217 -45.581  1.00  0.00     0.002 C 
HETATM   34  C   UNL     1     -44.876  64.140 -47.075  1.00  0.00     0.025 C 
ENDBRANCH  27  30
ENDBRANCH  25  26
ENDBRANCH  24  25
ENDBRANCH   3  24
TORSDOF 8
ENDMDL
MODEL 7
REMARK VINA RESULT:      -8.1      4.404      7.229
REMARK  8 active torsions:
REMARK  status: ('A' for Active; 'I' for Inactive)
REMARK    1  A    between atoms: C_8  and  C_9 
REMARK    2  A    between atoms: N_10  and  C_11 
REMARK    3  A    between atoms: C_11  and  C_12 
REMARK    4  A    between atoms: C_17  and  S_18 
REMARK    5  A    between atoms: S_18  and  C_19 
REMARK    6  A    between atoms: C_19  and  C_20 
REMARK       I    between atoms: C_20  and  N_21 
REMARK    7  A    between atoms: N_21  and  C_22 
REMARK    8  A    between atoms: C_30  and  O_31 
ROOT
HETATM    1  C   UNL     1     -43.816  56.929 -51.818  1.00  0.00     0.167 A 
HETATM    2  N   UNL     1     -43.533  58.282 -51.928  1.00  0.00    -0.301 N 
HETATM    3  C   UNL     1     -44.457  58.910 -51.130  1.00  0.00     0.192 A 
HETATM    4  N   UNL     1     -45.251  58.028 -50.579  1.00  0.00    -0.122 NA
HETATM    5  N   UNL     1     -44.848  56.798 -50.995  1.00  0.00    -0.128 NA
ENDROOT
BRANCH   1   6
HETATM    6  C   UNL     1     -43.116  55.761 -52.378  1.00  0.00     0.046 A 
HETATM    7  C   UNL     1     -42.052  55.117 -51.733  1.00  0.00     0.030 A 
HETATM    8  C   UNL     1     -41.389  54.015 -52.313  1.00  0.00    -0.025 A 
HETATM    9  C   UNL     1     -40.331  53.365 -51.654  1.00  0.00     0.012 A 
HETATM   10  C   UNL     1     -41.787  53.554 -53.586  1.00  0.00    -0.023 A 
HETATM   11  C   UNL     1     -39.675  52.285 -52.248  1.00  0.00     0.001 A 
HETATM   12  C   UNL     1     -40.064  51.839 -53.507  1.00  0.00     0.001 A 
HETATM   13  C   UNL     1     -41.115  52.469 -54.173  1.00  0.00     0.012 A 
HETATM   14  C   UNL     1     -42.837  54.199 -54.247  1.00  0.00     0.049 A 
HETATM   15  C   UNL     1     -43.478  55.286 -53.654  1.00  0.00     0.080 A 
BRANCH  15  16
HETATM   16  O   UNL     1     -44.473  55.860 -54.408  1.00  0.00    -0.360 OA
HETATM   17  H   UNL     1     -44.094  56.633 -54.876  1.00  0.00     0.217 HD
ENDBRANCH  15  16
ENDBRANCH   1   6
BRANCH   2  18
HETATM   18  C   UNL     1     -42.527  58.935 -52.746  1.00  0.00     0.198 C 
BRANCH  18  19
HETATM   19  C   UNL     1     -41.215  59.055 -52.072  1.00  0.00     0.070 A 
HETATM   20  O   UNL     1     -40.131  59.083 -52.901  1.00  0.00    -0.325 OA
HETATM   21  C   UNL     1     -39.032  59.227 -52.118  1.00  0.00     0.142 A 
HETATM   22  C   UNL     1     -39.394  59.296 -50.793  1.00  0.00     0.027 A 
HETATM   23  C   UNL     1     -40.805  59.189 -50.762  1.00  0.00     0.036 A 
ENDBRANCH  18  19
ENDBRANCH   2  18
BRANCH   3  24
HETATM   24  S   UNL     1     -44.574  60.614 -50.867  1.00  0.00    -0.081 SA
BRANCH  24  25
HETATM   25  C   UNL     1     -45.443  60.649 -49.273  1.00  0.00     0.185 C 
BRANCH  25  26
HETATM   26  C   UNL     1     -45.304  61.972 -48.537  1.00  0.00     0.227 C 
HETATM   27  N   UNL     1     -45.397  61.903 -47.166  1.00  0.00    -0.356 N 
HETATM   28  H   UNL     1     -45.554  60.990 -46.740  1.00  0.00     0.162 HD
HETATM   29  O   UNL     1     -45.206  63.034 -49.148  1.00  0.00    -0.273 OA
BRANCH  27  30
HETATM   30  C   UNL     1     -45.524  63.073 -46.328  1.00  0.00     0.084 C 
HETATM   31  C   UNL     1     -46.980  63.406 -46.023  1.00  0.00     0.025 C 
HETATM   32  C   UNL     1     -46.897  64.363 -44.841  1.00  0.00     0.002 C 
HETATM   33  C   UNL     1     -45.600  64.014 -44.111  1.00  0.00     0.002 C 
HETATM   34  C   UNL     1     -44.931  62.913 -44.930  1.00  0.00     0.025 C 
ENDBRANCH  27  30
ENDBRANCH  25  26
ENDBRANCH  24  25
ENDBRANCH   3  24
TORSDOF 8
ENDMDL
MODEL 8
REMARK VINA RESULT:      -8.0      1.731      2.655
REMARK  8 active torsions:
REMARK  status: ('A' for Active; 'I' for Inactive)
REMARK    1  A    between atoms: C_8  and  C_9 
REMARK    2  A    between atoms: N_10  and  C_11 
REMARK    3  A    between atoms: C_11  and  C_12 
REMARK    4  A    between atoms: C_17  and  S_18 
REMARK    5  A    between atoms: S_18  and  C_19 
REMARK    6  A    between atoms: C_19  and  C_20 
REMARK       I    between atoms: C_20  and  N_21 
REMARK    7  A    between atoms: N_21  and  C_22 
REMARK    8  A    between atoms: C_30  and  O_31 
ROOT
HETATM    1  C   UNL     1     -41.080  56.750 -53.522  1.00  0.00     0.167 A 
HETATM    2  N   UNL     1     -42.273  57.451 -53.425  1.00  0.00    -0.301 N 
HETATM    3  C   UNL     1     -41.914  58.777 -53.440  1.00  0.00     0.192 A 
HETATM    4  N   UNL     1     -40.614  58.891 -53.530  1.00  0.00    -0.122 NA
HETATM    5  N   UNL     1     -40.096  57.637 -53.593  1.00  0.00    -0.128 NA
ENDROOT
BRANCH   1   6
HETATM    6  C   UNL     1     -40.832  55.304 -53.635  1.00  0.00     0.046 A 
HETATM    7  C   UNL     1     -40.453  54.499 -52.552  1.00  0.00     0.030 A 
HETATM    8  C   UNL     1     -40.200  53.120 -52.704  1.00  0.00    -0.025 A 
HETATM    9  C   UNL     1     -39.834  52.317 -51.610  1.00  0.00     0.012 A 
HETATM   10  C   UNL     1     -40.307  52.528 -53.980  1.00  0.00    -0.023 A 
HETATM   11  C   UNL     1     -39.572  50.955 -51.779  1.00  0.00     0.001 A 
HETATM   12  C   UNL     1     -39.670  50.377 -53.041  1.00  0.00     0.001 A 
HETATM   13  C   UNL     1     -40.036  51.159 -54.137  1.00  0.00     0.012 A 
HETATM   14  C   UNL     1     -40.668  53.324 -55.072  1.00  0.00     0.049 A 
HETATM   15  C   UNL     1     -40.915  54.685 -54.899  1.00  0.00     0.080 A 
BRANCH  15  16
HETATM   16  O   UNL     1     -41.230  55.373 -56.045  1.00  0.00    -0.360 OA
HETATM   17  H   UNL     1     -40.408  55.497 -56.563  1.00  0.00     0.217 HD
ENDBRANCH  15  16
ENDBRANCH   1   6
BRANCH   2  18
HETATM   18  C   UNL     1     -43.620  56.933 -53.274  1.00  0.00     0.198 C 
BRANCH  18  19
HETATM   19  C   UNL     1     -43.747  55.949 -52.176  1.00  0.00     0.070 A 
HETATM   20  O   UNL     1     -43.780  54.640 -52.562  1.00  0.00    -0.325 OA
HETATM   21  C   UNL     1     -43.865  53.893 -51.433  1.00  0.00     0.142 A 
HETATM   22  C   UNL     1     -43.882  54.702 -50.322  1.00  0.00     0.027 A 
HETATM   23  C   UNL     1     -43.803  56.032 -50.800  1.00  0.00     0.036 A 
ENDBRANCH  18  19
ENDBRANCH   2  18
BRANCH   3  24
HETATM   24  S   UNL     1     -43.001  60.118 -53.360  1.00  0.00    -0.081 SA
BRANCH  24  25
HETATM   25  C   UNL     1     -43.860  59.949 -54.951  1.00  0.00     0.185 C 
BRANCH  25  26
HETATM   26  C   UNL     1     -42.919  59.803 -56.136  1.00  0.00     0.227 C 
HETATM   27  N   UNL     1     -43.286  58.869 -57.076  1.00  0.00    -0.356 N 
HETATM   28  H   UNL     1     -44.145  58.342 -56.921  1.00  0.00     0.162 HD
HETATM   29  O   UNL     1     -41.858  60.422 -56.187  1.00  0.00    -0.273 OA
BRANCH  27  30
HETATM   30  C   UNL     1     -42.405  58.431 -58.134  1.00  0.00     0.084 C 
HETATM   31  C   UNL     1     -42.806  57.070 -58.690  1.00  0.00     0.025 C 
HETATM   32  C   UNL     1     -42.056  56.978 -60.012  1.00  0.00     0.002 C 
HETATM   33  C   UNL     1     -41.858  58.419 -60.480  1.00  0.00     0.002 C 
HETATM   34  C   UNL     1     -42.434  59.310 -59.382  1.00  0.00     0.025 C 
ENDBRANCH  27  30
ENDBRANCH  25  26
ENDBRANCH  24  25
ENDBRANCH   3  24
TORSDOF 8
ENDMDL
MODEL 9
REMARK VINA RESULT:      -8.0      2.141      2.744
REMARK  8 active torsions:
REMARK  status: ('A' for Active; 'I' for Inactive)
REMARK    1  A    between atoms: C_8  and  C_9 
REMARK    2  A    between atoms: N_10  and  C_11 
REMARK    3  A    between atoms: C_11  and  C_12 
REMARK    4  A    between atoms: C_17  and  S_18 
REMARK    5  A    between atoms: S_18  and  C_19 
REMARK    6  A    between atoms: C_19  and  C_20 
REMARK       I    between atoms: C_20  and  N_21 
REMARK    7  A    between atoms: N_21  and  C_22 
REMARK    8  A    between atoms: C_30  and  O_31 
ROOT
HETATM    1  C   UNL     1     -42.544  56.988 -54.452  1.00  0.00     0.167 A 
HETATM    2  N   UNL     1     -42.144  58.302 -54.255  1.00  0.00    -0.301 N 
HETATM    3  C   UNL     1     -43.184  59.068 -54.719  1.00  0.00     0.192 A 
HETATM    4  N   UNL     1     -44.142  58.302 -55.172  1.00  0.00    -0.122 NA
HETATM    5  N   UNL     1     -43.753  57.012 -54.997  1.00  0.00    -0.128 NA
ENDROOT
BRANCH   1   6
HETATM    6  C   UNL     1     -41.885  55.726 -54.078  1.00  0.00     0.046 A 
HETATM    7  C   UNL     1     -41.632  55.351 -52.751  1.00  0.00     0.030 A 
HETATM    8  C   UNL     1     -40.975  54.144 -52.433  1.00  0.00    -0.025 A 
HETATM    9  C   UNL     1     -40.737  53.768 -51.100  1.00  0.00     0.012 A 
HETATM   10  C   UNL     1     -40.538  53.293 -53.471  1.00  0.00    -0.023 A 
HETATM   11  C   UNL     1     -40.072  52.577 -50.801  1.00  0.00     0.001 A 
HETATM   12  C   UNL     1     -39.635  51.745 -51.827  1.00  0.00     0.001 A 
HETATM   13  C   UNL     1     -39.867  52.100 -53.156  1.00  0.00     0.012 A 
HETATM   14  C   UNL     1     -40.770  53.665 -54.799  1.00  0.00     0.049 A 
HETATM   15  C   UNL     1     -41.422  54.862 -55.091  1.00  0.00     0.080 A 
BRANCH  15  16
HETATM   16  O   UNL     1     -41.567  55.139 -56.429  1.00  0.00    -0.360 OA
HETATM   17  H   UNL     1     -40.695  55.418 -56.779  1.00  0.00     0.217 HD
ENDBRANCH  15  16
ENDBRANCH   1   6
BRANCH   2  18
HETATM   18  C   UNL     1     -40.883  58.798 -53.733  1.00  0.00     0.198 C 
BRANCH  18  19
HETATM   19  C   UNL     1     -40.906  59.024 -52.270  1.00  0.00     0.070 A 
HETATM   20  O   UNL     1     -41.492  60.189 -51.867  1.00  0.00    -0.325 OA
HETATM   21  C   UNL     1     -41.451  60.208 -50.511  1.00  0.00     0.142 A 
HETATM   22  C   UNL     1     -40.849  59.067 -50.033  1.00  0.00     0.027 A 
HETATM   23  C   UNL     1     -40.500  58.298 -51.170  1.00  0.00     0.036 A 
ENDBRANCH  18  19
ENDBRANCH   2  18
BRANCH   3  24
HETATM   24  S   UNL     1     -43.247  60.795 -54.711  1.00  0.00    -0.081 SA
BRANCH  24  25
HETATM   25  C   UNL     1     -43.333  61.136 -56.493  1.00  0.00     0.185 C 
BRANCH  25  26
HETATM   26  C   UNL     1     -41.973  61.163 -57.170  1.00  0.00     0.227 C 
HETATM   27  N   UNL     1     -41.596  62.375 -57.700  1.00  0.00    -0.356 N 
HETATM   28  H   UNL     1     -42.240  63.161 -57.611  1.00  0.00     0.162 HD
HETATM   29  O   UNL     1     -41.308  60.138 -57.306  1.00  0.00    -0.273 OA
BRANCH  27  30
HETATM   30  C   UNL     1     -40.457  62.530 -58.576  1.00  0.00     0.084 C 
HETATM   31  C   UNL     1     -40.841  62.403 -60.045  1.00  0.00     0.025 C 
HETATM   32  C   UNL     1     -39.647  62.989 -60.788  1.00  0.00     0.002 C 
HETATM   33  C   UNL     1     -39.011  63.994 -59.828  1.00  0.00     0.002 C 
HETATM   34  C   UNL     1     -39.810  63.912 -58.530  1.00  0.00     0.025 C 
ENDBRANCH  27  30
ENDBRANCH  25  26
ENDBRANCH  24  25
ENDBRANCH   3  24
TORSDOF 8
ENDMDL
MODEL 10
REMARK VINA RESULT:      -7.7     16.946     19.603
REMARK  8 active torsions:
REMARK  status: ('A' for Active; 'I' for Inactive)
REMARK    1  A    between atoms: C_8  and  C_9 
REMARK    2  A    between atoms: N_10  and  C_11 
REMARK    3  A    between atoms: C_11  and  C_12 
REMARK    4  A    between atoms: C_17  and  S_18 
REMARK    5  A    between atoms: S_18  and  C_19 
REMARK    6  A    between atoms: C_19  and  C_20 
REMARK       I    between atoms: C_20  and  N_21 
REMARK    7  A    between atoms: N_21  and  C_22 
REMARK    8  A    between atoms: C_30  and  O_31 
ROOT
HETATM    1  C   UNL     1     -33.384  40.022 -55.455  1.00  0.00     0.167 A 
HETATM    2  N   UNL     1     -33.516  39.364 -54.242  1.00  0.00    -0.301 N 
HETATM    3  C   UNL     1     -32.238  39.249 -53.753  1.00  0.00     0.192 A 
HETATM    4  N   UNL     1     -31.385  39.780 -54.590  1.00  0.00    -0.122 NA
HETATM    5  N   UNL     1     -32.094  40.270 -55.641  1.00  0.00    -0.128 NA
ENDROOT
BRANCH   1   6
HETATM    6  C   UNL     1     -34.410  40.497 -56.398  1.00  0.00     0.046 A 
HETATM    7  C   UNL     1     -34.858  39.745 -57.493  1.00  0.00     0.030 A 
HETATM    8  C   UNL     1     -35.826  40.244 -58.390  1.00  0.00    -0.025 A 
HETATM    9  C   UNL     1     -36.281  39.479 -59.478  1.00  0.00     0.012 A 
HETATM   10  C   UNL     1     -36.348  41.542 -58.202  1.00  0.00    -0.023 A 
HETATM   11  C   UNL     1     -37.228  39.992 -60.366  1.00  0.00     0.001 A 
HETATM   12  C   UNL     1     -37.734  41.276 -60.182  1.00  0.00     0.001 A 
HETATM   13  C   UNL     1     -37.297  42.047 -59.105  1.00  0.00     0.012 A 
HETATM   14  C   UNL     1     -35.895  42.307 -57.123  1.00  0.00     0.049 A 
HETATM   15  C   UNL     1     -34.939  41.794 -56.248  1.00  0.00     0.080 A 
BRANCH  15  16
HETATM   16  O   UNL     1     -34.546  42.646 -55.244  1.00  0.00    -0.360 OA
HETATM   17  H   UNL     1     -35.335  43.139 -54.937  1.00  0.00     0.217 HD
ENDBRANCH  15  16
ENDBRANCH   1   6
BRANCH   2  18
HETATM   18  C   UNL     1     -34.718  38.839 -53.620  1.00  0.00     0.198 C 
BRANCH  18  19
HETATM   19  C   UNL     1     -35.683  39.894 -53.235  1.00  0.00     0.070 A 
HETATM   20  O   UNL     1     -35.150  40.964 -52.577  1.00  0.00    -0.325 OA
HETATM   21  C   UNL     1     -36.165  41.832 -52.337  1.00  0.00     0.142 A 
HETATM   22  C   UNL     1     -37.346  41.338 -52.837  1.00  0.00     0.027 A 
HETATM   23  C   UNL     1     -37.036  40.086 -53.421  1.00  0.00     0.036 A 
ENDBRANCH  18  19
ENDBRANCH   2  18
BRANCH   3  24
HETATM   24  S   UNL     1     -31.793  38.521 -52.250  1.00  0.00    -0.081 SA
BRANCH  24  25
HETATM   25  C   UNL     1     -31.800  39.973 -51.158  1.00  0.00     0.185 C 
BRANCH  25  26
HETATM   26  C   UNL     1     -32.655  39.790 -49.914  1.00  0.00     0.227 C 
HETATM   27  N   UNL     1     -33.914  39.280 -50.127  1.00  0.00    -0.356 N 
HETATM   28  H   UNL     1     -34.191  39.065 -51.085  1.00  0.00     0.162 HD
HETATM   29  O   UNL     1     -32.262  40.164 -48.811  1.00  0.00    -0.273 OA
BRANCH  27  30
HETATM   30  C   UNL     1     -34.936  39.261 -49.106  1.00  0.00     0.084 C 
HETATM   31  C   UNL     1     -36.341  39.243 -49.699  1.00  0.00     0.025 C 
HETATM   32  C   UNL     1     -37.225  38.814 -48.536  1.00  0.00     0.002 C 
HETATM   33  C   UNL     1     -36.332  37.978 -47.619  1.00  0.00     0.002 C 
HETATM   34  C   UNL     1     -34.937  38.003 -48.240  1.00  0.00     0.025 C 
ENDBRANCH  27  30
ENDBRANCH  25  26
ENDBRANCH  24  25
ENDBRANCH   3  24
TORSDOF 8
ENDMDL
