MODEL 1
REMARK VINA RESULT:      -9.1      0.000      0.000
REMARK  4 active torsions:
REMARK  status: ('A' for Active; 'I' for Inactive)
REMARK    1  A    between atoms: C_7  and  C_8 
REMARK    2  A    between atoms: C_10  and  O_11 
REMARK    3  A    between atoms: C_17  and  C_18 
REMARK    4  A    between atoms: C_25  and  C_26 
REMARK       I    between atoms: C_26  and  N_27 
ROOT
HETATM    1  C   UNL     1     -44.194  54.763 -50.111  1.00  0.00     0.070 C 
HETATM    2  C   UNL     1     -43.325  54.811 -51.344  1.00  0.00     0.037 C 
HETATM    3  N   UNL     1     -43.986  55.100 -52.537  1.00  0.00    -0.192 N 
HETATM    4  C   UNL     1     -43.334  55.389 -53.679  1.00  0.00     0.726 A 
HETATM    5  N   UNL     1     -41.985  55.204 -53.737  1.00  0.00    -0.083 N 
HETATM    6  N   UNL     1     -41.471  55.631 -54.905  1.00  0.00    -0.135 NA
HETATM    7  C   UNL     1     -42.587  56.011 -55.559  1.00  0.00     0.199 A 
HETATM    8  N   UNL     1     -43.751  55.878 -54.818  1.00  0.00    -0.041 NA
HETATM    9  C   UNL     1     -41.193  54.624 -52.650  1.00  0.00     0.202 C 
HETATM   10  C   UNL     1     -41.983  54.593 -51.345  1.00  0.00     0.062 C 
HETATM   11  H   UNL     1     -44.969  55.355 -52.470  1.00  0.00     0.184 HD
ENDROOT
BRANCH   7  12
HETATM   12  C   UNL     1     -42.589  56.526 -56.926  1.00  0.00     0.017 A 
HETATM   13  C   UNL     1     -43.078  55.734 -57.978  1.00  0.00     0.052 A 
HETATM   14  C   UNL     1     -43.078  56.215 -59.291  1.00  0.00     0.069 A 
HETATM   15  C   UNL     1     -42.591  57.498 -59.551  1.00  0.00     0.037 A 
HETATM   16  C   UNL     1     -42.103  58.296 -58.518  1.00  0.00     0.004 A 
HETATM   17  C   UNL     1     -42.102  57.811 -57.210  1.00  0.00     0.015 A 
BRANCH  14  18
HETATM   18  O   UNL     1     -43.523  55.540 -60.395  1.00  0.00    -0.356 OA
HETATM   19  C   UNL     1     -44.657  54.700 -60.220  1.00  0.00     0.210 C 
ENDBRANCH  14  18
ENDBRANCH   7  12
BRANCH   9  20
HETATM   20  C   UNL     1     -40.683  53.252 -53.102  1.00  0.00    -0.028 A 
HETATM   21  C   UNL     1     -41.298  52.609 -54.192  1.00  0.00     0.012 A 
HETATM   22  C   UNL     1     -40.861  51.352 -54.616  1.00  0.00     0.043 A 
HETATM   23  C   UNL     1     -39.813  50.730 -53.950  1.00  0.00     0.116 A 
HETATM   24  F   UNL     1     -39.393  49.526 -54.358  1.00  0.00    -0.206 F 
HETATM   25  C   UNL     1     -39.199  51.336 -52.862  1.00  0.00     0.043 A 
HETATM   26  C   UNL     1     -39.635  52.590 -52.432  1.00  0.00     0.012 A 
ENDBRANCH   9  20
BRANCH  10  27
HETATM   27  C   UNL     1     -41.227  54.494 -50.067  1.00  0.00     0.249 C 
HETATM   28  N   UNL     1     -40.828  55.653 -49.484  1.00  0.00    -0.366 N 
HETATM   29  H   UNL     1     -40.841  56.562 -49.924  1.00  0.00     0.159 HD
HETATM   30  H   UNL     1     -40.277  55.563 -48.639  1.00  0.00     0.159 HD
HETATM   31  O   UNL     1     -40.988  53.425 -49.518  1.00  0.00    -0.268 OA
ENDBRANCH  10  27
TORSDOF 4
ENDMDL
MODEL 2
REMARK VINA RESULT:      -8.9      1.398      1.534
REMARK  4 active torsions:
REMARK  status: ('A' for Active; 'I' for Inactive)
REMARK    1  A    between atoms: C_7  and  C_8 
REMARK    2  A    between atoms: C_10  and  O_11 
REMARK    3  A    between atoms: C_17  and  C_18 
REMARK    4  A    between atoms: C_25  and  C_26 
REMARK       I    between atoms: C_26  and  N_27 
ROOT
HETATM    1  C   UNL     1     -44.594  56.717 -50.719  1.00  0.00     0.070 C 
HETATM    2  C   UNL     1     -43.676  56.546 -51.905  1.00  0.00     0.037 C 
HETATM    3  N   UNL     1     -44.294  56.571 -53.155  1.00  0.00    -0.192 N 
HETATM    4  C   UNL     1     -43.602  56.648 -54.307  1.00  0.00     0.726 A 
HETATM    5  N   UNL     1     -42.248  56.497 -54.279  1.00  0.00    -0.083 N 
HETATM    6  N   UNL     1     -41.697  56.698 -55.490  1.00  0.00    -0.135 NA
HETATM    7  C   UNL     1     -42.793  56.907 -56.245  1.00  0.00     0.199 A 
HETATM    8  N   UNL     1     -43.983  56.887 -55.535  1.00  0.00    -0.041 NA
HETATM    9  C   UNL     1     -41.488  56.168 -53.071  1.00  0.00     0.202 C 
HETATM   10  C   UNL     1     -42.330  56.373 -51.815  1.00  0.00     0.062 C 
HETATM   11  H   UNL     1     -45.284  56.805 -53.175  1.00  0.00     0.184 HD
ENDROOT
BRANCH   7  12
HETATM   12  C   UNL     1     -42.751  57.140 -57.688  1.00  0.00     0.017 A 
HETATM   13  C   UNL     1     -43.444  56.286 -58.561  1.00  0.00     0.052 A 
HETATM   14  C   UNL     1     -43.405  56.495 -59.943  1.00  0.00     0.069 A 
HETATM   15  C   UNL     1     -42.671  57.570 -60.452  1.00  0.00     0.037 A 
HETATM   16  C   UNL     1     -41.979  58.427 -59.598  1.00  0.00     0.004 A 
HETATM   17  C   UNL     1     -42.019  58.211 -58.220  1.00  0.00     0.015 A 
BRANCH  14  18
HETATM   18  O   UNL     1     -44.032  55.734 -60.890  1.00  0.00    -0.356 OA
HETATM   19  C   UNL     1     -44.894  54.705 -60.420  1.00  0.00     0.210 C 
ENDBRANCH  14  18
ENDBRANCH   7  12
BRANCH   9  20
HETATM   20  C   UNL     1     -40.929  54.750 -53.221  1.00  0.00    -0.028 A 
HETATM   21  C   UNL     1     -40.613  54.262 -54.503  1.00  0.00     0.012 A 
HETATM   22  C   UNL     1     -40.114  52.968 -54.667  1.00  0.00     0.043 A 
HETATM   23  C   UNL     1     -39.934  52.155 -53.556  1.00  0.00     0.116 A 
HETATM   24  F   UNL     1     -39.453  50.916 -53.715  1.00  0.00    -0.206 F 
HETATM   25  C   UNL     1     -40.252  52.607 -52.282  1.00  0.00     0.043 A 
HETATM   26  C   UNL     1     -40.756  53.898 -52.112  1.00  0.00     0.012 A 
ENDBRANCH   9  20
BRANCH  10  27
HETATM   27  C   UNL     1     -41.625  56.553 -50.516  1.00  0.00     0.249 C 
HETATM   28  N   UNL     1     -41.118  57.783 -50.245  1.00  0.00    -0.366 N 
HETATM   29  H   UNL     1     -41.020  58.534 -50.912  1.00  0.00     0.159 HD
HETATM   30  H   UNL     1     -40.605  57.872 -49.376  1.00  0.00     0.159 HD
HETATM   31  O   UNL     1     -41.520  55.656 -49.688  1.00  0.00    -0.268 OA
ENDBRANCH  10  27
TORSDOF 4
ENDMDL
MODEL 3
REMARK VINA RESULT:      -8.8      3.570      7.234
REMARK  4 active torsions:
REMARK  status: ('A' for Active; 'I' for Inactive)
REMARK    1  A    between atoms: C_7  and  C_8 
REMARK    2  A    between atoms: C_10  and  O_11 
REMARK    3  A    between atoms: C_17  and  C_18 
REMARK    4  A    between atoms: C_25  and  C_26 
REMARK       I    between atoms: C_26  and  N_27 
ROOT
HETATM    1  C   UNL     1     -44.758  58.389 -56.317  1.00  0.00     0.070 C 
HETATM    2  C   UNL     1     -43.598  57.769 -55.577  1.00  0.00     0.037 C 
HETATM    3  N   UNL     1     -43.753  56.428 -55.227  1.00  0.00    -0.192 N 
HETATM    4  C   UNL     1     -42.738  55.676 -54.761  1.00  0.00     0.726 A 
HETATM    5  N   UNL     1     -41.564  56.281 -54.427  1.00  0.00    -0.083 N 
HETATM    6  N   UNL     1     -40.623  55.385 -54.075  1.00  0.00    -0.135 NA
HETATM    7  C   UNL     1     -41.317  54.232 -54.150  1.00  0.00     0.199 A 
HETATM    8  N   UNL     1     -42.626  54.386 -54.579  1.00  0.00    -0.041 NA
HETATM    9  C   UNL     1     -41.352  57.729 -54.462  1.00  0.00     0.202 C 
HETATM   10  C   UNL     1     -42.456  58.431 -55.247  1.00  0.00     0.062 C 
HETATM   11  H   UNL     1     -44.577  55.951 -55.584  1.00  0.00     0.184 HD
ENDROOT
BRANCH   7  12
HETATM   12  C   UNL     1     -40.754  52.925 -53.818  1.00  0.00     0.017 A 
HETATM   13  C   UNL     1     -40.358  52.641 -52.500  1.00  0.00     0.052 A 
HETATM   14  C   UNL     1     -39.813  51.396 -52.173  1.00  0.00     0.069 A 
HETATM   15  C   UNL     1     -39.668  50.429 -53.170  1.00  0.00     0.037 A 
HETATM   16  C   UNL     1     -40.056  50.695 -54.481  1.00  0.00     0.004 A 
HETATM   17  C   UNL     1     -40.597  51.940 -54.804  1.00  0.00     0.015 A 
BRANCH  14  18
HETATM   18  O   UNL     1     -39.390  51.004 -50.933  1.00  0.00    -0.356 OA
HETATM   19  C   UNL     1     -39.603  49.643 -50.581  1.00  0.00     0.210 C 
ENDBRANCH  14  18
ENDBRANCH   7  12
BRANCH   9  20
HETATM   20  C   UNL     1     -41.196  58.231 -53.023  1.00  0.00    -0.028 A 
HETATM   21  C   UNL     1     -42.301  58.191 -52.152  1.00  0.00     0.012 A 
HETATM   22  C   UNL     1     -42.189  58.653 -50.839  1.00  0.00     0.043 A 
HETATM   23  C   UNL     1     -40.977  59.164 -50.393  1.00  0.00     0.116 A 
HETATM   24  F   UNL     1     -40.870  59.605 -49.133  1.00  0.00    -0.206 F 
HETATM   25  C   UNL     1     -39.876  59.228 -51.237  1.00  0.00     0.043 A 
HETATM   26  C   UNL     1     -39.984  58.771 -52.551  1.00  0.00     0.012 A 
ENDBRANCH   9  20
BRANCH  10  27
HETATM   27  C   UNL     1     -42.181  59.789 -55.790  1.00  0.00     0.249 C 
HETATM   28  N   UNL     1     -42.479  60.851 -54.999  1.00  0.00    -0.366 N 
HETATM   29  H   UNL     1     -43.030  60.813 -54.154  1.00  0.00     0.159 HD
HETATM   30  H   UNL     1     -42.326  61.767 -55.404  1.00  0.00     0.159 HD
HETATM   31  O   UNL     1     -41.675  59.974 -56.890  1.00  0.00    -0.268 OA
ENDBRANCH  10  27
TORSDOF 4
ENDMDL
MODEL 4
REMARK VINA RESULT:      -8.6      3.247      8.172
REMARK  4 active torsions:
REMARK  status: ('A' for Active; 'I' for Inactive)
REMARK    1  A    between atoms: C_7  and  C_8 
REMARK    2  A    between atoms: C_10  and  O_11 
REMARK    3  A    between atoms: C_17  and  C_18 
REMARK    4  A    between atoms: C_25  and  C_26 
REMARK       I    between atoms: C_26  and  N_27 
ROOT
HETATM    1  C   UNL     1     -44.173  55.194 -59.537  1.00  0.00     0.070 C 
HETATM    2  C   UNL     1     -43.490  55.579 -58.248  1.00  0.00     0.037 C 
HETATM    3  N   UNL     1     -43.604  54.659 -57.207  1.00  0.00    -0.192 N 
HETATM    4  C   UNL     1     -42.881  54.748 -56.074  1.00  0.00     0.726 A 
HETATM    5  N   UNL     1     -42.156  55.878 -55.838  1.00  0.00    -0.083 N 
HETATM    6  N   UNL     1     -41.415  55.772 -54.719  1.00  0.00    -0.135 NA
HETATM    7  C   UNL     1     -41.789  54.557 -54.272  1.00  0.00     0.199 A 
HETATM    8  N   UNL     1     -42.690  53.901 -55.097  1.00  0.00    -0.041 NA
HETATM    9  C   UNL     1     -42.174  57.057 -56.707  1.00  0.00     0.202 C 
HETATM   10  C   UNL     1     -42.799  56.736 -58.062  1.00  0.00     0.062 C 
HETATM   11  H   UNL     1     -44.041  53.767 -57.426  1.00  0.00     0.184 HD
ENDROOT
BRANCH   7  12
HETATM   12  C   UNL     1     -41.294  53.964 -53.031  1.00  0.00     0.017 A 
HETATM   13  C   UNL     1     -41.739  54.449 -51.790  1.00  0.00     0.052 A 
HETATM   14  C   UNL     1     -41.268  53.894 -50.597  1.00  0.00     0.069 A 
HETATM   15  C   UNL     1     -40.350  52.842 -50.647  1.00  0.00     0.037 A 
HETATM   16  C   UNL     1     -39.900  52.348 -51.870  1.00  0.00     0.004 A 
HETATM   17  C   UNL     1     -40.371  52.908 -53.058  1.00  0.00     0.015 A 
BRANCH  14  18
HETATM   18  O   UNL     1     -41.622  54.281 -49.334  1.00  0.00    -0.356 OA
HETATM   19  C   UNL     1     -40.609  54.229 -48.338  1.00  0.00     0.210 C 
ENDBRANCH  14  18
ENDBRANCH   7  12
BRANCH   9  20
HETATM   20  C   UNL     1     -42.866  58.200 -55.958  1.00  0.00    -0.028 A 
HETATM   21  C   UNL     1     -42.108  59.306 -55.529  1.00  0.00     0.012 A 
HETATM   22  C   UNL     1     -42.712  60.356 -54.834  1.00  0.00     0.043 A 
HETATM   23  C   UNL     1     -44.072  60.303 -54.558  1.00  0.00     0.116 A 
HETATM   24  F   UNL     1     -44.651  61.311 -53.893  1.00  0.00    -0.206 F 
HETATM   25  C   UNL     1     -44.839  59.216 -54.956  1.00  0.00     0.043 A 
HETATM   26  C   UNL     1     -44.240  58.162 -55.648  1.00  0.00     0.012 A 
ENDBRANCH   9  20
BRANCH  10  27
HETATM   27  C   UNL     1     -42.486  57.629 -59.211  1.00  0.00     0.249 C 
HETATM   28  N   UNL     1     -41.412  57.309 -59.977  1.00  0.00    -0.366 N 
HETATM   29  H   UNL     1     -40.707  56.628 -59.738  1.00  0.00     0.159 HD
HETATM   30  H   UNL     1     -41.191  57.953 -60.727  1.00  0.00     0.159 HD
HETATM   31  O   UNL     1     -43.171  58.602 -59.500  1.00  0.00    -0.268 OA
ENDBRANCH  10  27
TORSDOF 4
ENDMDL
MODEL 5
REMARK VINA RESULT:      -8.5      3.745      7.476
REMARK  4 active torsions:
REMARK  status: ('A' for Active; 'I' for Inactive)
REMARK    1  A    between atoms: C_7  and  C_8 
REMARK    2  A    between atoms: C_10  and  O_11 
REMARK    3  A    between atoms: C_17  and  C_18 
REMARK    4  A    between atoms: C_25  and  C_26 
REMARK       I    between atoms: C_26  and  N_27 
ROOT
HETATM    1  C   UNL     1     -44.355  57.594 -57.867  1.00  0.00     0.070 C 
HETATM    2  C   UNL     1     -43.518  57.360 -56.634  1.00  0.00     0.037 C 
HETATM    3  N   UNL     1     -43.553  56.065 -56.117  1.00  0.00    -0.192 N 
HETATM    4  C   UNL     1     -42.706  55.639 -55.161  1.00  0.00     0.726 A 
HETATM    5  N   UNL     1     -41.913  56.547 -54.526  1.00  0.00    -0.083 N 
HETATM    6  N   UNL     1     -41.057  55.954 -53.673  1.00  0.00    -0.135 NA
HETATM    7  C   UNL     1     -41.430  54.664 -53.784  1.00  0.00     0.199 A 
HETATM    8  N   UNL     1     -42.443  54.443 -54.703  1.00  0.00    -0.041 NA
HETATM    9  C   UNL     1     -41.978  57.992 -54.757  1.00  0.00     0.202 C 
HETATM   10  C   UNL     1     -42.763  58.314 -56.026  1.00  0.00     0.062 C 
HETATM   11  H   UNL     1     -44.049  55.364 -56.663  1.00  0.00     0.184 HD
ENDROOT
BRANCH   7  12
HETATM   12  C   UNL     1     -40.826  53.578 -53.014  1.00  0.00     0.017 A 
HETATM   13  C   UNL     1     -40.367  52.421 -53.666  1.00  0.00     0.052 A 
HETATM   14  C   UNL     1     -39.794  51.374 -52.939  1.00  0.00     0.069 A 
HETATM   15  C   UNL     1     -39.675  51.487 -51.552  1.00  0.00     0.037 A 
HETATM   16  C   UNL     1     -40.125  52.629 -50.891  1.00  0.00     0.004 A 
HETATM   17  C   UNL     1     -40.699  53.670 -51.620  1.00  0.00     0.015 A 
BRANCH  14  18
HETATM   18  O   UNL     1     -39.315  50.202 -53.458  1.00  0.00    -0.356 OA
HETATM   19  C   UNL     1     -39.857  49.782 -54.704  1.00  0.00     0.210 C 
ENDBRANCH  14  18
ENDBRANCH   7  12
BRANCH   9  20
HETATM   20  C   UNL     1     -42.534  58.660 -53.496  1.00  0.00    -0.028 A 
HETATM   21  C   UNL     1     -43.890  58.488 -53.161  1.00  0.00     0.012 A 
HETATM   22  C   UNL     1     -44.425  59.096 -52.023  1.00  0.00     0.043 A 
HETATM   23  C   UNL     1     -43.610  59.883 -51.219  1.00  0.00     0.116 A 
HETATM   24  F   UNL     1     -44.123  60.464 -50.127  1.00  0.00    -0.206 F 
HETATM   25  C   UNL     1     -42.273  60.081 -51.536  1.00  0.00     0.043 A 
HETATM   26  C   UNL     1     -41.735  59.479 -52.674  1.00  0.00     0.012 A 
ENDBRANCH   9  20
BRANCH  10  27
HETATM   27  C   UNL     1     -42.543  59.636 -56.674  1.00  0.00     0.249 C 
HETATM   28  N   UNL     1     -43.389  60.644 -56.342  1.00  0.00    -0.366 N 
HETATM   29  H   UNL     1     -44.255  60.535 -55.835  1.00  0.00     0.159 HD
HETATM   30  H   UNL     1     -43.250  61.522 -56.827  1.00  0.00     0.159 HD
HETATM   31  O   UNL     1     -41.623  59.847 -57.455  1.00  0.00    -0.268 OA
ENDBRANCH  10  27
TORSDOF 4
ENDMDL
MODEL 6
REMARK VINA RESULT:      -8.5      3.319      8.121
REMARK  4 active torsions:
REMARK  status: ('A' for Active; 'I' for Inactive)
REMARK    1  A    between atoms: C_7  and  C_8 
REMARK    2  A    between atoms: C_10  and  O_11 
REMARK    3  A    between atoms: C_17  and  C_18 
REMARK    4  A    between atoms: C_25  and  C_26 
REMARK       I    between atoms: C_26  and  N_27 
ROOT
HETATM    1  C   UNL     1     -44.140  55.072 -59.772  1.00  0.00     0.070 C 
HETATM    2  C   UNL     1     -43.490  55.594 -58.514  1.00  0.00     0.037 C 
HETATM    3  N   UNL     1     -43.586  54.766 -57.396  1.00  0.00    -0.192 N 
HETATM    4  C   UNL     1     -42.883  54.982 -56.268  1.00  0.00     0.726 A 
HETATM    5  N   UNL     1     -42.201  56.153 -56.126  1.00  0.00    -0.083 N 
HETATM    6  N   UNL     1     -41.473  56.173 -54.994  1.00  0.00    -0.135 NA
HETATM    7  C   UNL     1     -41.810  54.990 -54.444  1.00  0.00     0.199 A 
HETATM    8  N   UNL     1     -42.676  54.232 -55.217  1.00  0.00    -0.041 NA
HETATM    9  C   UNL     1     -42.248  57.249 -57.096  1.00  0.00     0.202 C 
HETATM   10  C   UNL     1     -42.842  56.787 -58.424  1.00  0.00     0.062 C 
HETATM   11  H   UNL     1     -43.988  53.843 -57.540  1.00  0.00     0.184 HD
ENDROOT
BRANCH   7  12
HETATM   12  C   UNL     1     -41.313  54.527 -53.150  1.00  0.00     0.017 A 
HETATM   13  C   UNL     1     -40.678  53.278 -53.044  1.00  0.00     0.052 A 
HETATM   14  C   UNL     1     -40.205  52.823 -51.810  1.00  0.00     0.069 A 
HETATM   15  C   UNL     1     -40.364  53.625 -50.677  1.00  0.00     0.037 A 
HETATM   16  C   UNL     1     -40.991  54.866 -50.767  1.00  0.00     0.004 A 
HETATM   17  C   UNL     1     -41.465  55.315 -52.000  1.00  0.00     0.015 A 
BRANCH  14  18
HETATM   18  O   UNL     1     -39.576  51.631 -51.580  1.00  0.00    -0.356 OA
HETATM   19  C   UNL     1     -39.522  50.713 -52.665  1.00  0.00     0.210 C 
ENDBRANCH  14  18
ENDBRANCH   7  12
BRANCH   9  20
HETATM   20  C   UNL     1     -42.990  58.428 -56.459  1.00  0.00    -0.028 A 
HETATM   21  C   UNL     1     -42.276  59.593 -56.118  1.00  0.00     0.012 A 
HETATM   22  C   UNL     1     -42.927  60.677 -55.526  1.00  0.00     0.043 A 
HETATM   23  C   UNL     1     -44.289  60.602 -55.266  1.00  0.00     0.116 A 
HETATM   24  F   UNL     1     -44.912  61.643 -54.700  1.00  0.00    -0.206 F 
HETATM   25  C   UNL     1     -45.013  59.459 -55.579  1.00  0.00     0.043 A 
HETATM   26  C   UNL     1     -44.367  58.370 -56.167  1.00  0.00     0.012 A 
ENDBRANCH   9  20
BRANCH  10  27
HETATM   27  C   UNL     1     -42.544  57.585 -59.644  1.00  0.00     0.249 C 
HETATM   28  N   UNL     1     -41.400  57.298 -60.316  1.00  0.00    -0.366 N 
HETATM   29  H   UNL     1     -40.650  56.718 -59.969  1.00  0.00     0.159 HD
HETATM   30  H   UNL     1     -41.194  57.882 -61.118  1.00  0.00     0.159 HD
HETATM   31  O   UNL     1     -43.298  58.452 -60.071  1.00  0.00    -0.268 OA
ENDBRANCH  10  27
TORSDOF 4
ENDMDL
MODEL 7
REMARK VINA RESULT:      -8.5      1.110      1.835
REMARK  4 active torsions:
REMARK  status: ('A' for Active; 'I' for Inactive)
REMARK    1  A    between atoms: C_7  and  C_8 
REMARK    2  A    between atoms: C_10  and  O_11 
REMARK    3  A    between atoms: C_17  and  C_18 
REMARK    4  A    between atoms: C_25  and  C_26 
REMARK       I    between atoms: C_26  and  N_27 
ROOT
HETATM    1  C   UNL     1     -44.108  54.693 -50.188  1.00  0.00     0.070 C 
HETATM    2  C   UNL     1     -43.253  54.725 -51.431  1.00  0.00     0.037 C 
HETATM    3  N   UNL     1     -43.932  54.964 -52.625  1.00  0.00    -0.192 N 
HETATM    4  C   UNL     1     -43.299  55.235 -53.781  1.00  0.00     0.726 A 
HETATM    5  N   UNL     1     -41.947  55.080 -53.848  1.00  0.00    -0.083 N 
HETATM    6  N   UNL     1     -41.455  55.484 -55.035  1.00  0.00    -0.135 NA
HETATM    7  C   UNL     1     -42.586  55.820 -55.686  1.00  0.00     0.199 A 
HETATM    8  N   UNL     1     -43.739  55.681 -54.929  1.00  0.00    -0.041 NA
HETATM    9  C   UNL     1     -41.130  54.550 -52.755  1.00  0.00     0.202 C 
HETATM   10  C   UNL     1     -41.905  54.538 -51.441  1.00  0.00     0.062 C 
HETATM   11  H   UNL     1     -44.920  55.199 -52.554  1.00  0.00     0.184 HD
ENDROOT
BRANCH   7  12
HETATM   12  C   UNL     1     -42.614  56.296 -57.068  1.00  0.00     0.017 A 
HETATM   13  C   UNL     1     -42.231  57.613 -57.368  1.00  0.00     0.052 A 
HETATM   14  C   UNL     1     -42.261  58.081 -58.686  1.00  0.00     0.069 A 
HETATM   15  C   UNL     1     -42.671  57.222 -59.708  1.00  0.00     0.037 A 
HETATM   16  C   UNL     1     -43.053  55.912 -59.426  1.00  0.00     0.004 A 
HETATM   17  C   UNL     1     -43.025  55.451 -58.109  1.00  0.00     0.015 A 
BRANCH  14  18
HETATM   18  O   UNL     1     -41.916  59.337 -59.101  1.00  0.00    -0.356 OA
HETATM   19  C   UNL     1     -42.457  60.428 -58.366  1.00  0.00     0.210 C 
ENDBRANCH  14  18
ENDBRANCH   7  12
BRANCH   9  20
HETATM   20  C   UNL     1     -40.594  53.177 -53.173  1.00  0.00    -0.028 A 
HETATM   21  C   UNL     1     -41.212  52.484 -54.230  1.00  0.00     0.012 A 
HETATM   22  C   UNL     1     -40.750  51.226 -54.623  1.00  0.00     0.043 A 
HETATM   23  C   UNL     1     -39.674  50.652 -53.957  1.00  0.00     0.116 A 
HETATM   24  F   UNL     1     -39.231  49.447 -54.336  1.00  0.00    -0.206 F 
HETATM   25  C   UNL     1     -39.056  51.308 -52.901  1.00  0.00     0.043 A 
HETATM   26  C   UNL     1     -39.516  52.564 -52.502  1.00  0.00     0.012 A 
ENDBRANCH   9  20
BRANCH  10  27
HETATM   27  C   UNL     1     -41.135  54.493 -50.168  1.00  0.00     0.249 C 
HETATM   28  N   UNL     1     -40.988  53.284 -49.568  1.00  0.00    -0.366 N 
HETATM   29  H   UNL     1     -41.498  52.447 -49.809  1.00  0.00     0.159 HD
HETATM   30  H   UNL     1     -40.498  53.282 -48.681  1.00  0.00     0.159 HD
HETATM   31  O   UNL     1     -40.613  55.484 -49.673  1.00  0.00    -0.268 OA
ENDBRANCH  10  27
TORSDOF 4
ENDMDL
MODEL 8
REMARK VINA RESULT:      -8.4      3.988      7.008
REMARK  4 active torsions:
REMARK  status: ('A' for Active; 'I' for Inactive)
REMARK    1  A    between atoms: C_7  and  C_8 
REMARK    2  A    between atoms: C_10  and  O_11 
REMARK    3  A    between atoms: C_17  and  C_18 
REMARK    4  A    between atoms: C_25  and  C_26 
REMARK       I    between atoms: C_26  and  N_27 
ROOT
HETATM    1  C   UNL     1     -43.532  60.727 -50.250  1.00  0.00     0.070 C 
HETATM    2  C   UNL     1     -43.479  59.473 -51.087  1.00  0.00     0.037 C 
HETATM    3  N   UNL     1     -42.313  58.718 -50.970  1.00  0.00    -0.192 N 
HETATM    4  C   UNL     1     -42.195  57.476 -51.477  1.00  0.00     0.726 A 
HETATM    5  N   UNL     1     -43.168  57.004 -52.306  1.00  0.00    -0.083 N 
HETATM    6  N   UNL     1     -42.956  55.719 -52.646  1.00  0.00    -0.135 NA
HETATM    7  C   UNL     1     -41.778  55.478 -52.037  1.00  0.00     0.199 A 
HETATM    8  N   UNL     1     -41.291  56.548 -51.302  1.00  0.00    -0.041 NA
HETATM    9  C   UNL     1     -44.313  57.798 -52.757  1.00  0.00     0.202 C 
HETATM   10  C   UNL     1     -44.475  59.062 -51.919  1.00  0.00     0.062 C 
HETATM   11  H   UNL     1     -41.643  59.011 -50.262  1.00  0.00     0.184 HD
ENDROOT
BRANCH   7  12
HETATM   12  C   UNL     1     -41.065  54.206 -52.127  1.00  0.00     0.017 A 
HETATM   13  C   UNL     1     -41.011  53.511 -53.346  1.00  0.00     0.052 A 
HETATM   14  C   UNL     1     -40.337  52.290 -53.442  1.00  0.00     0.069 A 
HETATM   15  C   UNL     1     -39.709  51.765 -52.311  1.00  0.00     0.037 A 
HETATM   16  C   UNL     1     -39.752  52.442 -51.094  1.00  0.00     0.004 A 
HETATM   17  C   UNL     1     -40.429  53.659 -51.003  1.00  0.00     0.015 A 
BRANCH  14  18
HETATM   18  O   UNL     1     -40.219  51.523 -54.568  1.00  0.00    -0.356 OA
HETATM   19  C   UNL     1     -39.912  50.148 -54.379  1.00  0.00     0.210 C 
ENDBRANCH  14  18
ENDBRANCH   7  12
BRANCH   9  20
HETATM   20  C   UNL     1     -44.158  58.062 -54.258  1.00  0.00    -0.028 A 
HETATM   21  C   UNL     1     -42.977  58.659 -54.738  1.00  0.00     0.012 A 
HETATM   22  C   UNL     1     -42.815  58.922 -56.100  1.00  0.00     0.043 A 
HETATM   23  C   UNL     1     -43.833  58.596 -56.987  1.00  0.00     0.116 A 
HETATM   24  F   UNL     1     -43.676  58.847 -58.293  1.00  0.00    -0.206 F 
HETATM   25  C   UNL     1     -45.014  58.020 -56.537  1.00  0.00     0.043 A 
HETATM   26  C   UNL     1     -45.183  57.759 -55.177  1.00  0.00     0.012 A 
ENDBRANCH   9  20
BRANCH  10  27
HETATM   27  C   UNL     1     -45.804  59.731 -51.901  1.00  0.00     0.249 C 
HETATM   28  N   UNL     1     -46.129  60.507 -52.966  1.00  0.00    -0.366 N 
HETATM   29  H   UNL     1     -45.486  60.813 -53.683  1.00  0.00     0.159 HD
HETATM   30  H   UNL     1     -47.018  60.988 -52.915  1.00  0.00     0.159 HD
HETATM   31  O   UNL     1     -46.611  59.581 -50.991  1.00  0.00    -0.268 OA
ENDBRANCH  10  27
TORSDOF 4
ENDMDL
MODEL 9
REMARK VINA RESULT:      -8.4      3.133      4.586
REMARK  4 active torsions:
REMARK  status: ('A' for Active; 'I' for Inactive)
REMARK    1  A    between atoms: C_7  and  C_8 
REMARK    2  A    between atoms: C_10  and  O_11 
REMARK    3  A    between atoms: C_17  and  C_18 
REMARK    4  A    between atoms: C_25  and  C_26 
REMARK       I    between atoms: C_26  and  N_27 
ROOT
HETATM    1  C   UNL     1     -40.726  52.922 -51.620  1.00  0.00     0.070 C 
HETATM    2  C   UNL     1     -41.412  54.051 -52.350  1.00  0.00     0.037 C 
HETATM    3  N   UNL     1     -40.943  54.310 -53.637  1.00  0.00    -0.192 N 
HETATM    4  C   UNL     1     -41.582  55.130 -54.493  1.00  0.00     0.726 A 
HETATM    5  N   UNL     1     -42.613  55.893 -54.035  1.00  0.00    -0.083 N 
HETATM    6  N   UNL     1     -43.208  56.579 -55.029  1.00  0.00    -0.135 NA
HETATM    7  C   UNL     1     -42.437  56.238 -56.080  1.00  0.00     0.199 A 
HETATM    8  N   UNL     1     -41.429  55.337 -55.775  1.00  0.00    -0.041 NA
HETATM    9  C   UNL     1     -43.029  55.947 -52.632  1.00  0.00     0.202 C 
HETATM   10  C   UNL     1     -42.423  54.798 -51.830  1.00  0.00     0.062 C 
HETATM   11  H   UNL     1     -40.259  53.660 -54.018  1.00  0.00     0.184 HD
ENDROOT
BRANCH   7  12
HETATM   12  C   UNL     1     -42.634  56.758 -57.431  1.00  0.00     0.017 A 
HETATM   13  C   UNL     1     -43.187  55.938 -58.429  1.00  0.00     0.052 A 
HETATM   14  C   UNL     1     -43.374  56.423 -59.727  1.00  0.00     0.069 A 
HETATM   15  C   UNL     1     -43.010  57.738 -60.025  1.00  0.00     0.037 A 
HETATM   16  C   UNL     1     -42.462  58.564 -59.047  1.00  0.00     0.004 A 
HETATM   17  C   UNL     1     -42.274  58.075 -57.754  1.00  0.00     0.015 A 
BRANCH  14  18
HETATM   18  O   UNL     1     -43.898  55.724 -60.780  1.00  0.00    -0.356 OA
HETATM   19  C   UNL     1     -44.929  54.791 -60.482  1.00  0.00     0.210 C 
ENDBRANCH  14  18
ENDBRANCH   7  12
BRANCH   9  20
HETATM   20  C   UNL     1     -42.693  57.336 -52.079  1.00  0.00    -0.028 A 
HETATM   21  C   UNL     1     -41.357  57.654 -51.771  1.00  0.00     0.012 A 
HETATM   22  C   UNL     1     -41.025  58.908 -51.255  1.00  0.00     0.043 A 
HETATM   23  C   UNL     1     -42.026  59.848 -51.039  1.00  0.00     0.116 A 
HETATM   24  F   UNL     1     -41.706  61.051 -50.546  1.00  0.00    -0.206 F 
HETATM   25  C   UNL     1     -43.353  59.553 -51.321  1.00  0.00     0.043 A 
HETATM   26  C   UNL     1     -43.691  58.300 -51.832  1.00  0.00     0.012 A 
ENDBRANCH   9  20
BRANCH  10  27
HETATM   27  C   UNL     1     -43.078  54.408 -50.553  1.00  0.00     0.249 C 
HETATM   28  N   UNL     1     -44.357  53.956 -50.617  1.00  0.00    -0.366 N 
HETATM   29  H   UNL     1     -44.961  54.027 -51.423  1.00  0.00     0.159 HD
HETATM   30  H   UNL     1     -44.799  53.738 -49.733  1.00  0.00     0.159 HD
HETATM   31  O   UNL     1     -42.503  54.449 -49.472  1.00  0.00    -0.268 OA
ENDBRANCH  10  27
TORSDOF 4
ENDMDL
MODEL 10
REMARK VINA RESULT:      -7.8     14.478     18.012
REMARK  4 active torsions:
REMARK  status: ('A' for Active; 'I' for Inactive)
REMARK    1  A    between atoms: C_7  and  C_8 
REMARK    2  A    between atoms: C_10  and  O_11 
REMARK    3  A    between atoms: C_17  and  C_18 
REMARK    4  A    between atoms: C_25  and  C_26 
REMARK       I    between atoms: C_26  and  N_27 
ROOT
HETATM    1  C   UNL     1     -35.126  41.977 -52.024  1.00  0.00     0.070 C 
HETATM    2  C   UNL     1     -34.940  41.187 -53.295  1.00  0.00     0.037 C 
HETATM    3  N   UNL     1     -33.641  41.157 -53.802  1.00  0.00    -0.192 N 
HETATM    4  C   UNL     1     -33.267  40.330 -54.797  1.00  0.00     0.726 A 
HETATM    5  N   UNL     1     -34.222  39.635 -55.475  1.00  0.00    -0.083 N 
HETATM    6  N   UNL     1     -33.682  38.782 -56.366  1.00  0.00    -0.135 NA
HETATM    7  C   UNL     1     -32.370  39.057 -56.229  1.00  0.00     0.199 A 
HETATM    8  N   UNL     1     -32.087  40.006 -55.259  1.00  0.00    -0.041 NA
HETATM    9  C   UNL     1     -35.661  39.790 -55.249  1.00  0.00     0.202 C 
HETATM   10  C   UNL     1     -35.939  40.532 -53.945  1.00  0.00     0.062 C 
HETATM   11  H   UNL     1     -32.912  41.575 -53.228  1.00  0.00     0.184 HD
ENDROOT
BRANCH   7  12
HETATM   12  C   UNL     1     -31.322  38.417 -57.021  1.00  0.00     0.017 A 
HETATM   13  C   UNL     1     -29.972  38.575 -56.666  1.00  0.00     0.052 A 
HETATM   14  C   UNL     1     -28.961  37.973 -57.420  1.00  0.00     0.069 A 
HETATM   15  C   UNL     1     -29.304  37.203 -58.534  1.00  0.00     0.037 A 
HETATM   16  C   UNL     1     -30.638  37.035 -58.899  1.00  0.00     0.004 A 
HETATM   17  C   UNL     1     -31.644  37.641 -58.145  1.00  0.00     0.015 A 
BRANCH  14  18
HETATM   18  O   UNL     1     -27.618  38.057 -57.177  1.00  0.00    -0.356 OA
HETATM   19  C   UNL     1     -27.134  37.404 -56.010  1.00  0.00     0.210 C 
ENDBRANCH  14  18
ENDBRANCH   7  12
BRANCH   9  20
HETATM   20  C   UNL     1     -36.277  40.452 -56.486  1.00  0.00    -0.028 A 
HETATM   21  C   UNL     1     -37.287  39.782 -57.200  1.00  0.00     0.012 A 
HETATM   22  C   UNL     1     -37.857  40.359 -58.337  1.00  0.00     0.043 A 
HETATM   23  C   UNL     1     -37.415  41.603 -58.769  1.00  0.00     0.116 A 
HETATM   24  F   UNL     1     -37.963  42.156 -59.858  1.00  0.00    -0.206 F 
HETATM   25  C   UNL     1     -36.409  42.279 -58.091  1.00  0.00     0.043 A 
HETATM   26  C   UNL     1     -35.834  41.704 -56.956  1.00  0.00     0.012 A 
ENDBRANCH   9  20
BRANCH  10  27
HETATM   27  C   UNL     1     -37.279  40.373 -53.317  1.00  0.00     0.249 C 
HETATM   28  N   UNL     1     -38.232  41.285 -53.638  1.00  0.00    -0.366 N 
HETATM   29  H   UNL     1     -38.068  42.155 -54.122  1.00  0.00     0.159 HD
HETATM   30  H   UNL     1     -39.123  41.186 -53.166  1.00  0.00     0.159 HD
HETATM   31  O   UNL     1     -37.553  39.449 -52.561  1.00  0.00    -0.268 OA
ENDBRANCH  10  27
TORSDOF 4
ENDMDL
