MODEL 1
REMARK VINA RESULT:      -8.8      0.000      0.000
REMARK  4 active torsions:
REMARK  status: ('A' for Active; 'I' for Inactive)
REMARK    1  A    between atoms: C_3  and  N_4 
REMARK       I    between atoms: N_4  and  C_5 
REMARK    2  A    between atoms: C_5  and  C_6 
REMARK    3  A    between atoms: C_7  and  C_8 
REMARK    4  A    between atoms: C_11  and  O_12 
ROOT
HETATM    1  C   UNL     1     -42.120  55.701 -54.520  1.00  0.00     0.062 A 
HETATM    2  C   UNL     1     -42.122  56.752 -53.417  1.00  0.00     0.202 A 
HETATM    3  N   UNL     1     -43.309  57.614 -53.501  1.00  0.00    -0.083 N 
HETATM    4  C   UNL     1     -44.253  57.523 -54.487  1.00  0.00     0.726 A 
HETATM    5  N   UNL     1     -44.120  56.587 -55.444  1.00  0.00    -0.192 N 
HETATM    6  N   UNL     1     -43.551  58.665 -52.688  1.00  0.00    -0.141 NA
HETATM    7  C   UNL     1     -44.719  59.101 -53.183  1.00  0.00     0.162 A 
HETATM    8  C   UNL     1     -45.478  60.211 -52.572  1.00  0.00     0.096 C 
HETATM    9  N   UNL     1     -45.170  58.436 -54.299  1.00  0.00    -0.046 NA
HETATM   10  C   UNL     1     -43.090  55.655 -55.466  1.00  0.00     0.037 A 
HETATM   11  C   UNL     1     -43.142  54.645 -56.586  1.00  0.00     0.070 C 
HETATM   12  H   UNL     1     -44.851  56.501 -56.146  1.00  0.00     0.184 HD
ENDROOT
BRANCH   1  13
HETATM   13  C   UNL     1     -41.081  54.640 -54.454  1.00  0.00     0.256 C 
HETATM   14  N   UNL     1     -41.542  53.469 -53.889  1.00  0.00    -0.323 N 
HETATM   15  H   UNL     1     -42.476  53.476 -53.511  1.00  0.00     0.169 HD
HETATM   16  O   UNL     1     -39.955  54.885 -54.867  1.00  0.00    -0.267 OA
BRANCH  14  17
HETATM   17  C   UNL     1     -40.832  52.249 -53.749  1.00  0.00     0.041 A 
HETATM   18  C   UNL     1     -39.989  52.074 -52.628  1.00  0.00    -0.035 A 
HETATM   19  C   UNL     1     -39.816  53.133 -51.572  1.00  0.00     0.050 C 
HETATM   20  C   UNL     1     -39.290  50.863 -52.471  1.00  0.00     0.009 A 
HETATM   21  C   UNL     1     -39.414  49.837 -53.405  1.00  0.00     0.001 A 
HETATM   22  C   UNL     1     -40.244  50.008 -54.505  1.00  0.00     0.002 A 
HETATM   23  C   UNL     1     -40.948  51.204 -54.674  1.00  0.00     0.030 A 
ENDBRANCH  14  17
ENDBRANCH   1  13
BRANCH   2  24
HETATM   24  C   UNL     1     -41.974  56.174 -52.015  1.00  0.00    -0.028 A 
HETATM   25  C   UNL     1     -40.883  56.550 -51.217  1.00  0.00     0.012 A 
HETATM   26  C   UNL     1     -40.729  56.025 -49.932  1.00  0.00     0.037 A 
HETATM   27  C   UNL     1     -41.658  55.122 -49.416  1.00  0.00     0.068 A 
HETATM   28  C   UNL     1     -42.743  54.737 -50.202  1.00  0.00     0.037 A 
HETATM   29  C   UNL     1     -42.901  55.259 -51.492  1.00  0.00     0.012 A 
BRANCH  27  30
HETATM   30  O   UNL     1     -41.390  54.693 -48.145  1.00  0.00    -0.356 OA
HETATM   31  C   UNL     1     -40.190  53.953 -47.959  1.00  0.00     0.210 C 
ENDBRANCH  27  30
ENDBRANCH   2  24
TORSDOF 4
ENDMDL
MODEL 2
REMARK VINA RESULT:      -8.6      1.905      4.773
REMARK  4 active torsions:
REMARK  status: ('A' for Active; 'I' for Inactive)
REMARK    1  A    between atoms: C_3  and  N_4 
REMARK       I    between atoms: N_4  and  C_5 
REMARK    2  A    between atoms: C_5  and  C_6 
REMARK    3  A    between atoms: C_7  and  C_8 
REMARK    4  A    between atoms: C_11  and  O_12 
ROOT
HETATM    1  C   UNL     1     -41.980  55.660 -51.234  1.00  0.00     0.062 A 
HETATM    2  C   UNL     1     -42.912  56.557 -52.038  1.00  0.00     0.202 A 
HETATM    3  N   UNL     1     -42.709  57.974 -51.706  1.00  0.00    -0.083 N 
HETATM    4  C   UNL     1     -41.841  58.418 -50.745  1.00  0.00     0.726 A 
HETATM    5  N   UNL     1     -41.104  57.527 -50.057  1.00  0.00    -0.192 N 
HETATM    6  N   UNL     1     -43.429  58.992 -52.222  1.00  0.00    -0.141 NA
HETATM    7  C   UNL     1     -42.868  60.039 -51.599  1.00  0.00     0.162 A 
HETATM    8  C   UNL     1     -43.246  61.437 -51.889  1.00  0.00     0.096 C 
HETATM    9  N   UNL     1     -41.902  59.722 -50.672  1.00  0.00    -0.046 NA
HETATM   10  C   UNL     1     -41.133  56.160 -50.300  1.00  0.00     0.037 A 
HETATM   11  C   UNL     1     -40.192  55.325 -49.468  1.00  0.00     0.070 C 
HETATM   12  H   UNL     1     -40.431  57.873 -49.378  1.00  0.00     0.184 HD
ENDROOT
BRANCH   1  13
HETATM   13  C   UNL     1     -41.937  54.218 -51.595  1.00  0.00     0.256 C 
HETATM   14  N   UNL     1     -40.722  53.829 -52.118  1.00  0.00    -0.323 N 
HETATM   15  H   UNL     1     -40.038  54.552 -52.281  1.00  0.00     0.169 HD
HETATM   16  O   UNL     1     -42.938  53.533 -51.425  1.00  0.00    -0.267 OA
BRANCH  14  17
HETATM   17  C   UNL     1     -40.330  52.518 -52.489  1.00  0.00     0.041 A 
HETATM   18  C   UNL     1     -40.329  52.167 -53.858  1.00  0.00    -0.035 A 
HETATM   19  C   UNL     1     -40.726  53.132 -54.942  1.00  0.00     0.050 C 
HETATM   20  C   UNL     1     -39.929  50.872 -54.240  1.00  0.00     0.009 A 
HETATM   21  C   UNL     1     -39.538  49.933 -53.288  1.00  0.00     0.001 A 
HETATM   22  C   UNL     1     -39.536  50.279 -51.943  1.00  0.00     0.002 A 
HETATM   23  C   UNL     1     -39.927  51.561 -51.549  1.00  0.00     0.030 A 
ENDBRANCH  14  17
ENDBRANCH   1  13
BRANCH   2  24
HETATM   24  C   UNL     1     -42.829  56.340 -53.544  1.00  0.00    -0.028 A 
HETATM   25  C   UNL     1     -43.809  55.575 -54.193  1.00  0.00     0.012 A 
HETATM   26  C   UNL     1     -43.744  55.361 -55.572  1.00  0.00     0.037 A 
HETATM   27  C   UNL     1     -42.709  55.907 -56.329  1.00  0.00     0.068 A 
HETATM   28  C   UNL     1     -41.727  56.666 -55.694  1.00  0.00     0.037 A 
HETATM   29  C   UNL     1     -41.785  56.881 -54.311  1.00  0.00     0.012 A 
BRANCH  27  30
HETATM   30  O   UNL     1     -42.771  55.625 -57.666  1.00  0.00    -0.356 OA
HETATM   31  C   UNL     1     -43.542  56.507 -58.472  1.00  0.00     0.210 C 
ENDBRANCH  27  30
ENDBRANCH   2  24
TORSDOF 4
ENDMDL
MODEL 3
REMARK VINA RESULT:      -8.4      2.050      4.868
REMARK  4 active torsions:
REMARK  status: ('A' for Active; 'I' for Inactive)
REMARK    1  A    between atoms: C_3  and  N_4 
REMARK       I    between atoms: N_4  and  C_5 
REMARK    2  A    between atoms: C_5  and  C_6 
REMARK    3  A    between atoms: C_7  and  C_8 
REMARK    4  A    between atoms: C_11  and  O_12 
ROOT
HETATM    1  C   UNL     1     -42.295  57.033 -52.516  1.00  0.00     0.062 A 
HETATM    2  C   UNL     1     -43.486  57.416 -53.385  1.00  0.00     0.202 A 
HETATM    3  N   UNL     1     -44.179  58.597 -52.851  1.00  0.00    -0.083 N 
HETATM    4  C   UNL     1     -43.834  59.225 -51.685  1.00  0.00     0.726 A 
HETATM    5  N   UNL     1     -42.792  58.764 -50.970  1.00  0.00    -0.192 N 
HETATM    6  N   UNL     1     -45.299  59.132 -53.382  1.00  0.00    -0.141 NA
HETATM    7  C   UNL     1     -45.517  60.149 -52.535  1.00  0.00     0.162 A 
HETATM    8  C   UNL     1     -46.604  61.129 -52.730  1.00  0.00     0.096 C 
HETATM    9  N   UNL     1     -44.648  60.225 -51.471  1.00  0.00    -0.046 NA
HETATM   10  C   UNL     1     -41.996  57.700 -51.374  1.00  0.00     0.037 A 
HETATM   11  C   UNL     1     -40.836  57.366 -50.469  1.00  0.00     0.070 C 
HETATM   12  H   UNL     1     -42.518  59.266 -50.129  1.00  0.00     0.184 HD
ENDROOT
BRANCH   1  13
HETATM   13  C   UNL     1     -41.386  55.974 -53.030  1.00  0.00     0.256 C 
HETATM   14  N   UNL     1     -41.645  54.732 -52.489  1.00  0.00    -0.323 N 
HETATM   15  H   UNL     1     -42.340  54.683 -51.761  1.00  0.00     0.169 HD
HETATM   16  O   UNL     1     -40.513  56.278 -53.834  1.00  0.00    -0.267 OA
BRANCH  14  17
HETATM   17  C   UNL     1     -41.015  53.505 -52.821  1.00  0.00     0.041 A 
HETATM   18  C   UNL     1     -40.144  52.909 -51.881  1.00  0.00    -0.035 A 
HETATM   19  C   UNL     1     -39.860  53.522 -50.536  1.00  0.00     0.050 C 
HETATM   20  C   UNL     1     -39.523  51.685 -52.193  1.00  0.00     0.009 A 
HETATM   21  C   UNL     1     -39.752  51.056 -53.415  1.00  0.00     0.001 A 
HETATM   22  C   UNL     1     -40.610  51.641 -54.337  1.00  0.00     0.002 A 
HETATM   23  C   UNL     1     -41.236  52.854 -54.041  1.00  0.00     0.030 A 
ENDBRANCH  14  17
ENDBRANCH   1  13
BRANCH   2  24
HETATM   24  C   UNL     1     -43.139  57.614 -54.855  1.00  0.00    -0.028 A 
HETATM   25  C   UNL     1     -42.436  58.759 -55.258  1.00  0.00     0.012 A 
HETATM   26  C   UNL     1     -42.117  58.959 -56.603  1.00  0.00     0.037 A 
HETATM   27  C   UNL     1     -42.483  58.022 -57.569  1.00  0.00     0.068 A 
HETATM   28  C   UNL     1     -43.186  56.883 -57.180  1.00  0.00     0.037 A 
HETATM   29  C   UNL     1     -43.512  56.678 -55.833  1.00  0.00     0.012 A 
BRANCH  27  30
HETATM   30  O   UNL     1     -42.102  58.339 -58.843  1.00  0.00    -0.356 OA
HETATM   31  C   UNL     1     -42.120  57.286 -59.798  1.00  0.00     0.210 C 
ENDBRANCH  27  30
ENDBRANCH   2  24
TORSDOF 4
ENDMDL
MODEL 4
REMARK VINA RESULT:      -8.3      2.710      5.922
REMARK  4 active torsions:
REMARK  status: ('A' for Active; 'I' for Inactive)
REMARK    1  A    between atoms: C_3  and  N_4 
REMARK       I    between atoms: N_4  and  C_5 
REMARK    2  A    between atoms: C_5  and  C_6 
REMARK    3  A    between atoms: C_7  and  C_8 
REMARK    4  A    between atoms: C_11  and  O_12 
ROOT
HETATM    1  C   UNL     1     -42.139  54.355 -53.101  1.00  0.00     0.062 A 
HETATM    2  C   UNL     1     -42.566  54.796 -51.707  1.00  0.00     0.202 A 
HETATM    3  N   UNL     1     -41.621  54.327 -50.684  1.00  0.00    -0.083 N 
HETATM    4  C   UNL     1     -40.536  53.537 -50.949  1.00  0.00     0.726 A 
HETATM    5  N   UNL     1     -40.286  53.162 -52.217  1.00  0.00    -0.192 N 
HETATM    6  N   UNL     1     -41.771  54.522 -49.356  1.00  0.00    -0.141 NA
HETATM    7  C   UNL     1     -40.677  53.904 -48.887  1.00  0.00     0.162 A 
HETATM    8  C   UNL     1     -40.312  53.907 -47.456  1.00  0.00     0.096 C 
HETATM    9  N   UNL     1     -39.906  53.272 -49.835  1.00  0.00    -0.046 NA
HETATM   10  C   UNL     1     -41.046  53.578 -53.303  1.00  0.00     0.037 A 
HETATM   11  C   UNL     1     -40.575  53.103 -54.655  1.00  0.00     0.070 C 
HETATM   12  H   UNL     1     -39.451  52.612 -52.407  1.00  0.00     0.184 HD
ENDROOT
BRANCH   1  13
HETATM   13  C   UNL     1     -42.892  54.911 -54.256  1.00  0.00     0.256 C 
HETATM   14  N   UNL     1     -42.143  55.780 -55.020  1.00  0.00    -0.323 N 
HETATM   15  H   UNL     1     -41.222  56.013 -54.683  1.00  0.00     0.169 HD
HETATM   16  O   UNL     1     -44.061  54.583 -54.416  1.00  0.00    -0.267 OA
BRANCH  14  17
HETATM   17  C   UNL     1     -42.535  56.418 -56.225  1.00  0.00     0.041 A 
HETATM   18  C   UNL     1     -42.557  57.830 -56.274  1.00  0.00    -0.035 A 
HETATM   19  C   UNL     1     -42.176  58.688 -55.097  1.00  0.00     0.050 C 
HETATM   20  C   UNL     1     -42.932  58.475 -57.467  1.00  0.00     0.009 A 
HETATM   21  C   UNL     1     -43.284  57.741 -58.598  1.00  0.00     0.001 A 
HETATM   22  C   UNL     1     -43.261  56.354 -58.550  1.00  0.00     0.002 A 
HETATM   23  C   UNL     1     -42.888  55.699 -57.374  1.00  0.00     0.030 A 
ENDBRANCH  14  17
ENDBRANCH   1  13
BRANCH   2  24
HETATM   24  C   UNL     1     -42.797  56.296 -51.579  1.00  0.00    -0.028 A 
HETATM   25  C   UNL     1     -41.702  57.174 -51.580  1.00  0.00     0.012 A 
HETATM   26  C   UNL     1     -41.896  58.551 -51.457  1.00  0.00     0.037 A 
HETATM   27  C   UNL     1     -43.180  59.081 -51.337  1.00  0.00     0.068 A 
HETATM   28  C   UNL     1     -44.275  58.219 -51.329  1.00  0.00     0.037 A 
HETATM   29  C   UNL     1     -44.087  56.836 -51.450  1.00  0.00     0.012 A 
BRANCH  27  30
HETATM   30  O   UNL     1     -43.226  60.444 -51.231  1.00  0.00    -0.356 OA
HETATM   31  C   UNL     1     -43.806  60.975 -50.046  1.00  0.00     0.210 C 
ENDBRANCH  27  30
ENDBRANCH   2  24
TORSDOF 4
ENDMDL
MODEL 5
REMARK VINA RESULT:      -7.8     14.480     17.540
REMARK  4 active torsions:
REMARK  status: ('A' for Active; 'I' for Inactive)
REMARK    1  A    between atoms: C_3  and  N_4 
REMARK       I    between atoms: N_4  and  C_5 
REMARK    2  A    between atoms: C_5  and  C_6 
REMARK    3  A    between atoms: C_7  and  C_8 
REMARK    4  A    between atoms: C_11  and  O_12 
ROOT
HETATM    1  C   UNL     1     -34.467  40.797 -53.770  1.00  0.00     0.062 A 
HETATM    2  C   UNL     1     -33.730  41.091 -55.069  1.00  0.00     0.202 A 
HETATM    3  N   UNL     1     -32.551  40.227 -55.223  1.00  0.00    -0.083 N 
HETATM    4  C   UNL     1     -32.135  39.325 -54.282  1.00  0.00     0.726 A 
HETATM    5  N   UNL     1     -32.837  39.187 -53.143  1.00  0.00    -0.192 N 
HETATM    6  N   UNL     1     -31.677  40.299 -56.250  1.00  0.00    -0.141 NA
HETATM    7  C   UNL     1     -30.810  39.333 -55.911  1.00  0.00     0.162 A 
HETATM    8  C   UNL     1     -29.682  38.935 -56.777  1.00  0.00     0.096 C 
HETATM    9  N   UNL     1     -31.050  38.727 -54.700  1.00  0.00    -0.046 NA
HETATM   10  C   UNL     1     -34.011  39.882 -52.878  1.00  0.00     0.037 A 
HETATM   11  C   UNL     1     -34.690  39.551 -51.572  1.00  0.00     0.070 C 
HETATM   12  H   UNL     1     -32.544  38.482 -52.471  1.00  0.00     0.184 HD
ENDROOT
BRANCH   1  13
HETATM   13  C   UNL     1     -35.782  41.458 -53.563  1.00  0.00     0.256 C 
HETATM   14  N   UNL     1     -36.850  40.614 -53.779  1.00  0.00    -0.323 N 
HETATM   15  H   UNL     1     -36.645  39.691 -54.128  1.00  0.00     0.169 HD
HETATM   16  O   UNL     1     -35.808  42.643 -53.253  1.00  0.00    -0.267 OA
BRANCH  14  17
HETATM   17  C   UNL     1     -38.226  40.909 -53.595  1.00  0.00     0.041 A 
HETATM   18  C   UNL     1     -39.031  41.150 -54.731  1.00  0.00    -0.035 A 
HETATM   19  C   UNL     1     -38.487  41.104 -56.134  1.00  0.00     0.050 C 
HETATM   20  C   UNL     1     -40.399  41.431 -54.562  1.00  0.00     0.009 A 
HETATM   21  C   UNL     1     -40.970  41.477 -53.292  1.00  0.00     0.001 A 
HETATM   22  C   UNL     1     -40.180  41.237 -52.176  1.00  0.00     0.002 A 
HETATM   23  C   UNL     1     -38.820  40.954 -52.327  1.00  0.00     0.030 A 
ENDBRANCH  14  17
ENDBRANCH   1  13
BRANCH   2  24
HETATM   24  C   UNL     1     -34.613  41.021 -56.309  1.00  0.00    -0.028 A 
HETATM   25  C   UNL     1     -34.911  39.776 -56.884  1.00  0.00     0.012 A 
HETATM   26  C   UNL     1     -35.713  39.695 -58.024  1.00  0.00     0.037 A 
HETATM   27  C   UNL     1     -36.239  40.847 -58.608  1.00  0.00     0.068 A 
HETATM   28  C   UNL     1     -35.946  42.090 -58.048  1.00  0.00     0.037 A 
HETATM   29  C   UNL     1     -35.139  42.177 -56.906  1.00  0.00     0.012 A 
BRANCH  27  30
HETATM   30  O   UNL     1     -37.012  40.623 -59.714  1.00  0.00    -0.356 OA
HETATM   31  C   UNL     1     -36.820  39.389 -60.391  1.00  0.00     0.210 C 
ENDBRANCH  27  30
ENDBRANCH   2  24
TORSDOF 4
ENDMDL
MODEL 6
REMARK VINA RESULT:      -7.4     14.981     17.593
REMARK  4 active torsions:
REMARK  status: ('A' for Active; 'I' for Inactive)
REMARK    1  A    between atoms: C_3  and  N_4 
REMARK       I    between atoms: N_4  and  C_5 
REMARK    2  A    between atoms: C_5  and  C_6 
REMARK    3  A    between atoms: C_7  and  C_8 
REMARK    4  A    between atoms: C_11  and  O_12 
ROOT
HETATM    1  C   UNL     1     -36.199  39.946 -54.163  1.00  0.00     0.062 A 
HETATM    2  C   UNL     1     -35.834  39.548 -55.587  1.00  0.00     0.202 A 
HETATM    3  N   UNL     1     -36.435  40.461 -56.569  1.00  0.00    -0.083 N 
HETATM    4  C   UNL     1     -37.272  41.493 -56.242  1.00  0.00     0.726 A 
HETATM    5  N   UNL     1     -37.569  41.719 -54.949  1.00  0.00    -0.192 N 
HETATM    6  N   UNL     1     -36.328  40.324 -57.908  1.00  0.00    -0.141 NA
HETATM    7  C   UNL     1     -37.047  41.377 -58.326  1.00  0.00     0.162 A 
HETATM    8  C   UNL     1     -37.171  41.741 -59.752  1.00  0.00     0.096 C 
HETATM    9  N   UNL     1     -37.656  42.105 -57.331  1.00  0.00    -0.046 NA
HETATM   10  C   UNL     1     -37.028  40.987 -53.900  1.00  0.00     0.037 A 
HETATM   11  C   UNL     1     -37.433  41.426 -52.515  1.00  0.00     0.070 C 
HETATM   12  H   UNL     1     -38.156  42.516 -54.716  1.00  0.00     0.184 HD
ENDROOT
BRANCH   1  13
HETATM   13  C   UNL     1     -35.514  39.231 -53.054  1.00  0.00     0.256 C 
HETATM   14  N   UNL     1     -34.681  40.047 -52.319  1.00  0.00    -0.323 N 
HETATM   15  H   UNL     1     -34.556  40.992 -52.646  1.00  0.00     0.169 HD
HETATM   16  O   UNL     1     -35.719  38.032 -52.905  1.00  0.00    -0.267 OA
BRANCH  14  17
HETATM   17  C   UNL     1     -33.946  39.697 -51.157  1.00  0.00     0.041 A 
HETATM   18  C   UNL     1     -32.571  40.018 -51.097  1.00  0.00    -0.035 A 
HETATM   19  C   UNL     1     -31.853  40.720 -52.218  1.00  0.00     0.050 C 
HETATM   20  C   UNL     1     -31.834  39.687 -49.944  1.00  0.00     0.009 A 
HETATM   21  C   UNL     1     -32.440  39.047 -48.865  1.00  0.00     0.001 A 
HETATM   22  C   UNL     1     -33.791  38.735 -48.924  1.00  0.00     0.002 A 
HETATM   23  C   UNL     1     -34.537  39.059 -50.060  1.00  0.00     0.030 A 
ENDBRANCH  14  17
ENDBRANCH   1  13
BRANCH   2  24
HETATM   24  C   UNL     1     -34.335  39.414 -55.824  1.00  0.00    -0.028 A 
HETATM   25  C   UNL     1     -33.512  40.548 -55.746  1.00  0.00     0.012 A 
HETATM   26  C   UNL     1     -32.137  40.444 -55.967  1.00  0.00     0.037 A 
HETATM   27  C   UNL     1     -31.555  39.212 -56.264  1.00  0.00     0.068 A 
HETATM   28  C   UNL     1     -32.364  38.079 -56.350  1.00  0.00     0.037 A 
HETATM   29  C   UNL     1     -33.744  38.179 -56.131  1.00  0.00     0.012 A 
BRANCH  27  30
HETATM   30  O   UNL     1     -30.201  39.252 -56.451  1.00  0.00    -0.356 OA
HETATM   31  C   UNL     1     -29.448  38.173 -55.913  1.00  0.00     0.210 C 
ENDBRANCH  27  30
ENDBRANCH   2  24
TORSDOF 4
ENDMDL
MODEL 7
REMARK VINA RESULT:      -7.3     15.172     17.488
REMARK  4 active torsions:
REMARK  status: ('A' for Active; 'I' for Inactive)
REMARK    1  A    between atoms: C_3  and  N_4 
REMARK       I    between atoms: N_4  and  C_5 
REMARK    2  A    between atoms: C_5  and  C_6 
REMARK    3  A    between atoms: C_7  and  C_8 
REMARK    4  A    between atoms: C_11  and  O_12 
ROOT
HETATM    1  C   UNL     1     -36.405  40.742 -52.148  1.00  0.00     0.062 A 
HETATM    2  C   UNL     1     -35.066  40.434 -51.491  1.00  0.00     0.202 A 
HETATM    3  N   UNL     1     -35.238  39.604 -50.290  1.00  0.00    -0.083 N 
HETATM    4  C   UNL     1     -36.453  39.218 -49.794  1.00  0.00     0.726 A 
HETATM    5  N   UNL     1     -37.577  39.596 -50.430  1.00  0.00    -0.192 N 
HETATM    6  N   UNL     1     -34.232  39.219 -49.475  1.00  0.00    -0.141 NA
HETATM    7  C   UNL     1     -34.909  38.514 -48.557  1.00  0.00     0.162 A 
HETATM    8  C   UNL     1     -34.241  37.783 -47.461  1.00  0.00     0.096 C 
HETATM    9  N   UNL     1     -36.276  38.508 -48.710  1.00  0.00    -0.046 NA
HETATM   10  C   UNL     1     -37.579  40.324 -51.613  1.00  0.00     0.037 A 
HETATM   11  C   UNL     1     -38.936  40.602 -52.211  1.00  0.00     0.070 C 
HETATM   12  H   UNL     1     -38.472  39.266 -50.076  1.00  0.00     0.184 HD
ENDROOT
BRANCH   1  13
HETATM   13  C   UNL     1     -36.379  41.414 -53.474  1.00  0.00     0.256 C 
HETATM   14  N   UNL     1     -36.657  40.557 -54.518  1.00  0.00    -0.323 N 
HETATM   15  H   UNL     1     -36.761  39.579 -54.297  1.00  0.00     0.169 HD
HETATM   16  O   UNL     1     -36.107  42.607 -53.530  1.00  0.00    -0.267 OA
BRANCH  14  17
HETATM   17  C   UNL     1     -36.786  40.893 -55.890  1.00  0.00     0.041 A 
HETATM   18  C   UNL     1     -35.621  41.196 -56.631  1.00  0.00    -0.035 A 
HETATM   19  C   UNL     1     -34.245  41.173 -56.022  1.00  0.00     0.050 C 
HETATM   20  C   UNL     1     -35.734  41.518 -57.996  1.00  0.00     0.009 A 
HETATM   21  C   UNL     1     -36.977  41.545 -58.626  1.00  0.00     0.001 A 
HETATM   22  C   UNL     1     -38.121  41.246 -57.898  1.00  0.00     0.002 A 
HETATM   23  C   UNL     1     -38.025  40.921 -56.543  1.00  0.00     0.030 A 
ENDBRANCH  14  17
ENDBRANCH   1  13
BRANCH   2  24
HETATM   24  C   UNL     1     -34.045  39.811 -52.434  1.00  0.00    -0.028 A 
HETATM   25  C   UNL     1     -32.833  40.472 -52.686  1.00  0.00     0.012 A 
HETATM   26  C   UNL     1     -31.890  39.919 -53.554  1.00  0.00     0.037 A 
HETATM   27  C   UNL     1     -32.130  38.696 -54.181  1.00  0.00     0.068 A 
HETATM   28  C   UNL     1     -33.332  38.033 -53.942  1.00  0.00     0.037 A 
HETATM   29  C   UNL     1     -34.284  38.585 -53.075  1.00  0.00     0.012 A 
BRANCH  27  30
HETATM   30  O   UNL     1     -31.120  38.267 -54.998  1.00  0.00    -0.356 OA
HETATM   31  C   UNL     1     -30.641  39.193 -55.965  1.00  0.00     0.210 C 
ENDBRANCH  27  30
ENDBRANCH   2  24
TORSDOF 4
ENDMDL
MODEL 8
REMARK VINA RESULT:      -7.3      2.938      5.988
REMARK  4 active torsions:
REMARK  status: ('A' for Active; 'I' for Inactive)
REMARK    1  A    between atoms: C_3  and  N_4 
REMARK       I    between atoms: N_4  and  C_5 
REMARK    2  A    between atoms: C_5  and  C_6 
REMARK    3  A    between atoms: C_7  and  C_8 
REMARK    4  A    between atoms: C_11  and  O_12 
ROOT
HETATM    1  C   UNL     1     -42.656  58.633 -55.708  1.00  0.00     0.062 A 
HETATM    2  C   UNL     1     -41.642  58.061 -54.725  1.00  0.00     0.202 A 
HETATM    3  N   UNL     1     -41.769  58.687 -53.402  1.00  0.00    -0.083 N 
HETATM    4  C   UNL     1     -42.642  59.701 -53.114  1.00  0.00     0.726 A 
HETATM    5  N   UNL     1     -43.457  60.164 -54.080  1.00  0.00    -0.192 N 
HETATM    6  N   UNL     1     -40.968  58.418 -52.348  1.00  0.00    -0.141 NA
HETATM    7  C   UNL     1     -41.486  59.240 -51.423  1.00  0.00     0.162 A 
HETATM    8  C   UNL     1     -41.012  59.266 -50.024  1.00  0.00     0.096 C 
HETATM    9  N   UNL     1     -42.502  60.055 -51.864  1.00  0.00    -0.046 NA
HETATM   10  C   UNL     1     -43.504  59.633 -55.362  1.00  0.00     0.037 A 
HETATM   11  C   UNL     1     -44.525  60.245 -56.289  1.00  0.00     0.070 C 
HETATM   12  H   UNL     1     -44.131  60.887 -53.842  1.00  0.00     0.184 HD
ENDROOT
BRANCH   1  13
HETATM   13  C   UNL     1     -42.776  57.968 -57.033  1.00  0.00     0.256 C 
HETATM   14  N   UNL     1     -43.937  57.237 -57.166  1.00  0.00    -0.323 N 
HETATM   15  H   UNL     1     -44.526  57.155 -56.353  1.00  0.00     0.169 HD
HETATM   16  O   UNL     1     -41.871  58.102 -57.847  1.00  0.00    -0.267 OA
BRANCH  14  17
HETATM   17  C   UNL     1     -44.388  56.551 -58.323  1.00  0.00     0.041 A 
HETATM   18  C   UNL     1     -45.555  57.007 -58.976  1.00  0.00    -0.035 A 
HETATM   19  C   UNL     1     -46.340  58.198 -58.494  1.00  0.00     0.050 C 
HETATM   20  C   UNL     1     -46.005  56.343 -60.132  1.00  0.00     0.009 A 
HETATM   21  C   UNL     1     -45.319  55.241 -60.639  1.00  0.00     0.001 A 
HETATM   22  C   UNL     1     -44.171  54.794 -59.999  1.00  0.00     0.002 A 
HETATM   23  C   UNL     1     -43.710  55.445 -58.852  1.00  0.00     0.030 A 
ENDBRANCH  14  17
ENDBRANCH   1  13
BRANCH   2  24
HETATM   24  C   UNL     1     -41.684  56.543 -54.609  1.00  0.00    -0.028 A 
HETATM   25  C   UNL     1     -40.548  55.786 -54.936  1.00  0.00     0.012 A 
HETATM   26  C   UNL     1     -40.572  54.393 -54.842  1.00  0.00     0.037 A 
HETATM   27  C   UNL     1     -41.721  53.728 -54.415  1.00  0.00     0.068 A 
HETATM   28  C   UNL     1     -42.857  54.469 -54.093  1.00  0.00     0.037 A 
HETATM   29  C   UNL     1     -42.840  55.866 -54.188  1.00  0.00     0.012 A 
BRANCH  27  30
HETATM   30  O   UNL     1     -41.605  52.366 -54.362  1.00  0.00    -0.356 OA
HETATM   31  C   UNL     1     -40.294  51.842 -54.193  1.00  0.00     0.210 C 
ENDBRANCH  27  30
ENDBRANCH   2  24
TORSDOF 4
ENDMDL
MODEL 9
REMARK VINA RESULT:      -7.1      2.459      4.355
REMARK  4 active torsions:
REMARK  status: ('A' for Active; 'I' for Inactive)
REMARK    1  A    between atoms: C_3  and  N_4 
REMARK       I    between atoms: N_4  and  C_5 
REMARK    2  A    between atoms: C_5  and  C_6 
REMARK    3  A    between atoms: C_7  and  C_8 
REMARK    4  A    between atoms: C_11  and  O_12 
ROOT
HETATM    1  C   UNL     1     -42.419  56.964 -54.898  1.00  0.00     0.062 A 
HETATM    2  C   UNL     1     -42.738  58.452 -54.956  1.00  0.00     0.202 A 
HETATM    3  N   UNL     1     -43.789  58.736 -55.943  1.00  0.00    -0.083 N 
HETATM    4  C   UNL     1     -44.356  57.788 -56.751  1.00  0.00     0.726 A 
HETATM    5  N   UNL     1     -43.957  56.507 -56.648  1.00  0.00    -0.192 N 
HETATM    6  N   UNL     1     -44.239  59.972 -56.249  1.00  0.00    -0.141 NA
HETATM    7  C   UNL     1     -45.155  59.681 -57.185  1.00  0.00     0.162 A 
HETATM    8  C   UNL     1     -46.022  60.708 -57.797  1.00  0.00     0.096 C 
HETATM    9  N   UNL     1     -45.241  58.353 -57.531  1.00  0.00    -0.046 NA
HETATM   10  C   UNL     1     -43.022  56.069 -55.719  1.00  0.00     0.037 A 
HETATM   11  C   UNL     1     -42.746  54.586 -55.714  1.00  0.00     0.070 C 
HETATM   12  H   UNL     1     -44.418  55.806 -57.223  1.00  0.00     0.184 HD
ENDROOT
BRANCH   1  13
HETATM   13  C   UNL     1     -41.511  56.500 -53.816  1.00  0.00     0.256 C 
HETATM   14  N   UNL     1     -42.165  55.796 -52.827  1.00  0.00    -0.323 N 
HETATM   15  H   UNL     1     -43.170  55.742 -52.887  1.00  0.00     0.169 HD
HETATM   16  O   UNL     1     -40.321  56.783 -53.878  1.00  0.00    -0.267 OA
BRANCH  14  17
HETATM   17  C   UNL     1     -41.582  55.156 -51.703  1.00  0.00     0.041 A 
HETATM   18  C   UNL     1     -40.929  53.916 -51.886  1.00  0.00    -0.035 A 
HETATM   19  C   UNL     1     -40.824  53.246 -53.229  1.00  0.00     0.050 C 
HETATM   20  C   UNL     1     -40.336  53.278 -50.781  1.00  0.00     0.009 A 
HETATM   21  C   UNL     1     -40.386  53.849 -49.511  1.00  0.00     0.001 A 
HETATM   22  C   UNL     1     -41.025  55.069 -49.332  1.00  0.00     0.002 A 
HETATM   23  C   UNL     1     -41.617  55.716 -50.420  1.00  0.00     0.030 A 
ENDBRANCH  14  17
ENDBRANCH   1  13
BRANCH   2  24
HETATM   24  C   UNL     1     -43.089  59.061 -53.605  1.00  0.00    -0.028 A 
HETATM   25  C   UNL     1     -44.289  58.707 -52.970  1.00  0.00     0.012 A 
HETATM   26  C   UNL     1     -44.629  59.262 -51.735  1.00  0.00     0.037 A 
HETATM   27  C   UNL     1     -43.781  60.172 -51.105  1.00  0.00     0.068 A 
HETATM   28  C   UNL     1     -42.588  60.535 -51.729  1.00  0.00     0.037 A 
HETATM   29  C   UNL     1     -42.243  59.984 -52.969  1.00  0.00     0.012 A 
BRANCH  27  30
HETATM   30  O   UNL     1     -44.233  60.631 -49.898  1.00  0.00    -0.356 OA
HETATM   31  C   UNL     1     -44.326  62.041 -49.744  1.00  0.00     0.210 C 
ENDBRANCH  27  30
ENDBRANCH   2  24
TORSDOF 4
ENDMDL
MODEL 10
REMARK VINA RESULT:      -7.0      2.712      5.565
REMARK  4 active torsions:
REMARK  status: ('A' for Active; 'I' for Inactive)
REMARK    1  A    between atoms: C_3  and  N_4 
REMARK       I    between atoms: N_4  and  C_5 
REMARK    2  A    between atoms: C_5  and  C_6 
REMARK    3  A    between atoms: C_7  and  C_8 
REMARK    4  A    between atoms: C_11  and  O_12 
ROOT
HETATM    1  C   UNL     1     -42.905  58.241 -53.012  1.00  0.00     0.062 A 
HETATM    2  C   UNL     1     -43.777  58.980 -54.018  1.00  0.00     0.202 A 
HETATM    3  N   UNL     1     -43.666  60.436 -53.855  1.00  0.00    -0.083 N 
HETATM    4  C   UNL     1     -42.924  61.042 -52.878  1.00  0.00     0.726 A 
HETATM    5  N   UNL     1     -42.233  60.284 -52.007  1.00  0.00    -0.192 N 
HETATM    6  N   UNL     1     -44.364  61.342 -54.572  1.00  0.00    -0.141 NA
HETATM    7  C   UNL     1     -43.914  62.487 -54.037  1.00  0.00     0.162 A 
HETATM    8  C   UNL     1     -44.311  63.815 -54.546  1.00  0.00     0.096 C 
HETATM    9  N   UNL     1     -43.043  62.340 -52.983  1.00  0.00    -0.046 NA
HETATM   10  C   UNL     1     -42.183  58.898 -52.070  1.00  0.00     0.037 A 
HETATM   11  C   UNL     1     -41.307  58.224 -51.043  1.00  0.00     0.070 C 
HETATM   12  H   UNL     1     -41.651  60.748 -51.313  1.00  0.00     0.184 HD
ENDROOT
BRANCH   1  13
HETATM   13  C   UNL     1     -42.768  56.769 -53.174  1.00  0.00     0.256 C 
HETATM   14  N   UNL     1     -41.480  56.377 -53.469  1.00  0.00    -0.323 N 
HETATM   15  H   UNL     1     -40.801  57.105 -53.627  1.00  0.00     0.169 HD
HETATM   16  O   UNL     1     -43.763  56.064 -53.058  1.00  0.00    -0.267 OA
BRANCH  14  17
HETATM   17  C   UNL     1     -41.000  55.049 -53.610  1.00  0.00     0.041 A 
HETATM   18  C   UNL     1     -40.832  54.258 -52.451  1.00  0.00    -0.035 A 
HETATM   19  C   UNL     1     -41.146  54.767 -51.070  1.00  0.00     0.050 C 
HETATM   20  C   UNL     1     -40.370  52.935 -52.579  1.00  0.00     0.009 A 
HETATM   21  C   UNL     1     -40.072  52.397 -53.829  1.00  0.00     0.001 A 
HETATM   22  C   UNL     1     -40.240  53.173 -54.967  1.00  0.00     0.002 A 
HETATM   23  C   UNL     1     -40.701  54.488 -54.858  1.00  0.00     0.030 A 
ENDBRANCH  14  17
ENDBRANCH   1  13
BRANCH   2  24
HETATM   24  C   UNL     1     -43.524  58.579 -55.466  1.00  0.00    -0.028 A 
HETATM   25  C   UNL     1     -44.520  57.906 -56.189  1.00  0.00     0.012 A 
HETATM   26  C   UNL     1     -44.302  57.526 -57.514  1.00  0.00     0.037 A 
HETATM   27  C   UNL     1     -43.092  57.811 -58.147  1.00  0.00     0.068 A 
HETATM   28  C   UNL     1     -42.092  58.475 -57.437  1.00  0.00     0.037 A 
HETATM   29  C   UNL     1     -42.306  58.857 -56.106  1.00  0.00     0.012 A 
BRANCH  27  30
HETATM   30  O   UNL     1     -43.014  57.389 -59.445  1.00  0.00    -0.356 OA
HETATM   31  C   UNL     1     -42.726  56.013 -59.655  1.00  0.00     0.210 C 
ENDBRANCH  27  30
ENDBRANCH   2  24
TORSDOF 4
ENDMDL
