MODEL 1
REMARK VINA RESULT:      -7.7      0.000      0.000
REMARK  8 active torsions:
REMARK  status: ('A' for Active; 'I' for Inactive)
REMARK    1  A    between atoms: O_2  and  C_3 
REMARK    2  A    between atoms: C_6  and  N_7 
REMARK    3  A    between atoms: N_7  and  C_8 
REMARK    4  A    between atoms: C_8  and  C_9 
REMARK    5  A    between atoms: C_9  and  C_10 
REMARK    6  A    between atoms: C_10  and  C_11 
REMARK       I    between atoms: C_11  and  N_12 
REMARK    7  A    between atoms: N_12  and  N_13 
REMARK    8  A    between atoms: C_14  and  C_15 
ROOT
HETATM    1  C   UNL     1     -41.029  58.470 -53.616  1.00  0.00     0.237 C 
HETATM    2  N   UNL     1     -41.429  57.162 -53.858  1.00  0.00    -0.247 N 
HETATM    3  O   UNL     1     -40.259  58.818 -52.727  1.00  0.00    -0.272 OA
HETATM    4  H   UNL     1     -42.063  56.938 -54.617  1.00  0.00     0.192 HD
ENDROOT
BRANCH   1   5
HETATM    5  C   UNL     1     -41.658  59.454 -54.587  1.00  0.00     0.106 C 
BRANCH   5   6
HETATM    6  C   UNL     1     -42.704  58.772 -55.467  1.00  0.00     0.029 C 
BRANCH   6   7
HETATM    7  C   UNL     1     -42.334  58.814 -56.949  1.00  0.00     0.120 C 
BRANCH   7   8
HETATM    8  N   UNL     1     -42.262  57.450 -57.456  1.00  0.00    -0.390 N 
HETATM    9  H   UNL     1     -42.072  56.763 -56.728  1.00  0.00     0.159 HD
BRANCH   8  10
HETATM   10  C   UNL     1     -43.200  56.981 -58.376  1.00  0.00     0.028 A 
HETATM   11  C   UNL     1     -42.975  55.901 -59.235  1.00  0.00     0.032 A 
HETATM   12  C   UNL     1     -43.985  55.416 -60.080  1.00  0.00     0.039 A 
HETATM   13  C   UNL     1     -45.253  55.992 -60.063  1.00  0.00     0.068 A 
HETATM   14  C   UNL     1     -45.501  57.047 -59.189  1.00  0.00     0.039 A 
HETATM   15  C   UNL     1     -44.492  57.522 -58.345  1.00  0.00     0.032 A 
BRANCH  13  16
HETATM   16  O   UNL     1     -46.323  55.618 -60.828  1.00  0.00    -0.356 OA
HETATM   17  C   UNL     1     -47.344  56.589 -61.021  1.00  0.00     0.210 C 
ENDBRANCH  13  16
ENDBRANCH   8  10
ENDBRANCH   7   8
ENDBRANCH   6   7
ENDBRANCH   5   6
ENDBRANCH   1   5
BRANCH   2  18
HETATM   18  N   UNL     1     -40.969  56.169 -53.044  1.00  0.00    -0.184 NA
HETATM   19  C   UNL     1     -41.066  54.958 -53.486  1.00  0.00     0.152 C 
BRANCH  19  20
HETATM   20  C   UNL     1     -40.604  53.868 -52.653  1.00  0.00     0.011 A 
HETATM   21  C   UNL     1     -40.315  52.521 -53.046  1.00  0.00     0.004 A 
HETATM   22  C   UNL     1     -39.907  51.831 -51.901  1.00  0.00     0.043 A 
HETATM   23  C   UNL     1     -40.357  51.817 -54.268  1.00  0.00     0.014 A 
HETATM   24  C   UNL     1     -39.545  50.479 -51.915  1.00  0.00     0.030 A 
HETATM   25  N   UNL     1     -39.946  52.722 -50.854  1.00  0.00    -0.364 N 
HETATM   26  C   UNL     1     -39.597  49.808 -53.139  1.00  0.00     0.002 A 
HETATM   27  C   UNL     1     -39.996  50.464 -54.300  1.00  0.00     0.001 A 
HETATM   28  H   UNL     1     -39.702  52.499 -49.899  1.00  0.00     0.165 HD
HETATM   29  C   UNL     1     -40.361  53.947 -51.293  1.00  0.00     0.102 A 
ENDBRANCH  19  20
ENDBRANCH   2  18
TORSDOF 8
ENDMDL
MODEL 2
REMARK VINA RESULT:      -7.7      3.594      6.510
REMARK  8 active torsions:
REMARK  status: ('A' for Active; 'I' for Inactive)
REMARK    1  A    between atoms: O_2  and  C_3 
REMARK    2  A    between atoms: C_6  and  N_7 
REMARK    3  A    between atoms: N_7  and  C_8 
REMARK    4  A    between atoms: C_8  and  C_9 
REMARK    5  A    between atoms: C_9  and  C_10 
REMARK    6  A    between atoms: C_10  and  C_11 
REMARK       I    between atoms: C_11  and  N_12 
REMARK    7  A    between atoms: N_12  and  N_13 
REMARK    8  A    between atoms: C_14  and  C_15 
ROOT
HETATM    1  C   UNL     1     -43.148  55.522 -54.515  1.00  0.00     0.237 C 
HETATM    2  N   UNL     1     -41.861  55.231 -54.080  1.00  0.00    -0.247 N 
HETATM    3  O   UNL     1     -44.064  54.710 -54.599  1.00  0.00    -0.272 OA
HETATM    4  H   UNL     1     -41.151  55.951 -54.025  1.00  0.00     0.192 HD
ENDROOT
BRANCH   1   5
HETATM    5  C   UNL     1     -43.314  56.984 -54.888  1.00  0.00     0.106 C 
BRANCH   5   6
HETATM    6  C   UNL     1     -44.592  57.568 -54.289  1.00  0.00     0.029 C 
BRANCH   6   7
HETATM    7  C   UNL     1     -44.362  58.174 -52.906  1.00  0.00     0.120 C 
BRANCH   7   8
HETATM    8  N   UNL     1     -44.650  57.164 -51.895  1.00  0.00    -0.390 N 
HETATM    9  H   UNL     1     -45.369  56.503 -52.184  1.00  0.00     0.159 HD
BRANCH   8  10
HETATM   10  C   UNL     1     -43.615  56.532 -51.204  1.00  0.00     0.028 A 
HETATM   11  C   UNL     1     -43.629  55.180 -50.849  1.00  0.00     0.032 A 
HETATM   12  C   UNL     1     -42.524  54.575 -50.230  1.00  0.00     0.039 A 
HETATM   13  C   UNL     1     -41.369  55.312 -49.978  1.00  0.00     0.068 A 
HETATM   14  C   UNL     1     -41.330  56.652 -50.356  1.00  0.00     0.039 A 
HETATM   15  C   UNL     1     -42.432  57.247 -50.977  1.00  0.00     0.032 A 
BRANCH  13  16
HETATM   16  O   UNL     1     -40.226  54.849 -49.387  1.00  0.00    -0.356 OA
HETATM   17  C   UNL     1     -40.378  54.134 -48.167  1.00  0.00     0.210 C 
ENDBRANCH  13  16
ENDBRANCH   8  10
ENDBRANCH   7   8
ENDBRANCH   6   7
ENDBRANCH   5   6
ENDBRANCH   1   5
BRANCH   2  18
HETATM   18  N   UNL     1     -41.554  53.946 -53.739  1.00  0.00    -0.184 NA
HETATM   19  C   UNL     1     -40.467  53.454 -54.236  1.00  0.00     0.152 C 
BRANCH  19  20
HETATM   20  C   UNL     1     -40.105  52.089 -53.915  1.00  0.00     0.011 A 
HETATM   21  C   UNL     1     -40.028  51.480 -52.621  1.00  0.00     0.004 A 
HETATM   22  C   UNL     1     -39.633  50.152 -52.807  1.00  0.00     0.043 A 
HETATM   23  C   UNL     1     -40.259  51.928 -51.303  1.00  0.00     0.014 A 
HETATM   24  C   UNL     1     -39.455  49.255 -51.748  1.00  0.00     0.030 A 
HETATM   25  N   UNL     1     -39.477  49.961 -54.161  1.00  0.00    -0.364 N 
HETATM   26  C   UNL     1     -39.691  49.726 -50.454  1.00  0.00     0.002 A 
HETATM   27  C   UNL     1     -40.087  51.041 -50.232  1.00  0.00     0.001 A 
HETATM   28  H   UNL     1     -39.194  49.091 -54.590  1.00  0.00     0.165 HD
HETATM   29  C   UNL     1     -39.758  51.116 -54.835  1.00  0.00     0.102 A 
ENDBRANCH  19  20
ENDBRANCH   2  18
TORSDOF 8
ENDMDL
MODEL 3
REMARK VINA RESULT:      -7.6      2.538      4.927
REMARK  8 active torsions:
REMARK  status: ('A' for Active; 'I' for Inactive)
REMARK    1  A    between atoms: O_2  and  C_3 
REMARK    2  A    between atoms: C_6  and  N_7 
REMARK    3  A    between atoms: N_7  and  C_8 
REMARK    4  A    between atoms: C_8  and  C_9 
REMARK    5  A    between atoms: C_9  and  C_10 
REMARK    6  A    between atoms: C_10  and  C_11 
REMARK       I    between atoms: C_11  and  N_12 
REMARK    7  A    between atoms: N_12  and  N_13 
REMARK    8  A    between atoms: C_14  and  C_15 
ROOT
HETATM    1  C   UNL     1     -42.865  55.999 -55.956  1.00  0.00     0.237 C 
HETATM    2  N   UNL     1     -41.787  55.127 -56.039  1.00  0.00    -0.247 N 
HETATM    3  O   UNL     1     -43.659  56.051 -55.021  1.00  0.00    -0.272 OA
HETATM    4  H   UNL     1     -41.162  55.141 -56.836  1.00  0.00     0.192 HD
ENDROOT
BRANCH   1   5
HETATM    5  C   UNL     1     -42.969  56.905 -57.170  1.00  0.00     0.106 C 
BRANCH   5   6
HETATM    6  C   UNL     1     -43.307  58.338 -56.764  1.00  0.00     0.029 C 
BRANCH   6   7
HETATM    7  C   UNL     1     -42.062  59.212 -56.623  1.00  0.00     0.120 C 
BRANCH   7   8
HETATM    8  N   UNL     1     -42.107  59.893 -55.336  1.00  0.00    -0.390 N 
HETATM    9  H   UNL     1     -42.682  60.733 -55.348  1.00  0.00     0.159 HD
BRANCH   8  10
HETATM   10  C   UNL     1     -42.275  59.171 -54.153  1.00  0.00     0.028 A 
HETATM   11  C   UNL     1     -43.472  59.123 -53.433  1.00  0.00     0.032 A 
HETATM   12  C   UNL     1     -43.609  58.311 -52.296  1.00  0.00     0.039 A 
HETATM   13  C   UNL     1     -42.552  57.510 -51.872  1.00  0.00     0.068 A 
HETATM   14  C   UNL     1     -41.364  57.524 -52.598  1.00  0.00     0.039 A 
HETATM   15  C   UNL     1     -41.235  58.330 -53.733  1.00  0.00     0.032 A 
BRANCH  13  16
HETATM   16  O   UNL     1     -42.552  56.675 -50.789  1.00  0.00    -0.356 OA
HETATM   17  C   UNL     1     -43.351  55.503 -50.882  1.00  0.00     0.210 C 
ENDBRANCH  13  16
ENDBRANCH   8  10
ENDBRANCH   7   8
ENDBRANCH   6   7
ENDBRANCH   5   6
ENDBRANCH   1   5
BRANCH   2  18
HETATM   18  N   UNL     1     -41.585  54.229 -55.032  1.00  0.00    -0.184 NA
HETATM   19  C   UNL     1     -40.592  54.458 -54.236  1.00  0.00     0.152 C 
BRANCH  19  20
HETATM   20  C   UNL     1     -40.327  53.525 -53.160  1.00  0.00     0.011 A 
HETATM   21  C   UNL     1     -40.077  52.118 -53.258  1.00  0.00     0.004 A 
HETATM   22  C   UNL     1     -39.881  51.638 -51.960  1.00  0.00     0.043 A 
HETATM   23  C   UNL     1     -39.995  51.201 -54.327  1.00  0.00     0.014 A 
HETATM   24  C   UNL     1     -39.612  50.295 -51.677  1.00  0.00     0.030 A 
HETATM   25  N   UNL     1     -40.006  52.711 -51.107  1.00  0.00    -0.364 N 
HETATM   26  C   UNL     1     -39.537  49.408 -52.755  1.00  0.00     0.002 A 
HETATM   27  C   UNL     1     -39.725  49.852 -54.061  1.00  0.00     0.001 A 
HETATM   28  H   UNL     1     -39.914  52.661 -50.102  1.00  0.00     0.165 HD
HETATM   29  C   UNL     1     -40.272  53.847 -51.816  1.00  0.00     0.102 A 
ENDBRANCH  19  20
ENDBRANCH   2  18
TORSDOF 8
ENDMDL
MODEL 4
REMARK VINA RESULT:      -7.6      1.427      1.754
REMARK  8 active torsions:
REMARK  status: ('A' for Active; 'I' for Inactive)
REMARK    1  A    between atoms: O_2  and  C_3 
REMARK    2  A    between atoms: C_6  and  N_7 
REMARK    3  A    between atoms: N_7  and  C_8 
REMARK    4  A    between atoms: C_8  and  C_9 
REMARK    5  A    between atoms: C_9  and  C_10 
REMARK    6  A    between atoms: C_10  and  C_11 
REMARK       I    between atoms: C_11  and  N_12 
REMARK    7  A    between atoms: N_12  and  N_13 
REMARK    8  A    between atoms: C_14  and  C_15 
ROOT
HETATM    1  C   UNL     1     -41.325  59.166 -53.057  1.00  0.00     0.237 C 
HETATM    2  N   UNL     1     -41.953  58.108 -52.413  1.00  0.00    -0.247 N 
HETATM    3  O   UNL     1     -40.134  59.205 -53.352  1.00  0.00    -0.272 OA
HETATM    4  H   UNL     1     -42.945  58.135 -52.205  1.00  0.00     0.192 HD
ENDROOT
BRANCH   1   5
HETATM    5  C   UNL     1     -42.282  60.303 -53.366  1.00  0.00     0.106 C 
BRANCH   5   6
HETATM    6  C   UNL     1     -42.357  60.570 -54.869  1.00  0.00     0.029 C 
BRANCH   6   7
HETATM    7  C   UNL     1     -42.970  59.401 -55.637  1.00  0.00     0.120 C 
BRANCH   7   8
HETATM    8  N   UNL     1     -42.031  58.970 -56.665  1.00  0.00    -0.390 N 
HETATM    9  H   UNL     1     -41.118  58.716 -56.291  1.00  0.00     0.159 HD
BRANCH   8  10
HETATM   10  C   UNL     1     -42.433  58.099 -57.678  1.00  0.00     0.028 A 
HETATM   11  C   UNL     1     -42.050  58.231 -59.016  1.00  0.00     0.032 A 
HETATM   12  C   UNL     1     -42.414  57.276 -59.979  1.00  0.00     0.039 A 
HETATM   13  C   UNL     1     -43.152  56.153 -59.612  1.00  0.00     0.068 A 
HETATM   14  C   UNL     1     -43.514  55.993 -58.276  1.00  0.00     0.039 A 
HETATM   15  C   UNL     1     -43.144  56.945 -57.321  1.00  0.00     0.032 A 
BRANCH  13  16
HETATM   16  O   UNL     1     -43.569  55.151 -60.443  1.00  0.00    -0.356 OA
HETATM   17  C   UNL     1     -44.926  55.191 -60.866  1.00  0.00     0.210 C 
ENDBRANCH  13  16
ENDBRANCH   8  10
ENDBRANCH   7   8
ENDBRANCH   6   7
ENDBRANCH   5   6
ENDBRANCH   1   5
BRANCH   2  18
HETATM   18  N   UNL     1     -41.211  57.025 -52.042  1.00  0.00    -0.184 NA
HETATM   19  C   UNL     1     -41.806  55.877 -52.053  1.00  0.00     0.152 C 
BRANCH  19  20
HETATM   20  C   UNL     1     -41.065  54.699 -51.653  1.00  0.00     0.011 A 
HETATM   21  C   UNL     1     -40.671  53.590 -52.469  1.00  0.00     0.004 A 
HETATM   22  C   UNL     1     -39.981  52.693 -51.648  1.00  0.00     0.043 A 
HETATM   23  C   UNL     1     -40.830  53.258 -53.831  1.00  0.00     0.014 A 
HETATM   24  C   UNL     1     -39.449  51.487 -52.116  1.00  0.00     0.030 A 
HETATM   25  N   UNL     1     -39.956  53.236 -50.384  1.00  0.00    -0.364 N 
HETATM   26  C   UNL     1     -39.622  51.184 -53.469  1.00  0.00     0.002 A 
HETATM   27  C   UNL     1     -40.302  52.055 -54.316  1.00  0.00     0.001 A 
HETATM   28  H   UNL     1     -39.522  52.804 -49.581  1.00  0.00     0.165 HD
HETATM   29  C   UNL     1     -40.602  54.440 -50.376  1.00  0.00     0.102 A 
ENDBRANCH  19  20
ENDBRANCH   2  18
TORSDOF 8
ENDMDL
MODEL 5
REMARK VINA RESULT:      -7.5      2.634      3.977
REMARK  8 active torsions:
REMARK  status: ('A' for Active; 'I' for Inactive)
REMARK    1  A    between atoms: O_2  and  C_3 
REMARK    2  A    between atoms: C_6  and  N_7 
REMARK    3  A    between atoms: N_7  and  C_8 
REMARK    4  A    between atoms: C_8  and  C_9 
REMARK    5  A    between atoms: C_9  and  C_10 
REMARK    6  A    between atoms: C_10  and  C_11 
REMARK       I    between atoms: C_11  and  N_12 
REMARK    7  A    between atoms: N_12  and  N_13 
REMARK    8  A    between atoms: C_14  and  C_15 
ROOT
HETATM    1  C   UNL     1     -40.820  59.138 -50.833  1.00  0.00     0.237 C 
HETATM    2  N   UNL     1     -41.384  58.058 -50.166  1.00  0.00    -0.247 N 
HETATM    3  O   UNL     1     -39.848  59.077 -51.579  1.00  0.00    -0.272 OA
HETATM    4  H   UNL     1     -42.195  58.174 -49.569  1.00  0.00     0.192 HD
ENDROOT
BRANCH   1   5
HETATM    5  C   UNL     1     -41.545  60.440 -50.537  1.00  0.00     0.106 C 
BRANCH   5   6
HETATM    6  C   UNL     1     -43.059  60.240 -50.524  1.00  0.00     0.029 C 
BRANCH   6   7
HETATM    7  C   UNL     1     -43.642  60.115 -51.930  1.00  0.00     0.120 C 
BRANCH   7   8
HETATM    8  N   UNL     1     -44.093  58.745 -52.132  1.00  0.00    -0.390 N 
HETATM    9  H   UNL     1     -45.084  58.617 -51.935  1.00  0.00     0.159 HD
BRANCH   8  10
HETATM   10  C   UNL     1     -43.694  58.021 -53.257  1.00  0.00     0.028 A 
HETATM   11  C   UNL     1     -42.587  58.352 -54.043  1.00  0.00     0.032 A 
HETATM   12  C   UNL     1     -42.180  57.539 -55.113  1.00  0.00     0.039 A 
HETATM   13  C   UNL     1     -42.864  56.361 -55.400  1.00  0.00     0.068 A 
HETATM   14  C   UNL     1     -43.950  56.002 -54.605  1.00  0.00     0.039 A 
HETATM   15  C   UNL     1     -44.347  56.813 -53.538  1.00  0.00     0.032 A 
BRANCH  13  16
HETATM   16  O   UNL     1     -42.574  55.480 -56.406  1.00  0.00    -0.356 OA
HETATM   17  C   UNL     1     -43.036  55.818 -57.707  1.00  0.00     0.210 C 
ENDBRANCH  13  16
ENDBRANCH   8  10
ENDBRANCH   7   8
ENDBRANCH   6   7
ENDBRANCH   5   6
ENDBRANCH   1   5
BRANCH   2  18
HETATM   18  N   UNL     1     -40.819  56.825 -50.311  1.00  0.00    -0.184 NA
HETATM   19  C   UNL     1     -41.559  55.900 -50.830  1.00  0.00     0.152 C 
BRANCH  19  20
HETATM   20  C   UNL     1     -41.010  54.570 -50.991  1.00  0.00     0.011 A 
HETATM   21  C   UNL     1     -40.687  53.893 -52.211  1.00  0.00     0.004 A 
HETATM   22  C   UNL     1     -40.191  52.632 -51.870  1.00  0.00     0.043 A 
HETATM   23  C   UNL     1     -40.765  54.231 -53.579  1.00  0.00     0.014 A 
HETATM   24  C   UNL     1     -39.775  51.694 -52.821  1.00  0.00     0.030 A 
HETATM   25  N   UNL     1     -40.211  52.546 -50.497  1.00  0.00    -0.364 N 
HETATM   26  C   UNL     1     -39.863  52.055 -54.168  1.00  0.00     0.002 A 
HETATM   27  C   UNL     1     -40.350  53.304 -54.545  1.00  0.00     0.001 A 
HETATM   28  H   UNL     1     -39.907  51.741 -49.966  1.00  0.00     0.165 HD
HETATM   29  C   UNL     1     -40.699  53.703 -49.960  1.00  0.00     0.102 A 
ENDBRANCH  19  20
ENDBRANCH   2  18
TORSDOF 8
ENDMDL
MODEL 6
REMARK VINA RESULT:      -7.1      2.627      3.839
REMARK  8 active torsions:
REMARK  status: ('A' for Active; 'I' for Inactive)
REMARK    1  A    between atoms: O_2  and  C_3 
REMARK    2  A    between atoms: C_6  and  N_7 
REMARK    3  A    between atoms: N_7  and  C_8 
REMARK    4  A    between atoms: C_8  and  C_9 
REMARK    5  A    between atoms: C_9  and  C_10 
REMARK    6  A    between atoms: C_10  and  C_11 
REMARK       I    between atoms: C_11  and  N_12 
REMARK    7  A    between atoms: N_12  and  N_13 
REMARK    8  A    between atoms: C_14  and  C_15 
ROOT
HETATM    1  C   UNL     1     -43.108  56.459 -57.337  1.00  0.00     0.237 C 
HETATM    2  N   UNL     1     -42.199  55.462 -57.007  1.00  0.00    -0.247 N 
HETATM    3  O   UNL     1     -43.871  57.007 -56.547  1.00  0.00    -0.272 OA
HETATM    4  H   UNL     1     -41.589  55.055 -57.706  1.00  0.00     0.192 HD
ENDROOT
BRANCH   1   5
HETATM    5  C   UNL     1     -43.065  56.813 -58.813  1.00  0.00     0.106 C 
BRANCH   5   6
HETATM    6  C   UNL     1     -43.570  55.656 -59.674  1.00  0.00     0.029 C 
BRANCH   6   7
HETATM    7  C   UNL     1     -44.972  55.909 -60.224  1.00  0.00     0.120 C 
BRANCH   7   8
HETATM    8  N   UNL     1     -45.858  56.247 -59.117  1.00  0.00    -0.390 N 
HETATM    9  H   UNL     1     -45.437  56.082 -58.204  1.00  0.00     0.159 HD
BRANCH   8  10
HETATM   10  C   UNL     1     -46.605  57.425 -59.135  1.00  0.00     0.028 A 
HETATM   11  C   UNL     1     -46.990  58.121 -57.986  1.00  0.00     0.032 A 
HETATM   12  C   UNL     1     -47.667  59.348 -58.066  1.00  0.00     0.039 A 
HETATM   13  C   UNL     1     -47.952  59.915 -59.306  1.00  0.00     0.068 A 
HETATM   14  C   UNL     1     -47.546  59.248 -60.459  1.00  0.00     0.039 A 
HETATM   15  C   UNL     1     -46.867  58.029 -60.373  1.00  0.00     0.032 A 
BRANCH  13  16
HETATM   16  O   UNL     1     -48.600  61.098 -59.526  1.00  0.00    -0.356 OA
HETATM   17  C   UNL     1     -48.122  61.901 -60.598  1.00  0.00     0.210 C 
ENDBRANCH  13  16
ENDBRANCH   8  10
ENDBRANCH   7   8
ENDBRANCH   6   7
ENDBRANCH   5   6
ENDBRANCH   1   5
BRANCH   2  18
HETATM   18  N   UNL     1     -42.145  55.017 -55.718  1.00  0.00    -0.184 NA
HETATM   19  C   UNL     1     -41.042  55.219 -55.075  1.00  0.00     0.152 C 
BRANCH  19  20
HETATM   20  C   UNL     1     -40.931  54.751 -53.709  1.00  0.00     0.011 A 
HETATM   21  C   UNL     1     -40.456  53.480 -53.250  1.00  0.00     0.004 A 
HETATM   22  C   UNL     1     -40.537  53.484 -51.855  1.00  0.00     0.043 A 
HETATM   23  C   UNL     1     -39.961  52.322 -53.886  1.00  0.00     0.014 A 
HETATM   24  C   UNL     1     -40.154  52.393 -51.067  1.00  0.00     0.030 A 
HETATM   25  N   UNL     1     -41.039  54.709 -51.481  1.00  0.00    -0.364 N 
HETATM   26  C   UNL     1     -39.668  51.259 -51.723  1.00  0.00     0.002 A 
HETATM   27  C   UNL     1     -39.572  51.221 -53.112  1.00  0.00     0.001 A 
HETATM   28  H   UNL     1     -41.207  54.994 -50.526  1.00  0.00     0.165 HD
HETATM   29  C   UNL     1     -41.278  55.477 -52.584  1.00  0.00     0.102 A 
ENDBRANCH  19  20
ENDBRANCH   2  18
TORSDOF 8
ENDMDL
MODEL 7
REMARK VINA RESULT:      -7.0     14.796     17.681
REMARK  8 active torsions:
REMARK  status: ('A' for Active; 'I' for Inactive)
REMARK    1  A    between atoms: O_2  and  C_3 
REMARK    2  A    between atoms: C_6  and  N_7 
REMARK    3  A    between atoms: N_7  and  C_8 
REMARK    4  A    between atoms: C_8  and  C_9 
REMARK    5  A    between atoms: C_9  and  C_10 
REMARK    6  A    between atoms: C_10  and  C_11 
REMARK       I    between atoms: C_11  and  N_12 
REMARK    7  A    between atoms: N_12  and  N_13 
REMARK    8  A    between atoms: C_14  and  C_15 
ROOT
HETATM    1  C   UNL     1     -33.194  40.197 -52.246  1.00  0.00     0.237 C 
HETATM    2  N   UNL     1     -32.349  40.828 -53.150  1.00  0.00    -0.247 N 
HETATM    3  O   UNL     1     -33.456  38.999 -52.245  1.00  0.00    -0.272 OA
HETATM    4  H   UNL     1     -32.166  41.823 -53.092  1.00  0.00     0.192 HD
ENDROOT
BRANCH   1   5
HETATM    5  C   UNL     1     -33.779  41.165 -51.233  1.00  0.00     0.106 C 
BRANCH   5   6
HETATM    6  C   UNL     1     -35.258  41.429 -51.509  1.00  0.00     0.029 C 
BRANCH   6   7
HETATM    7  C   UNL     1     -35.468  42.484 -52.594  1.00  0.00     0.120 C 
BRANCH   7   8
HETATM    8  N   UNL     1     -36.622  42.108 -53.400  1.00  0.00    -0.390 N 
HETATM    9  H   UNL     1     -37.479  42.578 -53.114  1.00  0.00     0.159 HD
BRANCH   8  10
HETATM   10  C   UNL     1     -36.523  42.016 -54.789  1.00  0.00     0.028 A 
HETATM   11  C   UNL     1     -35.350  42.273 -55.504  1.00  0.00     0.032 A 
HETATM   12  C   UNL     1     -35.283  42.081 -56.893  1.00  0.00     0.039 A 
HETATM   13  C   UNL     1     -36.390  41.602 -57.591  1.00  0.00     0.068 A 
HETATM   14  C   UNL     1     -37.555  41.312 -56.886  1.00  0.00     0.039 A 
HETATM   15  C   UNL     1     -37.614  41.500 -55.502  1.00  0.00     0.032 A 
BRANCH  13  16
HETATM   16  O   UNL     1     -36.461  41.369 -58.936  1.00  0.00    -0.356 OA
HETATM   17  C   UNL     1     -37.268  42.256 -59.700  1.00  0.00     0.210 C 
ENDBRANCH  13  16
ENDBRANCH   8  10
ENDBRANCH   7   8
ENDBRANCH   6   7
ENDBRANCH   5   6
ENDBRANCH   1   5
BRANCH   2  18
HETATM   18  N   UNL     1     -31.772  40.090 -54.141  1.00  0.00    -0.184 NA
HETATM   19  C   UNL     1     -32.376  40.072 -55.285  1.00  0.00     0.152 C 
BRANCH  19  20
HETATM   20  C   UNL     1     -31.811  39.290 -56.364  1.00  0.00     0.011 A 
HETATM   21  C   UNL     1     -32.508  38.564 -57.383  1.00  0.00     0.004 A 
HETATM   22  C   UNL     1     -31.546  37.962 -58.199  1.00  0.00     0.043 A 
HETATM   23  C   UNL     1     -33.869  38.361 -57.696  1.00  0.00     0.014 A 
HETATM   24  C   UNL     1     -31.873  37.167 -59.303  1.00  0.00     0.030 A 
HETATM   25  N   UNL     1     -30.313  38.308 -57.696  1.00  0.00    -0.364 N 
HETATM   26  C   UNL     1     -33.229  36.983 -59.589  1.00  0.00     0.002 A 
HETATM   27  C   UNL     1     -34.214  37.569 -58.800  1.00  0.00     0.001 A 
HETATM   28  H   UNL     1     -29.429  38.013 -58.087  1.00  0.00     0.165 HD
HETATM   29  C   UNL     1     -30.460  39.106 -56.597  1.00  0.00     0.102 A 
ENDBRANCH  19  20
ENDBRANCH   2  18
TORSDOF 8
ENDMDL
MODEL 8
REMARK VINA RESULT:      -7.0      2.979      4.110
REMARK  8 active torsions:
REMARK  status: ('A' for Active; 'I' for Inactive)
REMARK    1  A    between atoms: O_2  and  C_3 
REMARK    2  A    between atoms: C_6  and  N_7 
REMARK    3  A    between atoms: N_7  and  C_8 
REMARK    4  A    between atoms: C_8  and  C_9 
REMARK    5  A    between atoms: C_9  and  C_10 
REMARK    6  A    between atoms: C_10  and  C_11 
REMARK       I    between atoms: C_11  and  N_12 
REMARK    7  A    between atoms: N_12  and  N_13 
REMARK    8  A    between atoms: C_14  and  C_15 
ROOT
HETATM    1  C   UNL     1     -44.142  57.940 -51.314  1.00  0.00     0.237 C 
HETATM    2  N   UNL     1     -42.877  57.543 -50.900  1.00  0.00    -0.247 N 
HETATM    3  O   UNL     1     -44.965  57.213 -51.862  1.00  0.00    -0.272 OA
HETATM    4  H   UNL     1     -42.247  58.191 -50.443  1.00  0.00     0.192 HD
ENDROOT
BRANCH   1   5
HETATM    5  C   UNL     1     -44.413  59.404 -51.016  1.00  0.00     0.106 C 
BRANCH   5   6
HETATM    6  C   UNL     1     -45.725  59.865 -51.650  1.00  0.00     0.029 C 
BRANCH   6   7
HETATM    7  C   UNL     1     -45.505  60.894 -52.757  1.00  0.00     0.120 C 
BRANCH   7   8
HETATM    8  N   UNL     1     -45.748  60.259 -54.045  1.00  0.00    -0.390 N 
HETATM    9  H   UNL     1     -46.164  60.888 -54.729  1.00  0.00     0.159 HD
BRANCH   8  10
HETATM   10  C   UNL     1     -44.785  59.432 -54.625  1.00  0.00     0.028 A 
HETATM   11  C   UNL     1     -43.414  59.704 -54.612  1.00  0.00     0.032 A 
HETATM   12  C   UNL     1     -42.482  58.794 -55.135  1.00  0.00     0.039 A 
HETATM   13  C   UNL     1     -42.908  57.576 -55.661  1.00  0.00     0.068 A 
HETATM   14  C   UNL     1     -44.268  57.278 -55.652  1.00  0.00     0.039 A 
HETATM   15  C   UNL     1     -45.191  58.186 -55.125  1.00  0.00     0.032 A 
BRANCH  13  16
HETATM   16  O   UNL     1     -42.111  56.603 -56.197  1.00  0.00    -0.356 OA
HETATM   17  C   UNL     1     -42.768  55.476 -56.763  1.00  0.00     0.210 C 
ENDBRANCH  13  16
ENDBRANCH   8  10
ENDBRANCH   7   8
ENDBRANCH   6   7
ENDBRANCH   5   6
ENDBRANCH   1   5
BRANCH   2  18
HETATM   18  N   UNL     1     -42.480  56.258 -51.130  1.00  0.00    -0.184 NA
HETATM   19  C   UNL     1     -41.296  55.931 -50.725  1.00  0.00     0.152 C 
BRANCH  19  20
HETATM   20  C   UNL     1     -40.823  54.583 -50.960  1.00  0.00     0.011 A 
HETATM   21  C   UNL     1     -40.630  53.924 -52.217  1.00  0.00     0.004 A 
HETATM   22  C   UNL     1     -40.166  52.634 -51.945  1.00  0.00     0.043 A 
HETATM   23  C   UNL     1     -40.802  54.301 -53.566  1.00  0.00     0.014 A 
HETATM   24  C   UNL     1     -39.870  51.705 -52.949  1.00  0.00     0.030 A 
HETATM   25  N   UNL     1     -40.079  52.513 -50.578  1.00  0.00    -0.364 N 
HETATM   26  C   UNL     1     -40.050  52.104 -54.276  1.00  0.00     0.002 A 
HETATM   27  C   UNL     1     -40.509  53.382 -54.583  1.00  0.00     0.001 A 
HETATM   28  H   UNL     1     -39.772  51.682 -50.092  1.00  0.00     0.165 HD
HETATM   29  C   UNL     1     -40.470  53.676 -49.977  1.00  0.00     0.102 A 
ENDBRANCH  19  20
ENDBRANCH   2  18
TORSDOF 8
ENDMDL
MODEL 9
REMARK VINA RESULT:      -7.0      2.226      5.086
REMARK  8 active torsions:
REMARK  status: ('A' for Active; 'I' for Inactive)
REMARK    1  A    between atoms: O_2  and  C_3 
REMARK    2  A    between atoms: C_6  and  N_7 
REMARK    3  A    between atoms: N_7  and  C_8 
REMARK    4  A    between atoms: C_8  and  C_9 
REMARK    5  A    between atoms: C_9  and  C_10 
REMARK    6  A    between atoms: C_10  and  C_11 
REMARK       I    between atoms: C_11  and  N_12 
REMARK    7  A    between atoms: N_12  and  N_13 
REMARK    8  A    between atoms: C_14  and  C_15 
ROOT
HETATM    1  C   UNL     1     -43.281  56.991 -57.097  1.00  0.00     0.237 C 
HETATM    2  N   UNL     1     -43.785  56.139 -56.122  1.00  0.00    -0.247 N 
HETATM    3  O   UNL     1     -42.110  57.350 -57.183  1.00  0.00    -0.272 OA
HETATM    4  H   UNL     1     -44.762  55.873 -56.112  1.00  0.00     0.192 HD
ENDROOT
BRANCH   1   5
HETATM    5  C   UNL     1     -44.351  57.449 -58.072  1.00  0.00     0.106 C 
BRANCH   5   6
HETATM    6  C   UNL     1     -44.583  58.955 -57.972  1.00  0.00     0.029 C 
BRANCH   6   7
HETATM    7  C   UNL     1     -45.502  59.326 -56.809  1.00  0.00     0.120 C 
BRANCH   7   8
HETATM    8  N   UNL     1     -44.787  60.225 -55.912  1.00  0.00    -0.390 N 
HETATM    9  H   UNL     1     -45.336  61.039 -55.641  1.00  0.00     0.159 HD
BRANCH   8  10
HETATM   10  C   UNL     1     -44.044  59.724 -54.843  1.00  0.00     0.028 A 
HETATM   11  C   UNL     1     -44.579  58.920 -53.832  1.00  0.00     0.032 A 
HETATM   12  C   UNL     1     -43.767  58.371 -52.827  1.00  0.00     0.039 A 
HETATM   13  C   UNL     1     -42.394  58.600 -52.829  1.00  0.00     0.068 A 
HETATM   14  C   UNL     1     -41.842  59.373 -53.848  1.00  0.00     0.039 A 
HETATM   15  C   UNL     1     -42.655  59.912 -54.850  1.00  0.00     0.032 A 
BRANCH  13  16
HETATM   16  O   UNL     1     -41.492  58.127 -51.916  1.00  0.00    -0.356 OA
HETATM   17  C   UNL     1     -40.234  58.788 -51.856  1.00  0.00     0.210 C 
ENDBRANCH  13  16
ENDBRANCH   8  10
ENDBRANCH   7   8
ENDBRANCH   6   7
ENDBRANCH   5   6
ENDBRANCH   1   5
BRANCH   2  18
HETATM   18  N   UNL     1     -42.944  55.670 -55.156  1.00  0.00    -0.184 NA
HETATM   19  C   UNL     1     -43.477  54.979 -54.202  1.00  0.00     0.152 C 
BRANCH  19  20
HETATM   20  C   UNL     1     -42.628  54.471 -53.144  1.00  0.00     0.011 A 
HETATM   21  C   UNL     1     -41.586  53.494 -53.246  1.00  0.00     0.004 A 
HETATM   22  C   UNL     1     -41.050  53.321 -51.966  1.00  0.00     0.043 A 
HETATM   23  C   UNL     1     -41.041  52.736 -54.304  1.00  0.00     0.014 A 
HETATM   24  C   UNL     1     -40.005  52.432 -51.692  1.00  0.00     0.030 A 
HETATM   25  N   UNL     1     -41.738  54.161 -51.121  1.00  0.00    -0.364 N 
HETATM   26  C   UNL     1     -39.485  51.695 -52.759  1.00  0.00     0.002 A 
HETATM   27  C   UNL     1     -39.992  51.843 -54.046  1.00  0.00     0.001 A 
HETATM   28  H   UNL     1     -41.565  54.248 -50.129  1.00  0.00     0.165 HD
HETATM   29  C   UNL     1     -42.686  54.856 -51.817  1.00  0.00     0.102 A 
ENDBRANCH  19  20
ENDBRANCH   2  18
TORSDOF 8
ENDMDL
MODEL 10
REMARK VINA RESULT:      -7.0     14.907     18.661
REMARK  8 active torsions:
REMARK  status: ('A' for Active; 'I' for Inactive)
REMARK    1  A    between atoms: O_2  and  C_3 
REMARK    2  A    between atoms: C_6  and  N_7 
REMARK    3  A    between atoms: N_7  and  C_8 
REMARK    4  A    between atoms: C_8  and  C_9 
REMARK    5  A    between atoms: C_9  and  C_10 
REMARK    6  A    between atoms: C_10  and  C_11 
REMARK       I    between atoms: C_11  and  N_12 
REMARK    7  A    between atoms: N_12  and  N_13 
REMARK    8  A    between atoms: C_14  and  C_15 
ROOT
HETATM    1  C   UNL     1     -36.272  42.006 -54.325  1.00  0.00     0.237 C 
HETATM    2  N   UNL     1     -37.417  42.109 -55.105  1.00  0.00    -0.247 N 
HETATM    3  O   UNL     1     -35.130  41.892 -54.760  1.00  0.00    -0.272 OA
HETATM    4  H   UNL     1     -38.332  42.211 -54.684  1.00  0.00     0.192 HD
ENDROOT
BRANCH   1   5
HETATM    5  C   UNL     1     -36.582  42.049 -52.839  1.00  0.00     0.106 C 
BRANCH   5   6
HETATM    6  C   UNL     1     -37.420  40.844 -52.414  1.00  0.00     0.029 C 
BRANCH   6   7
HETATM    7  C   UNL     1     -36.568  39.722 -51.824  1.00  0.00     0.120 C 
BRANCH   7   8
HETATM    8  N   UNL     1     -35.184  39.916 -52.236  1.00  0.00    -0.390 N 
HETATM    9  H   UNL     1     -35.066  40.685 -52.893  1.00  0.00     0.159 HD
BRANCH   8  10
HETATM   10  C   UNL     1     -34.149  39.873 -51.301  1.00  0.00     0.028 A 
HETATM   11  C   UNL     1     -34.289  39.364 -50.007  1.00  0.00     0.032 A 
HETATM   12  C   UNL     1     -33.192  39.266 -49.136  1.00  0.00     0.039 A 
HETATM   13  C   UNL     1     -31.923  39.656 -49.557  1.00  0.00     0.068 A 
HETATM   14  C   UNL     1     -31.763  40.135 -50.855  1.00  0.00     0.039 A 
HETATM   15  C   UNL     1     -32.858  40.225 -51.719  1.00  0.00     0.032 A 
BRANCH  13  16
HETATM   16  O   UNL     1     -30.774  39.612 -48.817  1.00  0.00    -0.356 OA
HETATM   17  C   UNL     1     -30.924  39.565 -47.404  1.00  0.00     0.210 C 
ENDBRANCH  13  16
ENDBRANCH   8  10
ENDBRANCH   7   8
ENDBRANCH   6   7
ENDBRANCH   5   6
ENDBRANCH   1   5
BRANCH   2  18
HETATM   18  N   UNL     1     -37.298  42.054 -56.463  1.00  0.00    -0.184 NA
HETATM   19  C   UNL     1     -37.741  40.989 -57.047  1.00  0.00     0.152 C 
BRANCH  19  20
HETATM   20  C   UNL     1     -37.624  40.877 -58.486  1.00  0.00     0.011 A 
HETATM   21  C   UNL     1     -37.909  39.738 -59.306  1.00  0.00     0.004 A 
HETATM   22  C   UNL     1     -37.643  40.100 -60.629  1.00  0.00     0.043 A 
HETATM   23  C   UNL     1     -38.372  38.429 -59.053  1.00  0.00     0.014 A 
HETATM   24  C   UNL     1     -37.812  39.223 -61.707  1.00  0.00     0.030 A 
HETATM   25  N   UNL     1     -37.215  41.407 -60.615  1.00  0.00    -0.364 N 
HETATM   26  C   UNL     1     -38.272  37.933 -61.427  1.00  0.00     0.002 A 
HETATM   27  C   UNL     1     -38.549  37.540 -60.121  1.00  0.00     0.001 A 
HETATM   28  H   UNL     1     -36.949  41.934 -61.435  1.00  0.00     0.165 HD
HETATM   29  C   UNL     1     -37.200  41.883 -59.335  1.00  0.00     0.102 A 
ENDBRANCH  19  20
ENDBRANCH   2  18
TORSDOF 8
ENDMDL
