MODEL 1
REMARK VINA RESULT:      -8.3      0.000      0.000
REMARK  6 active torsions:
REMARK  status: ('A' for Active; 'I' for Inactive)
REMARK    1  A    between atoms: O_2  and  C_3 
REMARK    2  A    between atoms: C_6  and  C_7 
REMARK    3  A    between atoms: C_11  and  C_12 
REMARK       I    between atoms: C_12  and  N_13 
REMARK    4  A    between atoms: N_13  and  N_14 
REMARK       I    between atoms: N_14  and  C_15 
REMARK    5  A    between atoms: C_15  and  C_16 
REMARK    6  A    between atoms: C_17  and  C_18 
ROOT
HETATM    1  C   UNL     1     -43.165  56.891 -57.878  1.00  0.00     0.288 C 
HETATM    2  N   UNL     1     -43.109  55.736 -57.130  1.00  0.00    -0.262 N 
HETATM    3  O   UNL     1     -42.182  57.612 -58.041  1.00  0.00    -0.264 OA
HETATM    4  H   UNL     1     -43.923  55.166 -56.911  1.00  0.00     0.190 HD
ENDROOT
BRANCH   1   5
HETATM    5  C   UNL     1     -44.448  57.192 -58.449  1.00  0.00     0.121 A 
HETATM    6  N   UNL     1     -45.498  57.615 -57.685  1.00  0.00    -0.272 N 
HETATM    7  N   UNL     1     -46.619  57.868 -58.378  1.00  0.00    -0.174 NA
HETATM    8  H   UNL     1     -45.503  57.756 -56.678  1.00  0.00     0.189 HD
HETATM    9  C   UNL     1     -46.305  57.575 -59.650  1.00  0.00     0.089 A 
HETATM   10  C   UNL     1     -44.947  57.153 -59.736  1.00  0.00     0.071 A 
BRANCH   9  11
HETATM   11  C   UNL     1     -47.276  57.714 -60.739  1.00  0.00    -0.005 A 
HETATM   12  C   UNL     1     -47.759  58.978 -61.106  1.00  0.00     0.016 A 
HETATM   13  C   UNL     1     -48.667  59.126 -62.163  1.00  0.00     0.037 A 
HETATM   14  C   UNL     1     -49.111  58.009 -62.866  1.00  0.00     0.068 A 
HETATM   15  C   UNL     1     -48.650  56.745 -62.494  1.00  0.00     0.037 A 
HETATM   16  C   UNL     1     -47.740  56.596 -61.442  1.00  0.00     0.016 A 
BRANCH  14  17
HETATM   17  O   UNL     1     -49.987  58.012 -63.916  1.00  0.00    -0.356 OA
HETATM   18  C   UNL     1     -50.921  59.083 -63.967  1.00  0.00     0.210 C 
ENDBRANCH  14  17
ENDBRANCH   9  11
ENDBRANCH   1   5
BRANCH   2  19
HETATM   19  N   UNL     1     -41.942  55.435 -56.423  1.00  0.00    -0.267 N 
HETATM   20  C   UNL     1     -41.971  54.378 -55.540  1.00  0.00     0.240 C 
HETATM   21  O   UNL     1     -42.974  53.692 -55.369  1.00  0.00    -0.271 OA
HETATM   22  H   UNL     1     -41.127  56.013 -56.603  1.00  0.00     0.190 HD
BRANCH  20  23
HETATM   23  C   UNL     1     -40.744  54.101 -54.746  1.00  0.00     0.089 A 
HETATM   24  C   UNL     1     -40.608  54.345 -53.252  1.00  0.00     0.034 A 
HETATM   25  C   UNL     1     -40.635  52.936 -53.798  1.00  0.00     0.025 A 
BRANCH  24  26
HETATM   26  C   UNL     1     -41.743  54.897 -52.412  1.00  0.00    -0.031 A 
HETATM   27  C   UNL     1     -42.012  56.278 -52.310  1.00  0.00     0.040 A 
HETATM   28 CL   UNL     1     -41.037  57.435 -53.150  1.00  0.00    -0.084 Cl
HETATM   29  C   UNL     1     -43.061  56.766 -51.523  1.00  0.00     0.024 A 
HETATM   30  C   UNL     1     -43.863  55.884 -50.805  1.00  0.00     0.002 A 
HETATM   31  C   UNL     1     -43.609  54.519 -50.865  1.00  0.00     0.001 A 
HETATM   32  C   UNL     1     -42.558  54.035 -51.651  1.00  0.00     0.009 A 
ENDBRANCH  24  26
ENDBRANCH  20  23
ENDBRANCH   2  19
TORSDOF 6
ENDMDL
MODEL 2
REMARK VINA RESULT:      -8.0      3.437     10.156
REMARK  6 active torsions:
REMARK  status: ('A' for Active; 'I' for Inactive)
REMARK    1  A    between atoms: O_2  and  C_3 
REMARK    2  A    between atoms: C_6  and  C_7 
REMARK    3  A    between atoms: C_11  and  C_12 
REMARK       I    between atoms: C_12  and  N_13 
REMARK    4  A    between atoms: N_13  and  N_14 
REMARK       I    between atoms: N_14  and  C_15 
REMARK    5  A    between atoms: C_15  and  C_16 
REMARK    6  A    between atoms: C_17  and  C_18 
ROOT
HETATM    1  C   UNL     1     -42.557  57.198 -56.313  1.00  0.00     0.288 C 
HETATM    2  N   UNL     1     -43.201  58.337 -55.884  1.00  0.00    -0.262 N 
HETATM    3  O   UNL     1     -42.485  56.895 -57.503  1.00  0.00    -0.264 OA
HETATM    4  H   UNL     1     -43.346  58.569 -54.904  1.00  0.00     0.190 HD
ENDROOT
BRANCH   1   5
HETATM    5  C   UNL     1     -41.979  56.391 -55.273  1.00  0.00     0.121 A 
HETATM    6  N   UNL     1     -41.664  56.907 -54.049  1.00  0.00    -0.272 N 
HETATM    7  N   UNL     1     -41.149  56.015 -53.190  1.00  0.00    -0.174 NA
HETATM    8  H   UNL     1     -41.789  57.868 -53.741  1.00  0.00     0.189 HD
HETATM    9  C   UNL     1     -41.095  54.867 -53.884  1.00  0.00     0.089 A 
HETATM   10  C   UNL     1     -41.614  55.061 -55.196  1.00  0.00     0.071 A 
BRANCH   9  11
HETATM   11  C   UNL     1     -40.577  53.629 -53.294  1.00  0.00    -0.005 A 
HETATM   12  C   UNL     1     -40.311  52.513 -54.100  1.00  0.00     0.016 A 
HETATM   13  C   UNL     1     -39.790  51.333 -53.552  1.00  0.00     0.037 A 
HETATM   14  C   UNL     1     -39.531  51.251 -52.186  1.00  0.00     0.068 A 
HETATM   15  C   UNL     1     -39.812  52.351 -51.373  1.00  0.00     0.037 A 
HETATM   16  C   UNL     1     -40.328  53.531 -51.920  1.00  0.00     0.016 A 
BRANCH  14  17
HETATM   17  O   UNL     1     -39.020  50.168 -51.525  1.00  0.00    -0.356 OA
HETATM   18  C   UNL     1     -39.870  49.541 -50.571  1.00  0.00     0.210 C 
ENDBRANCH  14  17
ENDBRANCH   9  11
ENDBRANCH   1   5
BRANCH   2  19
HETATM   19  N   UNL     1     -43.911  59.109 -56.808  1.00  0.00    -0.267 N 
HETATM   20  C   UNL     1     -45.284  59.015 -56.815  1.00  0.00     0.240 C 
HETATM   21  O   UNL     1     -45.898  58.295 -56.033  1.00  0.00    -0.271 OA
HETATM   22  H   UNL     1     -43.371  59.706 -57.427  1.00  0.00     0.190 HD
BRANCH  20  23
HETATM   23  C   UNL     1     -46.031  59.792 -57.841  1.00  0.00     0.089 A 
HETATM   24  C   UNL     1     -46.304  59.315 -59.257  1.00  0.00     0.034 A 
HETATM   25  C   UNL     1     -47.434  59.445 -58.262  1.00  0.00     0.025 A 
BRANCH  24  26
HETATM   26  C   UNL     1     -45.839  57.963 -59.763  1.00  0.00    -0.031 A 
HETATM   27  C   UNL     1     -44.515  57.724 -60.186  1.00  0.00     0.040 A 
HETATM   28 CL   UNL     1     -43.332  58.987 -60.154  1.00  0.00    -0.084 Cl
HETATM   29  C   UNL     1     -44.109  56.470 -60.656  1.00  0.00     0.024 A 
HETATM   30  C   UNL     1     -45.022  55.423 -60.728  1.00  0.00     0.002 A 
HETATM   31  C   UNL     1     -46.341  55.632 -60.341  1.00  0.00     0.001 A 
HETATM   32  C   UNL     1     -46.743  56.888 -59.874  1.00  0.00     0.009 A 
ENDBRANCH  24  26
ENDBRANCH  20  23
ENDBRANCH   2  19
TORSDOF 6
ENDMDL
MODEL 3
REMARK VINA RESULT:      -7.8      3.712     10.090
REMARK  6 active torsions:
REMARK  status: ('A' for Active; 'I' for Inactive)
REMARK    1  A    between atoms: O_2  and  C_3 
REMARK    2  A    between atoms: C_6  and  C_7 
REMARK    3  A    between atoms: C_11  and  C_12 
REMARK       I    between atoms: C_12  and  N_13 
REMARK    4  A    between atoms: N_13  and  N_14 
REMARK       I    between atoms: N_14  and  C_15 
REMARK    5  A    between atoms: C_15  and  C_16 
REMARK    6  A    between atoms: C_17  and  C_18 
ROOT
HETATM    1  C   UNL     1     -42.638  56.970 -56.483  1.00  0.00     0.288 C 
HETATM    2  N   UNL     1     -41.815  57.321 -57.531  1.00  0.00    -0.262 N 
HETATM    3  O   UNL     1     -43.826  57.285 -56.451  1.00  0.00    -0.264 OA
HETATM    4  H   UNL     1     -40.814  57.145 -57.545  1.00  0.00     0.190 HD
ENDROOT
BRANCH   1   5
HETATM    5  C   UNL     1     -42.009  56.215 -55.434  1.00  0.00     0.121 A 
HETATM    6  N   UNL     1     -41.576  56.803 -54.280  1.00  0.00    -0.272 N 
HETATM    7  N   UNL     1     -41.028  55.953 -53.400  1.00  0.00    -0.174 NA
HETATM    8  H   UNL     1     -41.638  57.788 -54.037  1.00  0.00     0.189 HD
HETATM    9  C   UNL     1     -41.076  54.756 -54.007  1.00  0.00     0.089 A 
HETATM   10  C   UNL     1     -41.691  54.879 -55.285  1.00  0.00     0.071 A 
BRANCH   9  11
HETATM   11  C   UNL     1     -40.560  53.542 -53.369  1.00  0.00    -0.005 A 
HETATM   12  C   UNL     1     -40.209  52.425 -54.140  1.00  0.00     0.016 A 
HETATM   13  C   UNL     1     -39.690  51.268 -53.543  1.00  0.00     0.037 A 
HETATM   14  C   UNL     1     -39.517  51.211 -52.162  1.00  0.00     0.068 A 
HETATM   15  C   UNL     1     -39.881  52.312 -51.385  1.00  0.00     0.037 A 
HETATM   16  C   UNL     1     -40.396  53.469 -51.980  1.00  0.00     0.016 A 
BRANCH  14  17
HETATM   17  O   UNL     1     -39.018  50.152 -51.455  1.00  0.00    -0.356 OA
HETATM   18  C   UNL     1     -39.881  49.563 -50.490  1.00  0.00     0.210 C 
ENDBRANCH  14  17
ENDBRANCH   9  11
ENDBRANCH   1   5
BRANCH   2  19
HETATM   19  N   UNL     1     -42.302  58.171 -58.527  1.00  0.00    -0.267 N 
HETATM   20  C   UNL     1     -42.477  57.657 -59.792  1.00  0.00     0.240 C 
HETATM   21  O   UNL     1     -42.236  56.484 -60.065  1.00  0.00    -0.271 OA
HETATM   22  H   UNL     1     -42.507  59.130 -58.262  1.00  0.00     0.190 HD
BRANCH  20  23
HETATM   23  C   UNL     1     -42.937  58.582 -60.863  1.00  0.00     0.089 A 
HETATM   24  C   UNL     1     -44.298  59.255 -60.898  1.00  0.00     0.034 A 
HETATM   25  C   UNL     1     -43.048  60.070 -60.659  1.00  0.00     0.025 A 
BRANCH  24  26
HETATM   26  C   UNL     1     -45.335  59.049 -59.810  1.00  0.00    -0.031 A 
HETATM   27  C   UNL     1     -46.051  57.842 -59.662  1.00  0.00     0.040 A 
HETATM   28 CL   UNL     1     -45.782  56.513 -60.737  1.00  0.00    -0.084 Cl
HETATM   29  C   UNL     1     -47.008  57.676 -58.655  1.00  0.00     0.024 A 
HETATM   30  C   UNL     1     -47.285  58.719 -57.776  1.00  0.00     0.002 A 
HETATM   31  C   UNL     1     -46.614  59.929 -57.911  1.00  0.00     0.001 A 
HETATM   32  C   UNL     1     -45.660  60.092 -58.920  1.00  0.00     0.009 A 
ENDBRANCH  24  26
ENDBRANCH  20  23
ENDBRANCH   2  19
TORSDOF 6
ENDMDL
MODEL 4
REMARK VINA RESULT:      -7.8      8.031     10.744
REMARK  6 active torsions:
REMARK  status: ('A' for Active; 'I' for Inactive)
REMARK    1  A    between atoms: O_2  and  C_3 
REMARK    2  A    between atoms: C_6  and  C_7 
REMARK    3  A    between atoms: C_11  and  C_12 
REMARK       I    between atoms: C_12  and  N_13 
REMARK    4  A    between atoms: N_13  and  N_14 
REMARK       I    between atoms: N_14  and  C_15 
REMARK    5  A    between atoms: C_15  and  C_16 
REMARK    6  A    between atoms: C_17  and  C_18 
ROOT
HETATM    1  C   UNL     1     -41.725  59.352 -51.449  1.00  0.00     0.288 C 
HETATM    2  N   UNL     1     -42.295  59.937 -50.340  1.00  0.00    -0.262 N 
HETATM    3  O   UNL     1     -41.247  60.018 -52.367  1.00  0.00    -0.264 OA
HETATM    4  H   UNL     1     -42.769  59.413 -49.608  1.00  0.00     0.190 HD
ENDROOT
BRANCH   1   5
HETATM    5  C   UNL     1     -41.730  57.915 -51.458  1.00  0.00     0.121 A 
HETATM    6  N   UNL     1     -42.641  57.192 -50.742  1.00  0.00    -0.272 N 
HETATM    7  N   UNL     1     -42.516  55.863 -50.874  1.00  0.00    -0.174 NA
HETATM    8  H   UNL     1     -43.379  57.558 -50.148  1.00  0.00     0.189 HD
HETATM    9  C   UNL     1     -41.463  55.699 -51.692  1.00  0.00     0.089 A 
HETATM   10  C   UNL     1     -40.946  56.966 -52.085  1.00  0.00     0.071 A 
BRANCH   9  11
HETATM   11  C   UNL     1     -40.988  54.370 -52.086  1.00  0.00    -0.005 A 
HETATM   12  C   UNL     1     -41.213  53.890 -53.384  1.00  0.00     0.016 A 
HETATM   13  C   UNL     1     -40.740  52.632 -53.782  1.00  0.00     0.037 A 
HETATM   14  C   UNL     1     -40.038  51.832 -52.882  1.00  0.00     0.068 A 
HETATM   15  C   UNL     1     -39.828  52.295 -51.582  1.00  0.00     0.037 A 
HETATM   16  C   UNL     1     -40.295  53.552 -51.186  1.00  0.00     0.016 A 
BRANCH  14  17
HETATM   17  O   UNL     1     -39.519  50.593 -53.140  1.00  0.00    -0.356 OA
HETATM   18  C   UNL     1     -39.781  50.044 -54.426  1.00  0.00     0.210 C 
ENDBRANCH  14  17
ENDBRANCH   9  11
ENDBRANCH   1   5
BRANCH   2  19
HETATM   19  N   UNL     1     -42.459  61.324 -50.307  1.00  0.00    -0.267 N 
HETATM   20  C   UNL     1     -43.680  61.843 -50.674  1.00  0.00     0.240 C 
HETATM   21  O   UNL     1     -44.623  61.132 -51.010  1.00  0.00    -0.271 OA
HETATM   22  H   UNL     1     -41.663  61.880 -50.008  1.00  0.00     0.190 HD
BRANCH  20  23
HETATM   23  C   UNL     1     -43.830  63.323 -50.696  1.00  0.00     0.089 A 
HETATM   24  C   UNL     1     -44.634  64.126 -49.688  1.00  0.00     0.034 A 
HETATM   25  C   UNL     1     -43.126  64.226 -49.717  1.00  0.00     0.025 A 
BRANCH  24  26
HETATM   26  C   UNL     1     -45.367  63.476 -48.530  1.00  0.00    -0.031 A 
HETATM   27  C   UNL     1     -46.716  63.075 -48.614  1.00  0.00     0.040 A 
HETATM   28 CL   UNL     1     -47.624  63.315 -50.068  1.00  0.00    -0.084 Cl
HETATM   29  C   UNL     1     -47.376  62.484 -47.531  1.00  0.00     0.024 A 
HETATM   30  C   UNL     1     -46.704  62.288 -46.328  1.00  0.00     0.002 A 
HETATM   31  C   UNL     1     -45.380  62.694 -46.205  1.00  0.00     0.001 A 
HETATM   32  C   UNL     1     -44.726  63.287 -47.289  1.00  0.00     0.009 A 
ENDBRANCH  24  26
ENDBRANCH  20  23
ENDBRANCH   2  19
TORSDOF 6
ENDMDL
MODEL 5
REMARK VINA RESULT:      -7.8      6.967     10.444
REMARK  6 active torsions:
REMARK  status: ('A' for Active; 'I' for Inactive)
REMARK    1  A    between atoms: O_2  and  C_3 
REMARK    2  A    between atoms: C_6  and  C_7 
REMARK    3  A    between atoms: C_11  and  C_12 
REMARK       I    between atoms: C_12  and  N_13 
REMARK    4  A    between atoms: N_13  and  N_14 
REMARK       I    between atoms: N_14  and  C_15 
REMARK    5  A    between atoms: C_15  and  C_16 
REMARK    6  A    between atoms: C_17  and  C_18 
ROOT
HETATM    1  C   UNL     1     -43.168  58.630 -51.724  1.00  0.00     0.288 C 
HETATM    2  N   UNL     1     -44.420  58.462 -52.272  1.00  0.00    -0.262 N 
HETATM    3  O   UNL     1     -42.733  59.737 -51.411  1.00  0.00    -0.264 OA
HETATM    4  H   UNL     1     -44.772  57.572 -52.615  1.00  0.00     0.190 HD
ENDROOT
BRANCH   1   5
HETATM    5  C   UNL     1     -42.408  57.422 -51.549  1.00  0.00     0.121 A 
HETATM    6  N   UNL     1     -41.720  57.162 -50.399  1.00  0.00    -0.272 N 
HETATM    7  N   UNL     1     -41.078  55.984 -50.394  1.00  0.00    -0.174 NA
HETATM    8  H   UNL     1     -41.661  57.755 -49.575  1.00  0.00     0.189 HD
HETATM    9  C   UNL     1     -41.330  55.455 -51.602  1.00  0.00     0.089 A 
HETATM   10  C   UNL     1     -42.167  56.327 -52.354  1.00  0.00     0.071 A 
BRANCH   9  11
HETATM   11  C   UNL     1     -40.793  54.152 -52.004  1.00  0.00    -0.005 A 
HETATM   12  C   UNL     1     -40.214  53.297 -51.054  1.00  0.00     0.016 A 
HETATM   13  C   UNL     1     -39.721  52.037 -51.421  1.00  0.00     0.037 A 
HETATM   14  C   UNL     1     -39.796  51.616 -52.747  1.00  0.00     0.068 A 
HETATM   15  C   UNL     1     -40.353  52.469 -53.701  1.00  0.00     0.037 A 
HETATM   16  C   UNL     1     -40.849  53.725 -53.336  1.00  0.00     0.016 A 
BRANCH  14  17
HETATM   17  O   UNL     1     -39.362  50.415 -53.238  1.00  0.00    -0.356 OA
HETATM   18  C   UNL     1     -39.846  50.035 -54.520  1.00  0.00     0.210 C 
ENDBRANCH  14  17
ENDBRANCH   9  11
ENDBRANCH   1   5
BRANCH   2  19
HETATM   19  N   UNL     1     -45.176  59.589 -52.607  1.00  0.00    -0.267 N 
HETATM   20  C   UNL     1     -46.179  59.978 -51.748  1.00  0.00     0.240 C 
HETATM   21  O   UNL     1     -46.417  59.381 -50.701  1.00  0.00    -0.271 OA
HETATM   22  H   UNL     1     -44.940  60.068 -53.471  1.00  0.00     0.190 HD
BRANCH  20  23
HETATM   23  C   UNL     1     -47.020  61.141 -52.140  1.00  0.00     0.089 A 
HETATM   24  C   UNL     1     -46.667  62.593 -51.868  1.00  0.00     0.034 A 
HETATM   25  C   UNL     1     -46.661  62.056 -53.281  1.00  0.00     0.025 A 
BRANCH  24  26
HETATM   26  C   UNL     1     -45.387  63.002 -51.165  1.00  0.00    -0.031 A 
HETATM   27  C   UNL     1     -45.242  62.953 -49.763  1.00  0.00     0.040 A 
HETATM   28 CL   UNL     1     -46.544  62.422 -48.754  1.00  0.00    -0.084 Cl
HETATM   29  C   UNL     1     -44.054  63.341 -49.133  1.00  0.00     0.024 A 
HETATM   30  C   UNL     1     -42.981  63.800 -49.891  1.00  0.00     0.002 A 
HETATM   31  C   UNL     1     -43.100  63.882 -51.274  1.00  0.00     0.001 A 
HETATM   32  C   UNL     1     -44.290  63.496 -51.899  1.00  0.00     0.009 A 
ENDBRANCH  24  26
ENDBRANCH  20  23
ENDBRANCH   2  19
TORSDOF 6
ENDMDL
MODEL 6
REMARK VINA RESULT:      -7.7     17.800     18.869
REMARK  6 active torsions:
REMARK  status: ('A' for Active; 'I' for Inactive)
REMARK    1  A    between atoms: O_2  and  C_3 
REMARK    2  A    between atoms: C_6  and  C_7 
REMARK    3  A    between atoms: C_11  and  C_12 
REMARK       I    between atoms: C_12  and  N_13 
REMARK    4  A    between atoms: N_13  and  N_14 
REMARK       I    between atoms: N_14  and  C_15 
REMARK    5  A    between atoms: C_15  and  C_16 
REMARK    6  A    between atoms: C_17  and  C_18 
ROOT
HETATM    1  C   UNL     1     -34.878  41.759 -56.049  1.00  0.00     0.288 C 
HETATM    2  N   UNL     1     -33.893  40.842 -55.758  1.00  0.00    -0.262 N 
HETATM    3  O   UNL     1     -35.048  42.773 -55.373  1.00  0.00    -0.264 OA
HETATM    4  H   UNL     1     -33.783  39.957 -56.249  1.00  0.00     0.190 HD
ENDROOT
BRANCH   1   5
HETATM    5  C   UNL     1     -35.691  41.446 -57.192  1.00  0.00     0.121 A 
HETATM    6  N   UNL     1     -36.128  42.411 -58.054  1.00  0.00    -0.272 N 
HETATM    7  N   UNL     1     -36.861  41.947 -59.077  1.00  0.00    -0.174 NA
HETATM    8  H   UNL     1     -35.947  43.410 -57.995  1.00  0.00     0.189 HD
HETATM    9  C   UNL     1     -36.934  40.622 -58.869  1.00  0.00     0.089 A 
HETATM   10  C   UNL     1     -36.205  40.269 -57.698  1.00  0.00     0.071 A 
BRANCH   9  11
HETATM   11  C   UNL     1     -37.667  39.735 -59.777  1.00  0.00    -0.005 A 
HETATM   12  C   UNL     1     -37.261  39.589 -61.111  1.00  0.00     0.016 A 
HETATM   13  C   UNL     1     -37.938  38.724 -61.982  1.00  0.00     0.037 A 
HETATM   14  C   UNL     1     -39.035  37.994 -61.530  1.00  0.00     0.068 A 
HETATM   15  C   UNL     1     -39.457  38.148 -60.208  1.00  0.00     0.037 A 
HETATM   16  C   UNL     1     -38.780  39.009 -59.337  1.00  0.00     0.016 A 
BRANCH  14  17
HETATM   17  O   UNL     1     -39.778  37.114 -62.268  1.00  0.00    -0.356 OA
HETATM   18  C   UNL     1     -40.729  37.675 -63.165  1.00  0.00     0.210 C 
ENDBRANCH  14  17
ENDBRANCH   9  11
ENDBRANCH   1   5
BRANCH   2  19
HETATM   19  N   UNL     1     -33.145  40.990 -54.587  1.00  0.00    -0.267 N 
HETATM   20  C   UNL     1     -32.878  39.865 -53.839  1.00  0.00     0.240 C 
HETATM   21  O   UNL     1     -33.258  38.747 -54.175  1.00  0.00    -0.271 OA
HETATM   22  H   UNL     1     -32.833  41.927 -54.350  1.00  0.00     0.190 HD
BRANCH  20  23
HETATM   23  C   UNL     1     -32.134  40.038 -52.562  1.00  0.00     0.089 A 
HETATM   24  C   UNL     1     -32.768  40.002 -51.182  1.00  0.00     0.034 A 
HETATM   25  C   UNL     1     -31.844  38.893 -51.628  1.00  0.00     0.025 A 
BRANCH  24  26
HETATM   26  C   UNL     1     -34.252  39.769 -50.974  1.00  0.00    -0.031 A 
HETATM   27  C   UNL     1     -35.210  40.794 -51.120  1.00  0.00     0.040 A 
HETATM   28 CL   UNL     1     -34.731  42.402 -51.544  1.00  0.00    -0.084 Cl
HETATM   29  C   UNL     1     -36.574  40.558 -50.916  1.00  0.00     0.024 A 
HETATM   30  C   UNL     1     -37.016  39.291 -50.549  1.00  0.00     0.002 A 
HETATM   31  C   UNL     1     -36.094  38.265 -50.373  1.00  0.00     0.001 A 
HETATM   32  C   UNL     1     -34.732  38.505 -50.575  1.00  0.00     0.009 A 
ENDBRANCH  24  26
ENDBRANCH  20  23
ENDBRANCH   2  19
TORSDOF 6
ENDMDL
MODEL 7
REMARK VINA RESULT:      -7.7      1.264      1.541
REMARK  6 active torsions:
REMARK  status: ('A' for Active; 'I' for Inactive)
REMARK    1  A    between atoms: O_2  and  C_3 
REMARK    2  A    between atoms: C_6  and  C_7 
REMARK    3  A    between atoms: C_11  and  C_12 
REMARK       I    between atoms: C_12  and  N_13 
REMARK    4  A    between atoms: N_13  and  N_14 
REMARK       I    between atoms: N_14  and  C_15 
REMARK    5  A    between atoms: C_15  and  C_16 
REMARK    6  A    between atoms: C_17  and  C_18 
ROOT
HETATM    1  C   UNL     1     -42.809  56.505 -56.901  1.00  0.00     0.288 C 
HETATM    2  N   UNL     1     -42.063  55.357 -56.749  1.00  0.00    -0.262 N 
HETATM    3  O   UNL     1     -42.657  57.484 -56.172  1.00  0.00    -0.264 OA
HETATM    4  H   UNL     1     -42.223  54.506 -57.282  1.00  0.00     0.190 HD
ENDROOT
BRANCH   1   5
HETATM    5  C   UNL     1     -43.774  56.474 -57.965  1.00  0.00     0.121 A 
HETATM    6  N   UNL     1     -43.968  55.362 -58.733  1.00  0.00    -0.272 N 
HETATM    7  N   UNL     1     -44.917  55.497 -59.671  1.00  0.00    -0.174 NA
HETATM    8  H   UNL     1     -43.480  54.473 -58.655  1.00  0.00     0.189 HD
HETATM    9  C   UNL     1     -45.352  56.760 -59.535  1.00  0.00     0.089 A 
HETATM   10  C   UNL     1     -44.662  57.404 -58.469  1.00  0.00     0.071 A 
BRANCH   9  11
HETATM   11  C   UNL     1     -46.404  57.314 -60.393  1.00  0.00    -0.005 A 
HETATM   12  C   UNL     1     -46.537  58.700 -60.550  1.00  0.00     0.016 A 
HETATM   13  C   UNL     1     -47.522  59.241 -61.389  1.00  0.00     0.037 A 
HETATM   14  C   UNL     1     -48.391  58.400 -62.080  1.00  0.00     0.068 A 
HETATM   15  C   UNL     1     -48.277  57.019 -61.914  1.00  0.00     0.037 A 
HETATM   16  C   UNL     1     -47.292  56.478 -61.080  1.00  0.00     0.016 A 
BRANCH  14  17
HETATM   17  O   UNL     1     -49.387  58.793 -62.931  1.00  0.00    -0.356 OA
HETATM   18  C   UNL     1     -50.721  58.506 -62.530  1.00  0.00     0.210 C 
ENDBRANCH  14  17
ENDBRANCH   9  11
ENDBRANCH   1   5
BRANCH   2  19
HETATM   19  N   UNL     1     -41.199  55.243 -55.657  1.00  0.00    -0.267 N 
HETATM   20  C   UNL     1     -41.552  54.391 -54.635  1.00  0.00     0.240 C 
HETATM   21  O   UNL     1     -42.582  53.724 -54.661  1.00  0.00    -0.271 OA
HETATM   22  H   UNL     1     -40.347  55.797 -55.678  1.00  0.00     0.190 HD
BRANCH  20  23
HETATM   23  C   UNL     1     -40.658  54.321 -53.447  1.00  0.00     0.089 A 
HETATM   24  C   UNL     1     -40.860  55.112 -52.166  1.00  0.00     0.034 A 
HETATM   25  C   UNL     1     -41.049  53.613 -52.176  1.00  0.00     0.025 A 
BRANCH  24  26
HETATM   26  C   UNL     1     -42.026  56.062 -51.971  1.00  0.00    -0.031 A 
HETATM   27  C   UNL     1     -42.034  57.372 -52.493  1.00  0.00     0.040 A 
HETATM   28 CL   UNL     1     -40.685  57.977 -53.393  1.00  0.00    -0.084 Cl
HETATM   29  C   UNL     1     -43.118  58.235 -52.296  1.00  0.00     0.024 A 
HETATM   30  C   UNL     1     -44.221  57.812 -51.560  1.00  0.00     0.002 A 
HETATM   31  C   UNL     1     -44.233  56.535 -51.012  1.00  0.00     0.001 A 
HETATM   32  C   UNL     1     -43.147  55.677 -51.209  1.00  0.00     0.009 A 
ENDBRANCH  24  26
ENDBRANCH  20  23
ENDBRANCH   2  19
TORSDOF 6
ENDMDL
MODEL 8
REMARK VINA RESULT:      -7.6      8.396     13.226
REMARK  6 active torsions:
REMARK  status: ('A' for Active; 'I' for Inactive)
REMARK    1  A    between atoms: O_2  and  C_3 
REMARK    2  A    between atoms: C_6  and  C_7 
REMARK    3  A    between atoms: C_11  and  C_12 
REMARK       I    between atoms: C_12  and  N_13 
REMARK    4  A    between atoms: N_13  and  N_14 
REMARK       I    between atoms: N_14  and  C_15 
REMARK    5  A    between atoms: C_15  and  C_16 
REMARK    6  A    between atoms: C_17  and  C_18 
ROOT
HETATM    1  C   UNL     1     -45.857  61.169 -49.139  1.00  0.00     0.288 C 
HETATM    2  N   UNL     1     -45.284  59.919 -49.221  1.00  0.00    -0.262 N 
HETATM    3  O   UNL     1     -46.314  61.745 -50.124  1.00  0.00    -0.264 OA
HETATM    4  H   UNL     1     -44.827  59.455 -48.440  1.00  0.00     0.190 HD
ENDROOT
BRANCH   1   5
HETATM    5  C   UNL     1     -45.879  61.748 -47.824  1.00  0.00     0.121 A 
HETATM    6  N   UNL     1     -47.025  62.246 -47.273  1.00  0.00    -0.272 N 
HETATM    7  N   UNL     1     -46.874  62.735 -46.033  1.00  0.00    -0.174 NA
HETATM    8  H   UNL     1     -47.947  62.269 -47.700  1.00  0.00     0.189 HD
HETATM    9  C   UNL     1     -45.568  62.579 -45.762  1.00  0.00     0.089 A 
HETATM   10  C   UNL     1     -44.911  61.957 -46.861  1.00  0.00     0.071 A 
BRANCH   9  11
HETATM   11  C   UNL     1     -44.986  63.002 -44.486  1.00  0.00    -0.005 A 
HETATM   12  C   UNL     1     -45.425  64.176 -43.857  1.00  0.00     0.016 A 
HETATM   13  C   UNL     1     -44.895  64.577 -42.623  1.00  0.00     0.037 A 
HETATM   14  C   UNL     1     -43.913  63.810 -42.001  1.00  0.00     0.068 A 
HETATM   15  C   UNL     1     -43.458  62.650 -42.629  1.00  0.00     0.037 A 
HETATM   16  C   UNL     1     -43.989  62.246 -43.859  1.00  0.00     0.016 A 
BRANCH  14  17
HETATM   17  O   UNL     1     -43.318  64.081 -40.799  1.00  0.00    -0.356 OA
HETATM   18  C   UNL     1     -44.174  64.165 -39.666  1.00  0.00     0.210 C 
ENDBRANCH  14  17
ENDBRANCH   9  11
ENDBRANCH   1   5
BRANCH   2  19
HETATM   19  N   UNL     1     -45.093  59.336 -50.477  1.00  0.00    -0.267 N 
HETATM   20  C   UNL     1     -43.890  59.543 -51.113  1.00  0.00     0.240 C 
HETATM   21  O   UNL     1     -42.985  60.202 -50.610  1.00  0.00    -0.271 OA
HETATM   22  H   UNL     1     -45.857  58.784 -50.855  1.00  0.00     0.190 HD
BRANCH  20  23
HETATM   23  C   UNL     1     -43.716  58.972 -52.476  1.00  0.00     0.089 A 
HETATM   24  C   UNL     1     -43.117  57.607 -52.771  1.00  0.00     0.034 A 
HETATM   25  C   UNL     1     -44.587  57.866 -53.012  1.00  0.00     0.025 A 
BRANCH  24  26
HETATM   26  C   UNL     1     -42.642  56.673 -51.675  1.00  0.00    -0.031 A 
HETATM   27  C   UNL     1     -41.428  56.869 -50.984  1.00  0.00     0.040 A 
HETATM   28 CL   UNL     1     -40.397  58.207 -51.362  1.00  0.00    -0.084 Cl
HETATM   29  C   UNL     1     -41.005  55.991 -49.980  1.00  0.00     0.024 A 
HETATM   30  C   UNL     1     -41.780  54.884 -49.649  1.00  0.00     0.002 A 
HETATM   31  C   UNL     1     -42.970  54.649 -50.329  1.00  0.00     0.001 A 
HETATM   32  C   UNL     1     -43.388  55.528 -51.333  1.00  0.00     0.009 A 
ENDBRANCH  24  26
ENDBRANCH  20  23
ENDBRANCH   2  19
TORSDOF 6
ENDMDL
MODEL 9
REMARK VINA RESULT:      -7.4      7.495     10.654
REMARK  6 active torsions:
REMARK  status: ('A' for Active; 'I' for Inactive)
REMARK    1  A    between atoms: O_2  and  C_3 
REMARK    2  A    between atoms: C_6  and  C_7 
REMARK    3  A    between atoms: C_11  and  C_12 
REMARK       I    between atoms: C_12  and  N_13 
REMARK    4  A    between atoms: N_13  and  N_14 
REMARK       I    between atoms: N_14  and  C_15 
REMARK    5  A    between atoms: C_15  and  C_16 
REMARK    6  A    between atoms: C_17  and  C_18 
ROOT
HETATM    1  C   UNL     1     -44.190  58.499 -51.448  1.00  0.00     0.288 C 
HETATM    2  N   UNL     1     -44.420  58.939 -50.163  1.00  0.00    -0.262 N 
HETATM    3  O   UNL     1     -44.821  58.931 -52.411  1.00  0.00    -0.264 OA
HETATM    4  H   UNL     1     -43.971  58.541 -49.342  1.00  0.00     0.190 HD
ENDROOT
BRANCH   1   5
HETATM    5  C   UNL     1     -43.164  57.500 -51.581  1.00  0.00     0.121 A 
HETATM    6  N   UNL     1     -42.033  57.520 -50.817  1.00  0.00    -0.272 N 
HETATM    7  N   UNL     1     -41.187  56.507 -51.056  1.00  0.00    -0.174 NA
HETATM    8  H   UNL     1     -41.789  58.204 -50.105  1.00  0.00     0.189 HD
HETATM    9  C   UNL     1     -41.772  55.801 -52.038  1.00  0.00     0.089 A 
HETATM   10  C   UNL     1     -43.019  56.391 -52.390  1.00  0.00     0.071 A 
BRANCH   9  11
HETATM   11  C   UNL     1     -41.153  54.597 -52.600  1.00  0.00    -0.005 A 
HETATM   12  C   UNL     1     -40.954  54.478 -53.982  1.00  0.00     0.016 A 
HETATM   13  C   UNL     1     -40.339  53.344 -54.529  1.00  0.00     0.037 A 
HETATM   14  C   UNL     1     -39.917  52.308 -53.699  1.00  0.00     0.068 A 
HETATM   15  C   UNL     1     -40.128  52.411 -52.323  1.00  0.00     0.037 A 
HETATM   16  C   UNL     1     -40.738  53.544 -51.775  1.00  0.00     0.016 A 
BRANCH  14  17
HETATM   17  O   UNL     1     -39.301  51.154 -54.098  1.00  0.00    -0.356 OA
HETATM   18  C   UNL     1     -40.123  49.999 -54.219  1.00  0.00     0.210 C 
ENDBRANCH  14  17
ENDBRANCH   9  11
ENDBRANCH   1   5
BRANCH   2  19
HETATM   19  N   UNL     1     -45.489  59.804 -49.919  1.00  0.00    -0.267 N 
HETATM   20  C   UNL     1     -45.213  61.047 -49.395  1.00  0.00     0.240 C 
HETATM   21  O   UNL     1     -44.068  61.420 -49.154  1.00  0.00    -0.271 OA
HETATM   22  H   UNL     1     -46.421  59.469 -50.146  1.00  0.00     0.190 HD
BRANCH  20  23
HETATM   23  C   UNL     1     -46.360  61.941 -49.079  1.00  0.00     0.089 A 
HETATM   24  C   UNL     1     -46.677  62.484 -47.697  1.00  0.00     0.034 A 
HETATM   25  C   UNL     1     -46.191  63.409 -48.788  1.00  0.00     0.025 A 
BRANCH  24  26
HETATM   26  C   UNL     1     -45.826  62.166 -46.483  1.00  0.00    -0.031 A 
HETATM   27  C   UNL     1     -45.716  60.864 -45.952  1.00  0.00     0.040 A 
HETATM   28 CL   UNL     1     -46.567  59.539 -46.669  1.00  0.00    -0.084 Cl
HETATM   29  C   UNL     1     -44.929  60.594 -44.827  1.00  0.00     0.024 A 
HETATM   30  C   UNL     1     -44.241  61.624 -44.193  1.00  0.00     0.002 A 
HETATM   31  C   UNL     1     -44.348  62.923 -44.677  1.00  0.00     0.001 A 
HETATM   32  C   UNL     1     -45.137  63.189 -45.801  1.00  0.00     0.009 A 
ENDBRANCH  24  26
ENDBRANCH  20  23
ENDBRANCH   2  19
TORSDOF 6
ENDMDL
MODEL 10
REMARK VINA RESULT:      -7.4      4.685      5.850
REMARK  6 active torsions:
REMARK  status: ('A' for Active; 'I' for Inactive)
REMARK    1  A    between atoms: O_2  and  C_3 
REMARK    2  A    between atoms: C_6  and  C_7 
REMARK    3  A    between atoms: C_11  and  C_12 
REMARK       I    between atoms: C_12  and  N_13 
REMARK    4  A    between atoms: N_13  and  N_14 
REMARK       I    between atoms: N_14  and  C_15 
REMARK    5  A    between atoms: C_15  and  C_16 
REMARK    6  A    between atoms: C_17  and  C_18 
ROOT
HETATM    1  C   UNL     1     -43.239  56.443 -55.895  1.00  0.00     0.288 C 
HETATM    2  N   UNL     1     -43.672  57.124 -54.779  1.00  0.00    -0.262 N 
HETATM    3  O   UNL     1     -43.239  55.214 -55.953  1.00  0.00    -0.264 OA
HETATM    4  H   UNL     1     -43.606  58.133 -54.673  1.00  0.00     0.190 HD
ENDROOT
BRANCH   1   5
HETATM    5  C   UNL     1     -42.786  57.269 -56.981  1.00  0.00     0.121 A 
HETATM    6  N   UNL     1     -42.477  56.748 -58.204  1.00  0.00    -0.272 N 
HETATM    7  N   UNL     1     -42.086  57.658 -59.109  1.00  0.00    -0.174 NA
HETATM    8  H   UNL     1     -42.522  55.771 -58.481  1.00  0.00     0.189 HD
HETATM    9  C   UNL     1     -42.114  58.827 -58.449  1.00  0.00     0.089 A 
HETATM   10  C   UNL     1     -42.554  58.624 -57.110  1.00  0.00     0.071 A 
BRANCH   9  11
HETATM   11  C   UNL     1     -41.742  60.089 -59.094  1.00  0.00    -0.005 A 
HETATM   12  C   UNL     1     -41.210  61.145 -58.340  1.00  0.00     0.016 A 
HETATM   13  C   UNL     1     -40.826  62.347 -58.950  1.00  0.00     0.037 A 
HETATM   14  C   UNL     1     -40.974  62.513 -60.325  1.00  0.00     0.068 A 
HETATM   15  C   UNL     1     -41.521  61.473 -61.080  1.00  0.00     0.037 A 
HETATM   16  C   UNL     1     -41.900  60.271 -60.473  1.00  0.00     0.016 A 
BRANCH  14  17
HETATM   17  O   UNL     1     -40.636  63.625 -61.045  1.00  0.00    -0.356 OA
HETATM   18  C   UNL     1     -40.057  63.408 -62.326  1.00  0.00     0.210 C 
ENDBRANCH  14  17
ENDBRANCH   9  11
ENDBRANCH   1   5
BRANCH   2  19
HETATM   19  N   UNL     1     -44.000  56.406 -53.626  1.00  0.00    -0.267 N 
HETATM   20  C   UNL     1     -43.099  56.403 -52.584  1.00  0.00     0.240 C 
HETATM   21  O   UNL     1     -42.037  57.016 -52.631  1.00  0.00    -0.271 OA
HETATM   22  H   UNL     1     -44.894  55.925 -53.615  1.00  0.00     0.190 HD
BRANCH  20  23
HETATM   23  C   UNL     1     -43.426  55.587 -51.383  1.00  0.00     0.089 A 
HETATM   24  C   UNL     1     -42.838  54.219 -51.082  1.00  0.00     0.034 A 
HETATM   25  C   UNL     1     -42.469  55.413 -50.233  1.00  0.00     0.025 A 
BRANCH  24  26
HETATM   26  C   UNL     1     -41.830  53.548 -51.995  1.00  0.00    -0.031 A 
HETATM   27  C   UNL     1     -40.645  52.954 -51.511  1.00  0.00     0.040 A 
HETATM   28 CL   UNL     1     -40.271  52.968 -49.822  1.00  0.00    -0.084 Cl
HETATM   29  C   UNL     1     -39.725  52.345 -52.372  1.00  0.00     0.024 A 
HETATM   30  C   UNL     1     -39.960  52.326 -53.744  1.00  0.00     0.002 A 
HETATM   31  C   UNL     1     -41.106  52.923 -54.254  1.00  0.00     0.001 A 
HETATM   32  C   UNL     1     -42.022  53.532 -53.391  1.00  0.00     0.009 A 
ENDBRANCH  24  26
ENDBRANCH  20  23
ENDBRANCH   2  19
TORSDOF 6
ENDMDL
