MODEL 1
REMARK VINA RESULT:      -7.9      0.000      0.000
REMARK  7 active torsions:
REMARK  status: ('A' for Active; 'I' for Inactive)
REMARK    1  A    between atoms: O_2  and  C_3 
REMARK    2  A    between atoms: C_6  and  C_7 
REMARK       I    between atoms: C_7  and  N_8 
REMARK    3  A    between atoms: C_14  and  C_15 
REMARK       I    between atoms: C_15  and  N_16 
REMARK    4  A    between atoms: N_16  and  C_17 
REMARK    5  A    between atoms: C_17  and  C_18 
REMARK       I    between atoms: N_25  and  C_26 
REMARK    6  A    between atoms: C_26  and  C_27 
REMARK    7  A    between atoms: C_30  and  O_31 
ROOT
HETATM    1  C   UNL     1     -40.224  54.224 -50.618  1.00  0.00     0.253 C 
HETATM    2  N   UNL     1     -41.256  55.115 -50.948  1.00  0.00    -0.348 N 
HETATM    3  C   UNL     1     -42.274  54.823 -51.952  1.00  0.00     0.131 C 
HETATM    4  C   UNL     1     -43.560  55.598 -51.731  1.00  0.00     0.081 C 
HETATM    5  C   UNL     1     -43.357  57.111 -51.556  1.00  0.00     0.142 C 
HETATM    6  O   UNL     1     -44.569  57.581 -50.903  1.00  0.00    -0.358 OA
HETATM    7  C   UNL     1     -45.440  58.183 -51.863  1.00  0.00     0.206 C 
HETATM    8  C   UNL     1     -44.698  58.222 -53.183  1.00  0.00     0.206 C 
HETATM    9  N   UNL     1     -43.331  57.864 -52.816  1.00  0.00    -0.300 N 
HETATM   10  C   UNL     1     -42.275  57.768 -53.709  1.00  0.00     0.257 C 
HETATM   11  O   UNL     1     -41.199  57.243 -53.452  1.00  0.00    -0.267 OA
HETATM   12  C   UNL     1     -42.240  57.401 -50.547  1.00  0.00     0.081 C 
HETATM   13  C   UNL     1     -41.001  56.521 -50.643  1.00  0.00     0.131 C 
HETATM   14  O   UNL     1     -39.371  54.467 -49.764  1.00  0.00    -0.267 OA
ENDROOT
BRANCH   8  15
HETATM   15  C   UNL     1     -44.988  59.575 -53.838  1.00  0.00     0.243 C 
HETATM   16  N   UNL     1     -45.500  59.550 -55.114  1.00  0.00    -0.355 N 
HETATM   17  H   UNL     1     -45.884  58.681 -55.467  1.00  0.00     0.162 HD
HETATM   18  O   UNL     1     -44.646  60.618 -53.282  1.00  0.00    -0.271 OA
BRANCH  16  19
HETATM   19  C   UNL     1     -45.936  60.788 -55.723  1.00  0.00     0.161 C 
BRANCH  19  20
HETATM   20  C   UNL     1     -45.912  60.734 -57.225  1.00  0.00    -0.041 A 
HETATM   21  C   UNL     1     -45.569  61.869 -57.973  1.00  0.00     0.009 A 
HETATM   22  C   UNL     1     -45.476  61.798 -59.365  1.00  0.00     0.001 A 
HETATM   23  C   UNL     1     -45.723  60.593 -60.021  1.00  0.00     0.000 A 
HETATM   24  C   UNL     1     -46.066  59.459 -59.287  1.00  0.00     0.001 A 
HETATM   25  C   UNL     1     -46.159  59.528 -57.897  1.00  0.00     0.009 A 
ENDBRANCH  19  20
ENDBRANCH  16  19
ENDBRANCH   8  15
BRANCH  10  26
HETATM   26  C   UNL     1     -42.361  58.402 -55.039  1.00  0.00     0.032 A 
HETATM   27  C   UNL     1     -41.975  59.741 -55.142  1.00  0.00     0.020 A 
HETATM   28  C   UNL     1     -41.996  60.372 -56.385  1.00  0.00     0.038 A 
HETATM   29  C   UNL     1     -42.386  59.672 -57.530  1.00  0.00     0.068 A 
HETATM   30  C   UNL     1     -42.749  58.327 -57.423  1.00  0.00     0.038 A 
HETATM   31  C   UNL     1     -42.722  57.684 -56.180  1.00  0.00     0.020 A 
BRANCH  29  32
HETATM   32  O   UNL     1     -42.360  60.410 -58.680  1.00  0.00    -0.356 OA
HETATM   33  C   UNL     1     -42.111  59.708 -59.891  1.00  0.00     0.210 C 
ENDBRANCH  29  32
ENDBRANCH  10  26
BRANCH   1  34
HETATM   34  C   UNL     1     -40.116  52.918 -51.310  1.00  0.00     0.032 A 
HETATM   35  C   UNL     1     -39.971  52.848 -52.698  1.00  0.00     0.020 A 
HETATM   36  C   UNL     1     -39.806  51.606 -53.317  1.00  0.00     0.038 A 
HETATM   37  C   UNL     1     -39.736  50.436 -52.556  1.00  0.00     0.068 A 
HETATM   38  C   UNL     1     -39.862  50.510 -51.168  1.00  0.00     0.038 A 
HETATM   39  C   UNL     1     -40.043  51.751 -50.544  1.00  0.00     0.020 A 
BRANCH  37  40
HETATM   40  O   UNL     1     -39.553  49.290 -53.280  1.00  0.00    -0.356 OA
HETATM   41  C   UNL     1     -39.524  49.440 -54.695  1.00  0.00     0.210 C 
ENDBRANCH  37  40
ENDBRANCH   1  34
TORSDOF 7
ENDMDL
MODEL 2
REMARK VINA RESULT:      -7.5      3.370      5.944
REMARK  7 active torsions:
REMARK  status: ('A' for Active; 'I' for Inactive)
REMARK    1  A    between atoms: O_2  and  C_3 
REMARK    2  A    between atoms: C_6  and  C_7 
REMARK       I    between atoms: C_7  and  N_8 
REMARK    3  A    between atoms: C_14  and  C_15 
REMARK       I    between atoms: C_15  and  N_16 
REMARK    4  A    between atoms: N_16  and  C_17 
REMARK    5  A    between atoms: C_17  and  C_18 
REMARK       I    between atoms: N_25  and  C_26 
REMARK    6  A    between atoms: C_26  and  C_27 
REMARK    7  A    between atoms: C_30  and  O_31 
ROOT
HETATM    1  C   UNL     1     -43.370  54.941 -54.287  1.00  0.00     0.253 C 
HETATM    2  N   UNL     1     -43.402  56.340 -54.391  1.00  0.00    -0.348 N 
HETATM    3  C   UNL     1     -42.402  57.210 -53.779  1.00  0.00     0.131 C 
HETATM    4  C   UNL     1     -42.281  58.551 -54.479  1.00  0.00     0.081 C 
HETATM    5  C   UNL     1     -43.619  59.279 -54.675  1.00  0.00     0.142 C 
HETATM    6  O   UNL     1     -43.371  60.246 -55.733  1.00  0.00    -0.358 OA
HETATM    7  C   UNL     1     -43.169  61.545 -55.173  1.00  0.00     0.206 C 
HETATM    8  C   UNL     1     -43.428  61.439 -53.684  1.00  0.00     0.206 C 
HETATM    9  N   UNL     1     -44.022  60.113 -53.536  1.00  0.00    -0.300 N 
HETATM   10  C   UNL     1     -44.431  59.564 -52.330  1.00  0.00     0.257 C 
HETATM   11  O   UNL     1     -44.703  58.381 -52.167  1.00  0.00    -0.267 OA
HETATM   12  C   UNL     1     -44.677  58.335 -55.257  1.00  0.00     0.081 C 
HETATM   13  C   UNL     1     -44.708  56.924 -54.684  1.00  0.00     0.131 C 
HETATM   14  O   UNL     1     -44.209  54.207 -54.811  1.00  0.00    -0.267 OA
ENDROOT
BRANCH   8  15
HETATM   15  C   UNL     1     -44.212  62.683 -53.260  1.00  0.00     0.243 C 
HETATM   16  N   UNL     1     -45.420  62.898 -53.880  1.00  0.00    -0.355 N 
HETATM   17  H   UNL     1     -45.847  62.134 -54.390  1.00  0.00     0.162 HD
HETATM   18  O   UNL     1     -43.703  63.505 -52.497  1.00  0.00    -0.271 OA
BRANCH  16  19
HETATM   19  C   UNL     1     -46.273  63.969 -53.411  1.00  0.00     0.161 C 
BRANCH  19  20
HETATM   20  C   UNL     1     -47.650  63.495 -53.044  1.00  0.00    -0.041 A 
HETATM   21  C   UNL     1     -48.325  64.046 -51.946  1.00  0.00     0.009 A 
HETATM   22  C   UNL     1     -49.633  63.658 -51.651  1.00  0.00     0.001 A 
HETATM   23  C   UNL     1     -50.280  62.715 -52.450  1.00  0.00     0.000 A 
HETATM   24  C   UNL     1     -49.618  62.159 -53.543  1.00  0.00     0.001 A 
HETATM   25  C   UNL     1     -48.311  62.547 -53.840  1.00  0.00     0.009 A 
ENDBRANCH  19  20
ENDBRANCH  16  19
ENDBRANCH   8  15
BRANCH  10  26
HETATM   26  C   UNL     1     -44.663  60.427 -51.156  1.00  0.00     0.032 A 
HETATM   27  C   UNL     1     -45.957  60.921 -50.962  1.00  0.00     0.020 A 
HETATM   28  C   UNL     1     -46.236  61.704 -49.843  1.00  0.00     0.038 A 
HETATM   29  C   UNL     1     -45.237  61.988 -48.908  1.00  0.00     0.068 A 
HETATM   30  C   UNL     1     -43.953  61.473 -49.097  1.00  0.00     0.038 A 
HETATM   31  C   UNL     1     -43.666  60.678 -50.212  1.00  0.00     0.020 A 
BRANCH  29  32
HETATM   32  O   UNL     1     -45.648  62.764 -47.861  1.00  0.00    -0.356 OA
HETATM   33  C   UNL     1     -46.966  62.545 -47.374  1.00  0.00     0.210 C 
ENDBRANCH  29  32
ENDBRANCH  10  26
BRANCH   1  34
HETATM   34  C   UNL     1     -42.296  54.274 -53.513  1.00  0.00     0.032 A 
HETATM   35  C   UNL     1     -42.353  54.200 -52.119  1.00  0.00     0.020 A 
HETATM   36  C   UNL     1     -41.359  53.509 -51.421  1.00  0.00     0.038 A 
HETATM   37  C   UNL     1     -40.335  52.849 -52.107  1.00  0.00     0.068 A 
HETATM   38  C   UNL     1     -40.292  52.908 -53.501  1.00  0.00     0.038 A 
HETATM   39  C   UNL     1     -41.277  53.613 -54.205  1.00  0.00     0.020 A 
BRANCH  37  40
HETATM   40  O   UNL     1     -39.439  52.193 -51.309  1.00  0.00    -0.356 OA
HETATM   41  C   UNL     1     -39.485  50.771 -51.351  1.00  0.00     0.210 C 
ENDBRANCH  37  40
ENDBRANCH   1  34
TORSDOF 7
ENDMDL
MODEL 3
REMARK VINA RESULT:      -7.4      2.642     10.156
REMARK  7 active torsions:
REMARK  status: ('A' for Active; 'I' for Inactive)
REMARK    1  A    between atoms: O_2  and  C_3 
REMARK    2  A    between atoms: C_6  and  C_7 
REMARK       I    between atoms: C_7  and  N_8 
REMARK    3  A    between atoms: C_14  and  C_15 
REMARK       I    between atoms: C_15  and  N_16 
REMARK    4  A    between atoms: N_16  and  C_17 
REMARK    5  A    between atoms: C_17  and  C_18 
REMARK       I    between atoms: N_25  and  C_26 
REMARK    6  A    between atoms: C_26  and  C_27 
REMARK    7  A    between atoms: C_30  and  O_31 
ROOT
HETATM    1  C   UNL     1     -43.403  59.839 -60.574  1.00  0.00     0.253 C 
HETATM    2  N   UNL     1     -43.340  58.798 -59.635  1.00  0.00    -0.348 N 
HETATM    3  C   UNL     1     -44.367  58.573 -58.622  1.00  0.00     0.131 C 
HETATM    4  C   UNL     1     -44.414  57.134 -58.142  1.00  0.00     0.081 C 
HETATM    5  C   UNL     1     -43.053  56.576 -57.700  1.00  0.00     0.142 C 
HETATM    6  O   UNL     1     -43.207  55.130 -57.743  1.00  0.00    -0.358 OA
HETATM    7  C   UNL     1     -43.427  54.621 -56.426  1.00  0.00     0.206 C 
HETATM    8  C   UNL     1     -43.279  55.782 -55.464  1.00  0.00     0.206 C 
HETATM    9  N   UNL     1     -42.720  56.844 -56.296  1.00  0.00    -0.300 N 
HETATM   10  C   UNL     1     -42.409  58.118 -55.844  1.00  0.00     0.257 C 
HETATM   11  O   UNL     1     -42.170  59.071 -56.575  1.00  0.00    -0.267 OA
HETATM   12  C   UNL     1     -41.972  56.878 -58.743  1.00  0.00     0.081 C 
HETATM   13  C   UNL     1     -42.006  58.268 -59.365  1.00  0.00     0.131 C 
HETATM   14  O   UNL     1     -42.540  60.024 -61.434  1.00  0.00    -0.267 OA
ENDROOT
BRANCH   8  15
HETATM   15  C   UNL     1     -42.507  55.278 -54.242  1.00  0.00     0.243 C 
HETATM   16  N   UNL     1     -41.347  54.581 -54.485  1.00  0.00    -0.355 N 
HETATM   17  H   UNL     1     -40.930  54.637 -55.406  1.00  0.00     0.162 HD
HETATM   18  O   UNL     1     -42.992  55.387 -53.115  1.00  0.00    -0.271 OA
BRANCH  16  19
HETATM   19  C   UNL     1     -40.499  54.215 -53.371  1.00  0.00     0.161 C 
BRANCH  19  20
HETATM   20  C   UNL     1     -40.275  52.732 -53.277  1.00  0.00    -0.041 A 
HETATM   21  C   UNL     1     -40.500  51.905 -54.386  1.00  0.00     0.009 A 
HETATM   22  C   UNL     1     -40.221  50.539 -54.320  1.00  0.00     0.001 A 
HETATM   23  C   UNL     1     -39.715  49.985 -53.144  1.00  0.00     0.000 A 
HETATM   24  C   UNL     1     -39.489  50.797 -52.034  1.00  0.00     0.001 A 
HETATM   25  C   UNL     1     -39.766  52.163 -52.099  1.00  0.00     0.009 A 
ENDBRANCH  19  20
ENDBRANCH  16  19
ENDBRANCH   8  15
BRANCH  10  26
HETATM   26  C   UNL     1     -42.250  58.380 -54.401  1.00  0.00     0.032 A 
HETATM   27  C   UNL     1     -40.975  58.215 -53.851  1.00  0.00     0.020 A 
HETATM   28  C   UNL     1     -40.763  58.494 -52.502  1.00  0.00     0.038 A 
HETATM   29  C   UNL     1     -41.812  58.950 -51.698  1.00  0.00     0.068 A 
HETATM   30  C   UNL     1     -43.078  59.134 -52.259  1.00  0.00     0.038 A 
HETATM   31  C   UNL     1     -43.296  58.866 -53.616  1.00  0.00     0.020 A 
BRANCH  29  32
HETATM   32  O   UNL     1     -41.465  59.184 -50.397  1.00  0.00    -0.356 OA
HETATM   33  C   UNL     1     -40.187  59.763 -50.165  1.00  0.00     0.210 C 
ENDBRANCH  29  32
ENDBRANCH  10  26
BRANCH   1  34
HETATM   34  C   UNL     1     -44.541  60.788 -60.563  1.00  0.00     0.032 A 
HETATM   35  C   UNL     1     -44.488  61.968 -59.818  1.00  0.00     0.020 A 
HETATM   36  C   UNL     1     -45.550  62.875 -59.877  1.00  0.00     0.038 A 
HETATM   37  C   UNL     1     -46.644  62.634 -60.712  1.00  0.00     0.068 A 
HETATM   38  C   UNL     1     -46.687  61.463 -61.471  1.00  0.00     0.038 A 
HETATM   39  C   UNL     1     -45.632  60.544 -61.403  1.00  0.00     0.020 A 
BRANCH  37  40
HETATM   40  O   UNL     1     -47.605  63.607 -60.695  1.00  0.00    -0.356 OA
HETATM   41  C   UNL     1     -48.109  63.968 -59.413  1.00  0.00     0.210 C 
ENDBRANCH  37  40
ENDBRANCH   1  34
TORSDOF 7
ENDMDL
MODEL 4
REMARK VINA RESULT:      -7.2      2.530      9.519
REMARK  7 active torsions:
REMARK  status: ('A' for Active; 'I' for Inactive)
REMARK    1  A    between atoms: O_2  and  C_3 
REMARK    2  A    between atoms: C_6  and  C_7 
REMARK       I    between atoms: C_7  and  N_8 
REMARK    3  A    between atoms: C_14  and  C_15 
REMARK       I    between atoms: C_15  and  N_16 
REMARK    4  A    between atoms: N_16  and  C_17 
REMARK    5  A    between atoms: C_17  and  C_18 
REMARK       I    between atoms: N_25  and  C_26 
REMARK    6  A    between atoms: C_26  and  C_27 
REMARK    7  A    between atoms: C_30  and  O_31 
ROOT
HETATM    1  C   UNL     1     -43.748  61.990 -58.776  1.00  0.00     0.253 C 
HETATM    2  N   UNL     1     -43.815  61.473 -57.473  1.00  0.00    -0.348 N 
HETATM    3  C   UNL     1     -42.636  61.225 -56.650  1.00  0.00     0.131 C 
HETATM    4  C   UNL     1     -42.940  61.250 -55.163  1.00  0.00     0.081 C 
HETATM    5  C   UNL     1     -44.116  60.352 -54.749  1.00  0.00     0.142 C 
HETATM    6  O   UNL     1     -44.540  60.860 -53.454  1.00  0.00    -0.358 OA
HETATM    7  C   UNL     1     -44.023  60.032 -52.410  1.00  0.00     0.206 C 
HETATM    8  C   UNL     1     -43.336  58.853 -53.068  1.00  0.00     0.206 C 
HETATM    9  N   UNL     1     -43.741  58.961 -54.467  1.00  0.00    -0.300 N 
HETATM   10  C   UNL     1     -43.351  58.087 -55.470  1.00  0.00     0.257 C 
HETATM   11  O   UNL     1     -43.487  58.304 -56.668  1.00  0.00    -0.267 OA
HETATM   12  C   UNL     1     -45.325  60.576 -55.664  1.00  0.00     0.081 C 
HETATM   13  C   UNL     1     -45.026  60.723 -57.151  1.00  0.00     0.131 C 
HETATM   14  O   UNL     1     -44.744  62.207 -59.467  1.00  0.00    -0.267 OA
ENDROOT
BRANCH   8  15
HETATM   15  C   UNL     1     -43.689  57.601 -52.262  1.00  0.00     0.243 C 
HETATM   16  N   UNL     1     -42.686  57.050 -51.499  1.00  0.00    -0.355 N 
HETATM   17  H   UNL     1     -41.860  57.605 -51.309  1.00  0.00     0.162 HD
HETATM   18  O   UNL     1     -44.784  57.056 -52.411  1.00  0.00    -0.271 OA
BRANCH  16  19
HETATM   19  C   UNL     1     -43.002  55.961 -50.600  1.00  0.00     0.161 C 
BRANCH  19  20
HETATM   20  C   UNL     1     -41.869  54.984 -50.454  1.00  0.00    -0.041 A 
HETATM   21  C   UNL     1     -41.966  53.694 -50.994  1.00  0.00     0.009 A 
HETATM   22  C   UNL     1     -40.885  52.813 -50.922  1.00  0.00     0.001 A 
HETATM   23  C   UNL     1     -39.697  53.213 -50.311  1.00  0.00     0.000 A 
HETATM   24  C   UNL     1     -39.590  54.492 -49.770  1.00  0.00     0.001 A 
HETATM   25  C   UNL     1     -40.669  55.374 -49.842  1.00  0.00     0.009 A 
ENDBRANCH  19  20
ENDBRANCH  16  19
ENDBRANCH   8  15
BRANCH  10  26
HETATM   26  C   UNL     1     -42.817  56.753 -55.132  1.00  0.00     0.032 A 
HETATM   27  C   UNL     1     -43.690  55.665 -55.227  1.00  0.00     0.020 A 
HETATM   28  C   UNL     1     -43.221  54.379 -54.961  1.00  0.00     0.038 A 
HETATM   29  C   UNL     1     -41.884  54.168 -54.615  1.00  0.00     0.068 A 
HETATM   30  C   UNL     1     -41.012  55.257 -54.545  1.00  0.00     0.038 A 
HETATM   31  C   UNL     1     -41.472  56.550 -54.820  1.00  0.00     0.020 A 
BRANCH  29  32
HETATM   32  O   UNL     1     -41.560  52.861 -54.383  1.00  0.00    -0.356 OA
HETATM   33  C   UNL     1     -40.178  52.527 -54.396  1.00  0.00     0.210 C 
ENDBRANCH  29  32
ENDBRANCH  10  26
BRANCH   1  34
HETATM   34  C   UNL     1     -42.435  62.297 -59.390  1.00  0.00     0.032 A 
HETATM   35  C   UNL     1     -41.948  61.547 -60.464  1.00  0.00     0.020 A 
HETATM   36  C   UNL     1     -40.737  61.900 -61.064  1.00  0.00     0.038 A 
HETATM   37  C   UNL     1     -40.031  63.026 -60.633  1.00  0.00     0.068 A 
HETATM   38  C   UNL     1     -40.529  63.787 -59.573  1.00  0.00     0.038 A 
HETATM   39  C   UNL     1     -41.735  63.428 -58.957  1.00  0.00     0.020 A 
BRANCH  37  40
HETATM   40  O   UNL     1     -38.872  63.275 -61.316  1.00  0.00    -0.356 OA
HETATM   41  C   UNL     1     -38.981  63.339 -62.734  1.00  0.00     0.210 C 
ENDBRANCH  37  40
ENDBRANCH   1  34
TORSDOF 7
ENDMDL
MODEL 5
REMARK VINA RESULT:      -6.9      1.983      3.142
REMARK  7 active torsions:
REMARK  status: ('A' for Active; 'I' for Inactive)
REMARK    1  A    between atoms: O_2  and  C_3 
REMARK    2  A    between atoms: C_6  and  C_7 
REMARK       I    between atoms: C_7  and  N_8 
REMARK    3  A    between atoms: C_14  and  C_15 
REMARK       I    between atoms: C_15  and  N_16 
REMARK    4  A    between atoms: N_16  and  C_17 
REMARK    5  A    between atoms: C_17  and  C_18 
REMARK       I    between atoms: N_25  and  C_26 
REMARK    6  A    between atoms: C_26  and  C_27 
REMARK    7  A    between atoms: C_30  and  O_31 
ROOT
HETATM    1  C   UNL     1     -40.102  54.148 -50.375  1.00  0.00     0.253 C 
HETATM    2  N   UNL     1     -41.168  54.995 -50.716  1.00  0.00    -0.348 N 
HETATM    3  C   UNL     1     -42.131  54.683 -51.768  1.00  0.00     0.131 C 
HETATM    4  C   UNL     1     -43.463  55.382 -51.572  1.00  0.00     0.081 C 
HETATM    5  C   UNL     1     -43.349  56.897 -51.343  1.00  0.00     0.142 C 
HETATM    6  O   UNL     1     -44.608  57.280 -50.723  1.00  0.00    -0.358 OA
HETATM    7  C   UNL     1     -45.474  57.867 -51.697  1.00  0.00     0.206 C 
HETATM    8  C   UNL     1     -44.687  57.989 -52.985  1.00  0.00     0.206 C 
HETATM    9  N   UNL     1     -43.317  57.691 -52.577  1.00  0.00    -0.300 N 
HETATM   10  C   UNL     1     -42.225  57.680 -53.431  1.00  0.00     0.257 C 
HETATM   11  O   UNL     1     -41.132  57.204 -53.149  1.00  0.00    -0.267 OA
HETATM   12  C   UNL     1     -42.287  57.212 -50.283  1.00  0.00     0.081 C 
HETATM   13  C   UNL     1     -41.000  56.401 -50.358  1.00  0.00     0.131 C 
HETATM   14  O   UNL     1     -39.295  54.408 -49.481  1.00  0.00    -0.267 OA
ENDROOT
BRANCH   8  15
HETATM   15  C   UNL     1     -45.025  59.345 -53.609  1.00  0.00     0.243 C 
HETATM   16  N   UNL     1     -44.949  60.444 -52.786  1.00  0.00    -0.355 N 
HETATM   17  H   UNL     1     -44.457  60.358 -51.905  1.00  0.00     0.162 HD
HETATM   18  O   UNL     1     -45.468  59.405 -54.757  1.00  0.00    -0.271 OA
BRANCH  16  19
HETATM   19  C   UNL     1     -45.107  61.764 -53.357  1.00  0.00     0.161 C 
BRANCH  19  20
HETATM   20  C   UNL     1     -46.252  62.525 -52.749  1.00  0.00    -0.041 A 
HETATM   21  C   UNL     1     -47.575  62.125 -52.979  1.00  0.00     0.009 A 
HETATM   22  C   UNL     1     -48.634  62.788 -52.354  1.00  0.00     0.001 A 
HETATM   23  C   UNL     1     -48.380  63.854 -51.493  1.00  0.00     0.000 A 
HETATM   24  C   UNL     1     -47.068  64.261 -51.257  1.00  0.00     0.001 A 
HETATM   25  C   UNL     1     -46.009  63.600 -51.880  1.00  0.00     0.009 A 
ENDBRANCH  19  20
ENDBRANCH  16  19
ENDBRANCH   8  15
BRANCH  10  26
HETATM   26  C   UNL     1     -42.296  58.352 -54.743  1.00  0.00     0.032 A 
HETATM   27  C   UNL     1     -41.942  59.703 -54.797  1.00  0.00     0.020 A 
HETATM   28  C   UNL     1     -41.950  60.371 -56.020  1.00  0.00     0.038 A 
HETATM   29  C   UNL     1     -42.295  59.697 -57.195  1.00  0.00     0.068 A 
HETATM   30  C   UNL     1     -42.625  58.341 -57.137  1.00  0.00     0.038 A 
HETATM   31  C   UNL     1     -42.611  57.661 -55.914  1.00  0.00     0.020 A 
BRANCH  29  32
HETATM   32  O   UNL     1     -42.260  60.470 -58.321  1.00  0.00    -0.356 OA
HETATM   33  C   UNL     1     -41.539  61.693 -58.241  1.00  0.00     0.210 C 
ENDBRANCH  29  32
ENDBRANCH  10  26
BRANCH   1  34
HETATM   34  C   UNL     1     -39.899  52.873 -51.102  1.00  0.00     0.032 A 
HETATM   35  C   UNL     1     -40.117  51.643 -50.476  1.00  0.00     0.020 A 
HETATM   36  C   UNL     1     -39.980  50.460 -51.206  1.00  0.00     0.038 A 
HETATM   37  C   UNL     1     -39.674  50.496 -52.569  1.00  0.00     0.068 A 
HETATM   38  C   UNL     1     -39.475  51.726 -53.198  1.00  0.00     0.038 A 
HETATM   39  C   UNL     1     -39.596  52.915 -52.467  1.00  0.00     0.020 A 
BRANCH  37  40
HETATM   40  O   UNL     1     -39.588  49.271 -53.171  1.00  0.00    -0.356 OA
HETATM   41  C   UNL     1     -39.517  49.274 -54.593  1.00  0.00     0.210 C 
ENDBRANCH  37  40
ENDBRANCH   1  34
TORSDOF 7
ENDMDL
MODEL 6
REMARK VINA RESULT:      -6.7      3.387      6.071
REMARK  7 active torsions:
REMARK  status: ('A' for Active; 'I' for Inactive)
REMARK    1  A    between atoms: O_2  and  C_3 
REMARK    2  A    between atoms: C_6  and  C_7 
REMARK       I    between atoms: C_7  and  N_8 
REMARK    3  A    between atoms: C_14  and  C_15 
REMARK       I    between atoms: C_15  and  N_16 
REMARK    4  A    between atoms: N_16  and  C_17 
REMARK    5  A    between atoms: C_17  and  C_18 
REMARK       I    between atoms: N_25  and  C_26 
REMARK    6  A    between atoms: C_26  and  C_27 
REMARK    7  A    between atoms: C_30  and  O_31 
ROOT
HETATM    1  C   UNL     1     -43.601  55.251 -53.912  1.00  0.00     0.253 C 
HETATM    2  N   UNL     1     -43.534  56.638 -54.115  1.00  0.00    -0.348 N 
HETATM    3  C   UNL     1     -42.634  57.512 -53.369  1.00  0.00     0.131 C 
HETATM    4  C   UNL     1     -42.299  58.789 -54.118  1.00  0.00     0.081 C 
HETATM    5  C   UNL     1     -43.528  59.553 -54.635  1.00  0.00     0.142 C 
HETATM    6  O   UNL     1     -43.017  60.424 -55.682  1.00  0.00    -0.358 OA
HETATM    7  C   UNL     1     -42.863  61.754 -55.181  1.00  0.00     0.206 C 
HETATM    8  C   UNL     1     -43.425  61.773 -53.774  1.00  0.00     0.206 C 
HETATM    9  N   UNL     1     -44.108  60.488 -53.663  1.00  0.00    -0.300 N 
HETATM   10  C   UNL     1     -44.784  60.050 -52.534  1.00  0.00     0.257 C 
HETATM   11  O   UNL     1     -45.147  58.895 -52.351  1.00  0.00    -0.267 OA
HETATM   12  C   UNL     1     -44.495  58.609 -55.358  1.00  0.00     0.081 C 
HETATM   13  C   UNL     1     -44.719  57.249 -54.710  1.00  0.00     0.131 C 
HETATM   14  O   UNL     1     -44.354  54.513 -54.548  1.00  0.00    -0.267 OA
ENDROOT
BRANCH   8  15
HETATM   15  C   UNL     1     -44.210  63.077 -53.606  1.00  0.00     0.243 C 
HETATM   16  N   UNL     1     -45.222  63.313 -54.506  1.00  0.00    -0.355 N 
HETATM   17  H   UNL     1     -45.562  62.542 -55.068  1.00  0.00     0.162 HD
HETATM   18  O   UNL     1     -43.846  63.916 -52.782  1.00  0.00    -0.271 OA
BRANCH  16  19
HETATM   19  C   UNL     1     -46.094  64.450 -54.304  1.00  0.00     0.161 C 
BRANCH  19  20
HETATM   20  C   UNL     1     -47.515  64.047 -54.024  1.00  0.00    -0.041 A 
HETATM   21  C   UNL     1     -48.055  62.890 -54.603  1.00  0.00     0.009 A 
HETATM   22  C   UNL     1     -49.350  62.477 -54.284  1.00  0.00     0.001 A 
HETATM   23  C   UNL     1     -50.117  63.216 -53.385  1.00  0.00     0.000 A 
HETATM   24  C   UNL     1     -49.592  64.369 -52.804  1.00  0.00     0.001 A 
HETATM   25  C   UNL     1     -48.297  64.782 -53.121  1.00  0.00     0.009 A 
ENDBRANCH  19  20
ENDBRANCH  16  19
ENDBRANCH   8  15
BRANCH  10  26
HETATM   26  C   UNL     1     -45.202  61.010 -51.494  1.00  0.00     0.032 A 
HETATM   27  C   UNL     1     -46.499  61.526 -51.575  1.00  0.00     0.020 A 
HETATM   28  C   UNL     1     -46.956  62.402 -50.592  1.00  0.00     0.038 A 
HETATM   29  C   UNL     1     -46.133  62.757 -49.519  1.00  0.00     0.068 A 
HETATM   30  C   UNL     1     -44.847  62.219 -49.432  1.00  0.00     0.038 A 
HETATM   31  C   UNL     1     -44.384  61.332 -50.411  1.00  0.00     0.020 A 
BRANCH  29  32
HETATM   32  O   UNL     1     -46.707  63.620 -48.629  1.00  0.00    -0.356 OA
HETATM   33  C   UNL     1     -47.365  63.046 -47.507  1.00  0.00     0.210 C 
ENDBRANCH  29  32
ENDBRANCH  10  26
BRANCH   1  34
HETATM   34  C   UNL     1     -42.745  54.604 -52.890  1.00  0.00     0.032 A 
HETATM   35  C   UNL     1     -41.470  54.132 -53.212  1.00  0.00     0.020 A 
HETATM   36  C   UNL     1     -40.660  53.585 -52.214  1.00  0.00     0.038 A 
HETATM   37  C   UNL     1     -41.094  53.550 -50.886  1.00  0.00     0.068 A 
HETATM   38  C   UNL     1     -42.360  54.040 -50.562  1.00  0.00     0.038 A 
HETATM   39  C   UNL     1     -43.183  54.575 -51.562  1.00  0.00     0.020 A 
BRANCH  37  40
HETATM   40  O   UNL     1     -40.200  53.009 -50.003  1.00  0.00    -0.356 OA
HETATM   41  C   UNL     1     -40.255  53.506 -48.670  1.00  0.00     0.210 C 
ENDBRANCH  37  40
ENDBRANCH   1  34
TORSDOF 7
ENDMDL
MODEL 7
REMARK VINA RESULT:      -6.5     17.335     20.406
REMARK  7 active torsions:
REMARK  status: ('A' for Active; 'I' for Inactive)
REMARK    1  A    between atoms: O_2  and  C_3 
REMARK    2  A    between atoms: C_6  and  C_7 
REMARK       I    between atoms: C_7  and  N_8 
REMARK    3  A    between atoms: C_14  and  C_15 
REMARK       I    between atoms: C_15  and  N_16 
REMARK    4  A    between atoms: N_16  and  C_17 
REMARK    5  A    between atoms: C_17  and  C_18 
REMARK       I    between atoms: N_25  and  C_26 
REMARK    6  A    between atoms: C_26  and  C_27 
REMARK    7  A    between atoms: C_30  and  O_31 
ROOT
HETATM    1  C   UNL     1     -38.669  38.060 -49.682  1.00  0.00     0.253 C 
HETATM    2  N   UNL     1     -37.924  38.886 -50.537  1.00  0.00    -0.348 N 
HETATM    3  C   UNL     1     -38.493  39.544 -51.710  1.00  0.00     0.131 C 
HETATM    4  C   UNL     1     -37.729  40.791 -52.114  1.00  0.00     0.081 C 
HETATM    5  C   UNL     1     -36.215  40.578 -52.265  1.00  0.00     0.142 C 
HETATM    6  O   UNL     1     -35.637  41.910 -52.175  1.00  0.00    -0.358 OA
HETATM    7  C   UNL     1     -35.324  42.397 -53.482  1.00  0.00     0.206 C 
HETATM    8  C   UNL     1     -35.595  41.272 -54.459  1.00  0.00     0.206 C 
HETATM    9  N   UNL     1     -35.803  40.114 -53.595  1.00  0.00    -0.300 N 
HETATM   10  C   UNL     1     -36.087  38.834 -54.048  1.00  0.00     0.257 C 
HETATM   11  O   UNL     1     -36.494  37.924 -53.336  1.00  0.00    -0.267 OA
HETATM   12  C   UNL     1     -35.644  39.829 -51.056  1.00  0.00     0.081 C 
HETATM   13  C   UNL     1     -36.479  38.671 -50.526  1.00  0.00     0.131 C 
HETATM   14  O   UNL     1     -38.190  37.513 -48.688  1.00  0.00    -0.267 OA
ENDROOT
BRANCH   8  15
HETATM   15  C   UNL     1     -34.461  41.268 -55.488  1.00  0.00     0.243 C 
HETATM   16  N   UNL     1     -33.237  40.811 -55.061  1.00  0.00    -0.355 N 
HETATM   17  H   UNL     1     -33.189  40.285 -54.197  1.00  0.00     0.162 HD
HETATM   18  O   UNL     1     -34.630  41.778 -56.596  1.00  0.00    -0.271 OA
BRANCH  16  19
HETATM   19  C   UNL     1     -32.173  40.640 -56.027  1.00  0.00     0.161 C 
BRANCH  19  20
HETATM   20  C   UNL     1     -31.272  39.483 -55.698  1.00  0.00    -0.041 A 
HETATM   21  C   UNL     1     -31.523  38.682 -54.576  1.00  0.00     0.009 A 
HETATM   22  C   UNL     1     -30.729  37.563 -54.312  1.00  0.00     0.001 A 
HETATM   23  C   UNL     1     -29.678  37.235 -55.168  1.00  0.00     0.000 A 
HETATM   24  C   UNL     1     -29.419  38.026 -56.286  1.00  0.00     0.001 A 
HETATM   25  C   UNL     1     -30.211  39.143 -56.551  1.00  0.00     0.009 A 
ENDBRANCH  19  20
ENDBRANCH  16  19
ENDBRANCH   8  15
BRANCH  10  26
HETATM   26  C   UNL     1     -35.812  38.458 -55.448  1.00  0.00     0.032 A 
HETATM   27  C   UNL     1     -36.718  38.888 -56.422  1.00  0.00     0.020 A 
HETATM   28  C   UNL     1     -36.479  38.596 -57.764  1.00  0.00     0.038 A 
HETATM   29  C   UNL     1     -35.333  37.890 -58.144  1.00  0.00     0.068 A 
HETATM   30  C   UNL     1     -34.421  37.485 -57.167  1.00  0.00     0.038 A 
HETATM   31  C   UNL     1     -34.649  37.782 -55.819  1.00  0.00     0.020 A 
BRANCH  29  32
HETATM   32  O   UNL     1     -35.223  37.675 -59.489  1.00  0.00    -0.356 OA
HETATM   33  C   UNL     1     -36.170  38.327 -60.326  1.00  0.00     0.210 C 
ENDBRANCH  29  32
ENDBRANCH  10  26
BRANCH   1  34
HETATM   34  C   UNL     1     -40.103  37.803 -49.955  1.00  0.00     0.032 A 
HETATM   35  C   UNL     1     -41.101  38.559 -49.334  1.00  0.00     0.020 A 
HETATM   36  C   UNL     1     -42.441  38.338 -49.660  1.00  0.00     0.038 A 
HETATM   37  C   UNL     1     -42.791  37.401 -50.636  1.00  0.00     0.068 A 
HETATM   38  C   UNL     1     -41.791  36.661 -51.269  1.00  0.00     0.038 A 
HETATM   39  C   UNL     1     -40.447  36.868 -50.935  1.00  0.00     0.020 A 
BRANCH  37  40
HETATM   40  O   UNL     1     -44.134  37.295 -50.876  1.00  0.00    -0.356 OA
HETATM   41  C   UNL     1     -44.915  36.725 -49.831  1.00  0.00     0.210 C 
ENDBRANCH  37  40
ENDBRANCH   1  34
TORSDOF 7
ENDMDL
MODEL 8
REMARK VINA RESULT:      -6.3      2.912      5.515
REMARK  7 active torsions:
REMARK  status: ('A' for Active; 'I' for Inactive)
REMARK    1  A    between atoms: O_2  and  C_3 
REMARK    2  A    between atoms: C_6  and  C_7 
REMARK       I    between atoms: C_7  and  N_8 
REMARK    3  A    between atoms: C_14  and  C_15 
REMARK       I    between atoms: C_15  and  N_16 
REMARK    4  A    between atoms: N_16  and  C_17 
REMARK    5  A    between atoms: C_17  and  C_18 
REMARK       I    between atoms: N_25  and  C_26 
REMARK    6  A    between atoms: C_26  and  C_27 
REMARK    7  A    between atoms: C_30  and  O_31 
ROOT
HETATM    1  C   UNL     1     -43.063  54.979 -54.418  1.00  0.00     0.253 C 
HETATM    2  N   UNL     1     -43.051  56.362 -54.657  1.00  0.00    -0.348 N 
HETATM    3  C   UNL     1     -42.380  57.319 -53.783  1.00  0.00     0.131 C 
HETATM    4  C   UNL     1     -41.989  58.598 -54.501  1.00  0.00     0.081 C 
HETATM    5  C   UNL     1     -43.138  59.255 -55.280  1.00  0.00     0.142 C 
HETATM    6  O   UNL     1     -42.488  60.135 -56.239  1.00  0.00    -0.358 OA
HETATM    7  C   UNL     1     -42.527  61.485 -55.770  1.00  0.00     0.206 C 
HETATM    8  C   UNL     1     -43.359  61.498 -54.504  1.00  0.00     0.206 C 
HETATM    9  N   UNL     1     -43.963  60.169 -54.480  1.00  0.00    -0.300 N 
HETATM   10  C   UNL     1     -44.819  59.710 -53.491  1.00  0.00     0.257 C 
HETATM   11  O   UNL     1     -45.133  58.536 -53.338  1.00  0.00    -0.267 OA
HETATM   12  C   UNL     1     -43.875  58.225 -56.143  1.00  0.00     0.081 C 
HETATM   13  C   UNL     1     -44.132  56.869 -55.499  1.00  0.00     0.131 C 
HETATM   14  O   UNL     1     -43.623  54.172 -55.160  1.00  0.00    -0.267 OA
ENDROOT
BRANCH   8  15
HETATM   15  C   UNL     1     -44.248  62.744 -54.546  1.00  0.00     0.243 C 
HETATM   16  N   UNL     1     -44.994  62.936 -55.685  1.00  0.00    -0.355 N 
HETATM   17  H   UNL     1     -45.117  62.159 -56.323  1.00  0.00     0.162 HD
HETATM   18  O   UNL     1     -44.179  63.584 -53.649  1.00  0.00    -0.271 OA
BRANCH  16  19
HETATM   19  C   UNL     1     -45.965  64.009 -55.718  1.00  0.00     0.161 C 
BRANCH  19  20
HETATM   20  C   UNL     1     -47.381  63.509 -55.759  1.00  0.00    -0.041 A 
HETATM   21  C   UNL     1     -47.724  62.406 -56.554  1.00  0.00     0.009 A 
HETATM   22  C   UNL     1     -49.024  61.896 -56.535  1.00  0.00     0.001 A 
HETATM   23  C   UNL     1     -49.992  62.482 -55.720  1.00  0.00     0.000 A 
HETATM   24  C   UNL     1     -49.663  63.579 -54.927  1.00  0.00     0.001 A 
HETATM   25  C   UNL     1     -48.364  64.090 -54.945  1.00  0.00     0.009 A 
ENDBRANCH  19  20
ENDBRANCH  16  19
ENDBRANCH   8  15
BRANCH  10  26
HETATM   26  C   UNL     1     -45.501  60.662 -52.592  1.00  0.00     0.032 A 
HETATM   27  C   UNL     1     -44.839  61.029 -51.417  1.00  0.00     0.020 A 
HETATM   28  C   UNL     1     -45.422  61.960 -50.558  1.00  0.00     0.038 A 
HETATM   29  C   UNL     1     -46.656  62.538 -50.869  1.00  0.00     0.068 A 
HETATM   30  C   UNL     1     -47.301  62.183 -52.056  1.00  0.00     0.038 A 
HETATM   31  C   UNL     1     -46.718  61.257 -52.929  1.00  0.00     0.020 A 
BRANCH  29  32
HETATM   32  O   UNL     1     -47.110  63.433 -49.942  1.00  0.00    -0.356 OA
HETATM   33  C   UNL     1     -48.433  63.923 -50.113  1.00  0.00     0.210 C 
ENDBRANCH  29  32
ENDBRANCH  10  26
BRANCH   1  34
HETATM   34  C   UNL     1     -42.387  54.423 -53.222  1.00  0.00     0.032 A 
HETATM   35  C   UNL     1     -41.055  54.006 -53.276  1.00  0.00     0.020 A 
HETATM   36  C   UNL     1     -40.424  53.546 -52.117  1.00  0.00     0.038 A 
HETATM   37  C   UNL     1     -41.099  53.545 -50.893  1.00  0.00     0.068 A 
HETATM   38  C   UNL     1     -42.424  53.981 -50.837  1.00  0.00     0.038 A 
HETATM   39  C   UNL     1     -43.066  54.428 -51.999  1.00  0.00     0.020 A 
BRANCH  37  40
HETATM   40  O   UNL     1     -40.364  53.091 -49.833  1.00  0.00    -0.356 OA
HETATM   41  C   UNL     1     -40.001  54.064 -48.859  1.00  0.00     0.210 C 
ENDBRANCH  37  40
ENDBRANCH   1  34
TORSDOF 7
ENDMDL
MODEL 9
REMARK VINA RESULT:      -6.1      3.389      6.870
REMARK  7 active torsions:
REMARK  status: ('A' for Active; 'I' for Inactive)
REMARK    1  A    between atoms: O_2  and  C_3 
REMARK    2  A    between atoms: C_6  and  C_7 
REMARK       I    between atoms: C_7  and  N_8 
REMARK    3  A    between atoms: C_14  and  C_15 
REMARK       I    between atoms: C_15  and  N_16 
REMARK    4  A    between atoms: N_16  and  C_17 
REMARK    5  A    between atoms: C_17  and  C_18 
REMARK       I    between atoms: N_25  and  C_26 
REMARK    6  A    between atoms: C_26  and  C_27 
REMARK    7  A    between atoms: C_30  and  O_31 
ROOT
HETATM    1  C   UNL     1     -42.953  55.200 -55.981  1.00  0.00     0.253 C 
HETATM    2  N   UNL     1     -43.037  56.161 -57.001  1.00  0.00    -0.348 N 
HETATM    3  C   UNL     1     -42.798  57.584 -56.781  1.00  0.00     0.131 C 
HETATM    4  C   UNL     1     -42.363  58.309 -58.040  1.00  0.00     0.081 C 
HETATM    5  C   UNL     1     -43.281  58.072 -59.250  1.00  0.00     0.142 C 
HETATM    6  O   UNL     1     -42.476  58.426 -60.409  1.00  0.00    -0.358 OA
HETATM    7  C   UNL     1     -42.827  59.733 -60.868  1.00  0.00     0.206 C 
HETATM    8  C   UNL     1     -44.010  60.198 -60.043  1.00  0.00     0.206 C 
HETATM    9  N   UNL     1     -44.421  58.992 -59.329  1.00  0.00    -0.300 N 
HETATM   10  C   UNL     1     -45.482  58.928 -58.438  1.00  0.00     0.257 C 
HETATM   11  O   UNL     1     -45.680  57.998 -57.666  1.00  0.00    -0.267 OA
HETATM   12  C   UNL     1     -43.576  56.579 -59.428  1.00  0.00     0.081 C 
HETATM   13  C   UNL     1     -43.853  55.790 -58.155  1.00  0.00     0.131 C 
HETATM   14  O   UNL     1     -43.147  53.999 -56.170  1.00  0.00    -0.267 OA
ENDROOT
BRANCH   8  15
HETATM   15  C   UNL     1     -44.987  60.901 -60.988  1.00  0.00     0.243 C 
HETATM   16  N   UNL     1     -45.619  60.117 -61.924  1.00  0.00    -0.355 N 
HETATM   17  H   UNL     1     -45.608  59.111 -61.803  1.00  0.00     0.162 HD
HETATM   18  O   UNL     1     -45.083  62.129 -60.978  1.00  0.00    -0.271 OA
BRANCH  16  19
HETATM   19  C   UNL     1     -46.664  60.697 -62.740  1.00  0.00     0.161 C 
BRANCH  19  20
HETATM   20  C   UNL     1     -47.977  59.980 -62.596  1.00  0.00    -0.041 A 
HETATM   21  C   UNL     1     -49.186  60.686 -62.664  1.00  0.00     0.009 A 
HETATM   22  C   UNL     1     -50.406  60.009 -62.604  1.00  0.00     0.001 A 
HETATM   23  C   UNL     1     -50.429  58.621 -62.476  1.00  0.00     0.000 A 
HETATM   24  C   UNL     1     -49.233  57.909 -62.405  1.00  0.00     0.001 A 
HETATM   25  C   UNL     1     -48.014  58.583 -62.466  1.00  0.00     0.009 A 
ENDBRANCH  19  20
ENDBRANCH  16  19
ENDBRANCH   8  15
BRANCH  10  26
HETATM   26  C   UNL     1     -46.523  59.974 -58.439  1.00  0.00     0.032 A 
HETATM   27  C   UNL     1     -47.755  59.658 -59.021  1.00  0.00     0.020 A 
HETATM   28  C   UNL     1     -48.785  60.597 -59.007  1.00  0.00     0.038 A 
HETATM   29  C   UNL     1     -48.602  61.845 -58.405  1.00  0.00     0.068 A 
HETATM   30  C   UNL     1     -47.376  62.144 -57.806  1.00  0.00     0.038 A 
HETATM   31  C   UNL     1     -46.339  61.204 -57.807  1.00  0.00     0.020 A 
BRANCH  29  32
HETATM   32  O   UNL     1     -49.692  62.666 -58.463  1.00  0.00    -0.356 OA
HETATM   33  C   UNL     1     -50.758  62.262 -59.313  1.00  0.00     0.210 C 
ENDBRANCH  29  32
ENDBRANCH  10  26
BRANCH   1  34
HETATM   34  C   UNL     1     -42.624  55.610 -54.596  1.00  0.00     0.032 A 
HETATM   35  C   UNL     1     -41.298  55.693 -54.165  1.00  0.00     0.020 A 
HETATM   36  C   UNL     1     -41.015  56.144 -52.873  1.00  0.00     0.038 A 
HETATM   37  C   UNL     1     -42.044  56.560 -52.024  1.00  0.00     0.068 A 
HETATM   38  C   UNL     1     -43.367  56.495 -52.463  1.00  0.00     0.038 A 
HETATM   39  C   UNL     1     -43.657  56.029 -53.752  1.00  0.00     0.020 A 
BRANCH  37  40
HETATM   40  O   UNL     1     -41.633  56.999 -50.795  1.00  0.00    -0.356 OA
HETATM   41  C   UNL     1     -41.379  55.991 -49.822  1.00  0.00     0.210 C 
ENDBRANCH  37  40
ENDBRANCH   1  34
TORSDOF 7
ENDMDL
MODEL 10
REMARK VINA RESULT:      -6.0      1.634      2.321
REMARK  7 active torsions:
REMARK  status: ('A' for Active; 'I' for Inactive)
REMARK    1  A    between atoms: O_2  and  C_3 
REMARK    2  A    between atoms: C_6  and  C_7 
REMARK       I    between atoms: C_7  and  N_8 
REMARK    3  A    between atoms: C_14  and  C_15 
REMARK       I    between atoms: C_15  and  N_16 
REMARK    4  A    between atoms: N_16  and  C_17 
REMARK    5  A    between atoms: C_17  and  C_18 
REMARK       I    between atoms: N_25  and  C_26 
REMARK    6  A    between atoms: C_26  and  C_27 
REMARK    7  A    between atoms: C_30  and  O_31 
ROOT
HETATM    1  C   UNL     1     -40.937  55.967 -51.018  1.00  0.00     0.253 C 
HETATM    2  N   UNL     1     -41.879  56.725 -51.730  1.00  0.00    -0.348 N 
HETATM    3  C   UNL     1     -42.694  56.178 -52.810  1.00  0.00     0.131 C 
HETATM    4  C   UNL     1     -43.990  56.941 -53.015  1.00  0.00     0.081 C 
HETATM    5  C   UNL     1     -43.806  58.460 -53.160  1.00  0.00     0.142 C 
HETATM    6  O   UNL     1     -45.114  59.027 -52.869  1.00  0.00    -0.358 OA
HETATM    7  C   UNL     1     -45.783  59.365 -54.086  1.00  0.00     0.206 C 
HETATM    8  C   UNL     1     -44.807  59.124 -55.219  1.00  0.00     0.206 C 
HETATM    9  N   UNL     1     -43.537  58.904 -54.533  1.00  0.00    -0.300 N 
HETATM   10  C   UNL     1     -42.334  58.640 -55.169  1.00  0.00     0.257 C 
HETATM   11  O   UNL     1     -41.330  58.223 -54.604  1.00  0.00    -0.267 OA
HETATM   12  C   UNL     1     -42.895  59.009 -52.058  1.00  0.00     0.081 C 
HETATM   13  C   UNL     1     -41.670  58.171 -51.716  1.00  0.00     0.131 C 
HETATM   14  O   UNL     1     -40.256  56.427 -50.101  1.00  0.00    -0.267 OA
ENDROOT
BRANCH   8  15
HETATM   15  C   UNL     1     -44.953  60.280 -56.211  1.00  0.00     0.243 C 
HETATM   16  N   UNL     1     -45.294  59.951 -57.502  1.00  0.00    -0.355 N 
HETATM   17  H   UNL     1     -45.663  59.026 -57.687  1.00  0.00     0.162 HD
HETATM   18  O   UNL     1     -44.646  61.425 -55.878  1.00  0.00    -0.271 OA
BRANCH  16  19
HETATM   19  C   UNL     1     -45.596  61.009 -58.443  1.00  0.00     0.161 C 
BRANCH  19  20
HETATM   20  C   UNL     1     -46.675  60.627 -59.417  1.00  0.00    -0.041 A 
HETATM   21  C   UNL     1     -47.872  61.354 -59.475  1.00  0.00     0.009 A 
HETATM   22  C   UNL     1     -48.842  61.045 -60.431  1.00  0.00     0.001 A 
HETATM   23  C   UNL     1     -48.625  60.008 -61.337  1.00  0.00     0.000 A 
HETATM   24  C   UNL     1     -47.439  59.278 -61.288  1.00  0.00     0.001 A 
HETATM   25  C   UNL     1     -46.468  59.586 -60.334  1.00  0.00     0.009 A 
ENDBRANCH  19  20
ENDBRANCH  16  19
ENDBRANCH   8  15
BRANCH  10  26
HETATM   26  C   UNL     1     -42.162  58.949 -56.602  1.00  0.00     0.032 A 
HETATM   27  C   UNL     1     -42.482  57.946 -57.522  1.00  0.00     0.020 A 
HETATM   28  C   UNL     1     -42.379  58.204 -58.888  1.00  0.00     0.038 A 
HETATM   29  C   UNL     1     -41.971  59.461 -59.345  1.00  0.00     0.068 A 
HETATM   30  C   UNL     1     -41.675  60.465 -58.419  1.00  0.00     0.038 A 
HETATM   31  C   UNL     1     -41.785  60.217 -57.046  1.00  0.00     0.020 A 
BRANCH  29  32
HETATM   32  O   UNL     1     -41.915  59.577 -60.705  1.00  0.00    -0.356 OA
HETATM   33  C   UNL     1     -42.904  60.389 -61.324  1.00  0.00     0.210 C 
ENDBRANCH  29  32
ENDBRANCH  10  26
BRANCH   1  34
HETATM   34  C   UNL     1     -40.716  54.541 -51.358  1.00  0.00     0.032 A 
HETATM   35  C   UNL     1     -40.565  54.132 -52.685  1.00  0.00     0.020 A 
HETATM   36  C   UNL     1     -40.293  52.792 -52.971  1.00  0.00     0.038 A 
HETATM   37  C   UNL     1     -40.123  51.865 -51.939  1.00  0.00     0.068 A 
HETATM   38  C   UNL     1     -40.255  52.280 -50.613  1.00  0.00     0.038 A 
HETATM   39  C   UNL     1     -40.543  53.619 -50.321  1.00  0.00     0.020 A 
BRANCH  37  40
HETATM   40  O   UNL     1     -39.840  50.592 -52.351  1.00  0.00    -0.356 OA
HETATM   41  C   UNL     1     -39.496  49.663 -51.329  1.00  0.00     0.210 C 
ENDBRANCH  37  40
ENDBRANCH   1  34
TORSDOF 7
ENDMDL
