MODEL 1
REMARK VINA RESULT:      -8.2      0.000      0.000
REMARK  8 active torsions:
REMARK  status: ('A' for Active; 'I' for Inactive)
REMARK    1  A    between atoms: C_3  and  C_27 
REMARK       I    between atoms: N_12  and  C_13 
REMARK    2  A    between atoms: C_13  and  C_14 
REMARK    3  A    between atoms: C_14  and  O_15 
REMARK    4  A    between atoms: C_18  and  C_36 
REMARK    5  A    between atoms: O_19  and  C_36 
REMARK    6  A    between atoms: C_20  and  O_21 
REMARK    7  A    between atoms: C_27  and  C_28 
REMARK       I    between atoms: C_28  and  N_29 
REMARK    8  A    between atoms: N_29  and  C_30 
ROOT
HETATM    1  C           1     -41.442  59.331 -53.486  0.00  0.00     0.016 C 
HETATM    2  C           1     -42.599  58.550 -52.810  0.00  0.00    -0.030 C 
HETATM    3  C           1     -42.837  57.242 -53.635  0.00  0.00     0.056 C 
HETATM    4  C           1     -43.638  57.592 -54.852  0.00  0.00     0.056 A 
HETATM    5  C           1     -44.723  58.361 -54.783  0.00  0.00     0.012 A 
HETATM    6  S           1     -45.299  58.544 -56.117  0.00  0.00    -0.055 SA
HETATM    7  C           1     -44.285  57.713 -56.778  0.00  0.00     0.174 A 
HETATM    8  N           1     -44.360  57.543 -58.112  0.00  0.00    -0.304 N 
HETATM    9  C           1     -43.532  56.855 -58.950  0.00  0.00     0.247 C 
HETATM   10  O           1     -42.539  56.276 -58.586  0.00  0.00    -0.271 OA
HETATM   11  N           1     -43.391  57.224 -56.029  0.00  0.00    -0.227 NA
HETATM   12  C           1     -44.226  60.118 -51.358  0.00  0.00     0.008 C 
HETATM   13  C           1     -42.950  60.460 -50.567  0.00  0.00     0.128 C 
HETATM   14  C           1     -42.144  58.156 -51.391  0.00  0.00     0.013 C 
HETATM   15  H           1     -45.167  58.001 -58.509  0.00  0.00     0.171 HD
HETATM   16  C           1     -45.130  59.222 -50.475  0.00  0.00     0.020 C 
HETATM   17  C           1     -45.134  58.915 -53.455  0.00  0.00     0.055 C 
HETATM   18  C           1     -43.877  59.469 -52.738  0.00  0.00     0.012 C 
HETATM   19  C           1     -41.906  59.348 -50.460  0.00  0.00     0.033 C 
ENDROOT
BRANCH   3  20
HETATM   20  C           1     -41.606  56.389 -54.011  0.00  0.00     0.114 C 
BRANCH  20  21
HETATM   21  C           1     -41.738  54.940 -53.548  0.00  0.00     0.222 C 
HETATM   22  O           1     -42.787  54.513 -53.140  0.00  0.00    -0.273 OA
HETATM   23  N           1     -40.590  54.212 -53.655  0.00  0.00    -0.327 N 
HETATM   24  H           1     -39.777  54.680 -54.030  0.00  0.00     0.169 HD
BRANCH  23  25
HETATM   25  C           1     -40.279  52.928 -53.380  0.00  0.00     0.034 A 
HETATM   26  C           1     -40.376  52.072 -54.415  0.00  0.00     0.029 A 
HETATM   27  C           1     -40.102  50.767 -54.274  0.00  0.00     0.002 A 
HETATM   28  C           1     -39.717  50.291 -53.082  0.00  0.00     0.000 A 
HETATM   29  C           1     -39.610  51.130 -52.041  0.00  0.00     0.002 A 
HETATM   30  C           1     -39.887  52.436 -52.191  0.00  0.00     0.029 A 
ENDBRANCH  23  25
ENDBRANCH  20  21
ENDBRANCH   3  20
BRANCH  12  31
HETATM   31  C           1     -45.028  61.423 -51.607  0.00  0.00     0.176 C 
BRANCH  31  32
HETATM   32  O           1     -45.162  62.172 -50.416  0.00  0.00    -0.400 OA
HETATM   33  H           1     -44.980  61.612 -49.659  0.00  0.00     0.209 HD
ENDBRANCH  31  32
ENDBRANCH  12  31
BRANCH  13  34
HETATM   34  O           1     -42.365  61.619 -51.117  0.00  0.00    -0.395 OA
HETATM   35  H           1     -42.637  62.368 -50.578  0.00  0.00     0.210 HD
ENDBRANCH  13  34
BRANCH   9  36
HETATM   36  C           1     -43.967  56.884 -60.408  0.00  0.00     0.270 C 
BRANCH  36  37
HETATM   37  O           1     -44.029  55.574 -60.942  0.00  0.00    -0.387 OA
HETATM   38  C           1     -45.145  54.856 -60.467  0.00  0.00     0.202 C 
ENDBRANCH  36  37
ENDBRANCH   9  36
TORSDOF 8
ENDMDL
MODEL 2
REMARK VINA RESULT:      -7.8      2.454      6.214
REMARK  8 active torsions:
REMARK  status: ('A' for Active; 'I' for Inactive)
REMARK    1  A    between atoms: C_3  and  C_27 
REMARK       I    between atoms: N_12  and  C_13 
REMARK    2  A    between atoms: C_13  and  C_14 
REMARK    3  A    between atoms: C_14  and  O_15 
REMARK    4  A    between atoms: C_18  and  C_36 
REMARK    5  A    between atoms: O_19  and  C_36 
REMARK    6  A    between atoms: C_20  and  O_21 
REMARK    7  A    between atoms: C_27  and  C_28 
REMARK       I    between atoms: C_28  and  N_29 
REMARK    8  A    between atoms: N_29  and  C_30 
ROOT
HETATM    1  C           1     -45.623  58.125 -51.342  0.00  0.00     0.016 C 
HETATM    2  C           1     -44.650  59.060 -52.110  0.00  0.00    -0.030 C 
HETATM    3  C           1     -43.752  58.164 -53.025  0.00  0.00     0.056 C 
HETATM    4  C           1     -42.675  57.557 -52.179  0.00  0.00     0.056 A 
HETATM    5  C           1     -41.967  58.281 -51.315  0.00  0.00     0.012 A 
HETATM    6  S           1     -40.994  57.433 -50.622  0.00  0.00    -0.055 SA
HETATM    7  C           1     -41.392  56.217 -51.341  0.00  0.00     0.174 A 
HETATM    8  N           1     -40.759  55.062 -51.056  0.00  0.00    -0.304 N 
HETATM    9  C           1     -40.966  53.810 -51.556  0.00  0.00     0.247 C 
HETATM   10  O           1     -41.814  53.544 -52.370  0.00  0.00    -0.271 OA
HETATM   11  N           1     -42.330  56.347 -52.181  0.00  0.00    -0.227 NA
HETATM   12  C           1     -44.231  61.401 -50.863  0.00  0.00     0.008 C 
HETATM   13  C           1     -45.754  61.580 -50.999  0.00  0.00     0.128 C 
HETATM   14  C           1     -45.490  59.988 -53.008  0.00  0.00     0.013 C 
HETATM   15  H           1     -40.026  55.189 -50.374  0.00  0.00     0.171 HD
HETATM   16  C           1     -43.528  62.373 -51.843  0.00  0.00     0.020 C 
HETATM   17  C           1     -42.279  59.736 -51.164  0.00  0.00     0.055 C 
HETATM   18  C           1     -43.817  59.907 -51.075  0.00  0.00     0.012 C 
HETATM   19  C           1     -46.397  60.950 -52.234  0.00  0.00     0.033 C 
ENDROOT
BRANCH   3  20
HETATM   20  C           1     -44.445  57.090 -53.892  0.00  0.00     0.114 C 
BRANCH  20  21
HETATM   21  C           1     -44.424  57.438 -55.379  0.00  0.00     0.222 C 
HETATM   22  O           1     -45.298  58.103 -55.871  0.00  0.00    -0.273 OA
HETATM   23  N           1     -43.347  56.944 -56.053  0.00  0.00    -0.327 N 
HETATM   24  H           1     -42.670  56.414 -55.523  0.00  0.00     0.169 HD
BRANCH  23  25
HETATM   25  C           1     -42.943  57.027 -57.338  0.00  0.00     0.034 A 
HETATM   26  C           1     -43.187  55.940 -58.095  0.00  0.00     0.029 A 
HETATM   27  C           1     -42.829  55.890 -59.387  0.00  0.00     0.002 A 
HETATM   28  C           1     -42.217  56.941 -59.950  0.00  0.00     0.000 A 
HETATM   29  C           1     -41.970  58.033 -59.212  0.00  0.00     0.002 A 
HETATM   30  C           1     -42.331  58.074 -57.919  0.00  0.00     0.029 A 
ENDBRANCH  23  25
ENDBRANCH  20  21
ENDBRANCH   3  20
BRANCH  12  31
HETATM   31  C           1     -43.798  61.842 -49.440  0.00  0.00     0.176 C 
BRANCH  31  32
HETATM   32  O           1     -44.050  60.823 -48.493  0.00  0.00    -0.400 OA
HETATM   33  H           1     -44.225  61.214 -47.635  0.00  0.00     0.209 HD
ENDBRANCH  31  32
ENDBRANCH  12  31
BRANCH  13  34
HETATM   34  O           1     -46.380  61.099 -49.831  0.00  0.00    -0.395 OA
HETATM   35  H           1     -45.729  60.591 -49.338  0.00  0.00     0.210 HD
ENDBRANCH  13  34
BRANCH   9  36
HETATM   36  C           1     -40.025  52.757 -50.988  0.00  0.00     0.270 C 
BRANCH  36  37
HETATM   37  O           1     -39.542  51.907 -52.013  0.00  0.00    -0.387 OA
HETATM   38  C           1     -39.489  50.557 -51.607  0.00  0.00     0.202 C 
ENDBRANCH  36  37
ENDBRANCH   9  36
TORSDOF 8
ENDMDL
MODEL 3
REMARK VINA RESULT:      -7.8      2.126      6.573
REMARK  8 active torsions:
REMARK  status: ('A' for Active; 'I' for Inactive)
REMARK    1  A    between atoms: C_3  and  C_27 
REMARK       I    between atoms: N_12  and  C_13 
REMARK    2  A    between atoms: C_13  and  C_14 
REMARK    3  A    between atoms: C_14  and  O_15 
REMARK    4  A    between atoms: C_18  and  C_36 
REMARK    5  A    between atoms: O_19  and  C_36 
REMARK    6  A    between atoms: C_20  and  O_21 
REMARK    7  A    between atoms: C_27  and  C_28 
REMARK       I    between atoms: C_28  and  N_29 
REMARK    8  A    between atoms: N_29  and  C_30 
ROOT
HETATM    1  C           1     -44.491  56.836 -55.517  0.00  0.00     0.016 C 
HETATM    2  C           1     -43.117  57.151 -56.166  0.00  0.00    -0.030 C 
HETATM    3  C           1     -42.121  57.518 -55.018  0.00  0.00     0.056 C 
HETATM    4  C           1     -42.376  58.936 -54.608  0.00  0.00     0.056 A 
HETATM    5  C           1     -42.513  59.913 -55.502  0.00  0.00     0.012 A 
HETATM    6  S           1     -42.761  61.188 -54.825  0.00  0.00    -0.055 SA
HETATM    7  C           1     -42.698  60.601 -53.481  0.00  0.00     0.174 A 
HETATM    8  N           1     -42.876  61.406 -52.416  0.00  0.00    -0.304 N 
HETATM    9  C           1     -42.897  61.100 -51.087  0.00  0.00     0.247 C 
HETATM   10  O           1     -42.763  59.983 -50.654  0.00  0.00    -0.271 OA
HETATM   11  N           1     -42.492  59.353 -53.427  0.00  0.00    -0.227 NA
HETATM   12  C           1     -43.313  57.917 -58.733  0.00  0.00     0.008 C 
HETATM   13  C           1     -43.976  56.543 -58.941  0.00  0.00     0.128 C 
HETATM   14  C           1     -42.613  55.871 -56.860  0.00  0.00     0.013 C 
HETATM   15  H           1     -43.001  62.371 -52.686  0.00  0.00     0.171 HD
HETATM   16  C           1     -41.904  57.888 -59.374  0.00  0.00     0.020 C 
HETATM   17  C           1     -42.439  59.577 -56.958  0.00  0.00     0.055 C 
HETATM   18  C           1     -43.293  58.311 -57.219  0.00  0.00     0.012 C 
HETATM   19  C           1     -43.483  55.415 -58.035  0.00  0.00     0.033 C 
ENDROOT
BRANCH   3  20
HETATM   20  C           1     -42.062  56.589 -53.785  0.00  0.00     0.114 C 
BRANCH  20  21
HETATM   21  C           1     -41.034  55.472 -53.946  0.00  0.00     0.222 C 
HETATM   22  O           1     -40.033  55.640 -54.592  0.00  0.00    -0.273 OA
HETATM   23  N           1     -41.356  54.319 -53.293  0.00  0.00    -0.327 N 
HETATM   24  H           1     -42.218  54.308 -52.768  0.00  0.00     0.169 HD
BRANCH  23  25
HETATM   25  C           1     -40.739  53.126 -53.163  0.00  0.00     0.034 A 
HETATM   26  C           1     -40.805  52.316 -54.237  0.00  0.00     0.029 A 
HETATM   27  C           1     -40.238  51.101 -54.235  0.00  0.00     0.002 A 
HETATM   28  C           1     -39.584  50.672 -53.146  0.00  0.00     0.000 A 
HETATM   29  C           1     -39.504  51.467 -52.070  0.00  0.00     0.002 A 
HETATM   30  C           1     -40.075  52.683 -52.080  0.00  0.00     0.029 A 
ENDBRANCH  23  25
ENDBRANCH  20  21
ENDBRANCH   3  20
BRANCH  12  31
HETATM   31  C           1     -44.118  58.987 -59.517  0.00  0.00     0.176 C 
BRANCH  31  32
HETATM   32  O           1     -44.383  58.557 -60.838  0.00  0.00    -0.400 OA
HETATM   33  H           1     -43.596  58.662 -61.376  0.00  0.00     0.209 HD
ENDBRANCH  31  32
ENDBRANCH  12  31
BRANCH  13  34
HETATM   34  O           1     -45.374  56.683 -58.819  0.00  0.00    -0.395 OA
HETATM   35  H           1     -45.657  56.148 -58.071  0.00  0.00     0.210 HD
ENDBRANCH  13  34
BRANCH   9  36
HETATM   36  C           1     -43.112  62.303 -50.180  0.00  0.00     0.270 C 
BRANCH  36  37
HETATM   37  O           1     -44.188  62.076 -49.288  0.00  0.00    -0.387 OA
HETATM   38  C           1     -45.442  62.187 -49.925  0.00  0.00     0.202 C 
ENDBRANCH  36  37
ENDBRANCH   9  36
TORSDOF 8
ENDMDL
MODEL 4
REMARK VINA RESULT:      -7.7     17.274     19.804
REMARK  8 active torsions:
REMARK  status: ('A' for Active; 'I' for Inactive)
REMARK    1  A    between atoms: C_3  and  C_27 
REMARK       I    between atoms: N_12  and  C_13 
REMARK    2  A    between atoms: C_13  and  C_14 
REMARK    3  A    between atoms: C_14  and  O_15 
REMARK    4  A    between atoms: C_18  and  C_36 
REMARK    5  A    between atoms: O_19  and  C_36 
REMARK    6  A    between atoms: C_20  and  O_21 
REMARK    7  A    between atoms: C_27  and  C_28 
REMARK       I    between atoms: C_28  and  N_29 
REMARK    8  A    between atoms: N_29  and  C_30 
ROOT
HETATM    1  C           1     -34.886  41.292 -50.739  0.00  0.00     0.016 C 
HETATM    2  C           1     -34.541  39.989 -51.507  0.00  0.00    -0.030 C 
HETATM    3  C           1     -35.709  39.700 -52.506  0.00  0.00     0.056 C 
HETATM    4  C           1     -36.839  39.080 -51.742  0.00  0.00     0.056 A 
HETATM    5  C           1     -36.643  38.086 -50.879  0.00  0.00     0.012 A 
HETATM    6  S           1     -37.915  37.682 -50.274  0.00  0.00    -0.055 SA
HETATM    7  C           1     -38.701  38.664 -51.030  0.00  0.00     0.174 A 
HETATM    8  N           1     -40.032  38.717 -50.831  0.00  0.00    -0.304 N 
HETATM    9  C           1     -40.962  39.551 -51.380  0.00  0.00     0.247 C 
HETATM   10  O           1     -40.698  40.428 -52.164  0.00  0.00    -0.271 OA
HETATM   11  N           1     -38.050  39.412 -51.817  0.00  0.00    -0.227 NA
HETATM   12  C           1     -32.839  38.396 -50.171  0.00  0.00     0.008 C 
HETATM   13  C           1     -31.891  39.608 -50.226  0.00  0.00     0.128 C 
HETATM   14  C           1     -33.255  40.240 -52.319  0.00  0.00     0.013 C 
HETATM   15  H           1     -40.347  38.013 -50.180  0.00  0.00     0.171 HD
HETATM   16  C           1     -32.308  37.308 -51.137  0.00  0.00     0.020 C 
HETATM   17  C           1     -35.249  37.596 -50.644  0.00  0.00     0.055 C 
HETATM   18  C           1     -34.315  38.820 -50.474  0.00  0.00     0.012 C 
HETATM   19  C           1     -32.017  40.505 -51.458  0.00  0.00     0.033 C 
ENDROOT
BRANCH   3  20
HETATM   20  C           1     -36.212  40.863 -53.389  0.00  0.00     0.114 C 
BRANCH  20  21
HETATM   21  C           1     -36.059  40.571 -54.880  0.00  0.00     0.222 C 
HETATM   22  O           1     -35.117  39.946 -55.295  0.00  0.00    -0.273 OA
HETATM   23  N           1     -37.070  41.063 -55.652  0.00  0.00    -0.327 N 
HETATM   24  H           1     -37.815  41.555 -55.182  0.00  0.00     0.169 HD
BRANCH  23  25
HETATM   25  C           1     -37.328  41.019 -56.975  0.00  0.00     0.034 A 
HETATM   26  C           1     -36.806  42.025 -57.703  0.00  0.00     0.029 A 
HETATM   27  C           1     -36.995  42.102 -59.029  0.00  0.00     0.002 A 
HETATM   28  C           1     -37.714  41.161 -59.657  0.00  0.00     0.000 A 
HETATM   29  C           1     -38.236  40.150 -58.948  0.00  0.00     0.002 A 
HETATM   30  C           1     -38.043  40.080 -57.621  0.00  0.00     0.029 A 
ENDBRANCH  23  25
ENDBRANCH  20  21
ENDBRANCH   3  20
BRANCH  12  31
HETATM   31  C           1     -32.779  37.775 -48.751  0.00  0.00     0.176 C 
BRANCH  31  32
HETATM   32  O           1     -31.463  37.812 -48.235  0.00  0.00    -0.400 OA
HETATM   33  H           1     -31.441  37.389 -47.375  0.00  0.00     0.209 HD
ENDBRANCH  31  32
ENDBRANCH  12  31
BRANCH  13  34
HETATM   34  O           1     -32.055  40.374 -49.054  0.00  0.00    -0.395 OA
HETATM   35  H           1     -32.366  39.785 -48.360  0.00  0.00     0.210 HD
ENDBRANCH  13  34
BRANCH   9  36
HETATM   36  C           1     -42.384  39.283 -50.908  0.00  0.00     0.270 C 
BRANCH  36  37
HETATM   37  O           1     -42.394  38.827 -49.568  0.00  0.00    -0.387 OA
HETATM   38  C           1     -43.361  37.824 -49.352  0.00  0.00     0.202 C 
ENDBRANCH  36  37
ENDBRANCH   9  36
TORSDOF 8
ENDMDL
MODEL 5
REMARK VINA RESULT:      -7.7      1.744      2.267
REMARK  8 active torsions:
REMARK  status: ('A' for Active; 'I' for Inactive)
REMARK    1  A    between atoms: C_3  and  C_27 
REMARK       I    between atoms: N_12  and  C_13 
REMARK    2  A    between atoms: C_13  and  C_14 
REMARK    3  A    between atoms: C_14  and  O_15 
REMARK    4  A    between atoms: C_18  and  C_36 
REMARK    5  A    between atoms: O_19  and  C_36 
REMARK    6  A    between atoms: C_20  and  O_21 
REMARK    7  A    between atoms: C_27  and  C_28 
REMARK       I    between atoms: C_28  and  N_29 
REMARK    8  A    between atoms: N_29  and  C_30 
ROOT
HETATM    1  C           1     -40.618  57.869 -53.605  0.00  0.00     0.016 C 
HETATM    2  C           1     -41.960  57.163 -53.273  0.00  0.00    -0.030 C 
HETATM    3  C           1     -42.393  56.347 -54.535  0.00  0.00     0.056 C 
HETATM    4  C           1     -43.010  57.294 -55.519  0.00  0.00     0.056 A 
HETATM    5  C           1     -43.917  58.197 -55.153  0.00  0.00     0.012 A 
HETATM    6  S           1     -44.339  58.988 -56.311  0.00  0.00    -0.055 SA
HETATM    7  C           1     -43.467  58.268 -57.247  0.00  0.00     0.174 A 
HETATM    8  N           1     -43.472  58.632 -58.544  0.00  0.00    -0.304 N 
HETATM    9  C           1     -42.738  58.147 -59.587  0.00  0.00     0.247 C 
HETATM   10  O           1     -41.916  57.272 -59.479  0.00  0.00    -0.271 OA
HETATM   11  N           1     -42.752  57.350 -56.749  0.00  0.00    -0.227 NA
HETATM   12  C           1     -43.341  58.384 -51.319  0.00  0.00     0.008 C 
HETATM   13  C           1     -42.087  58.117 -50.466  0.00  0.00     0.128 C 
HETATM   14  C           1     -41.706  56.176 -52.117  0.00  0.00     0.013 C 
HETATM   15  H           1     -44.136  59.369 -58.729  0.00  0.00     0.171 HD
HETATM   16  C           1     -44.474  57.442 -50.842  0.00  0.00     0.020 C 
HETATM   17  C           1     -44.309  58.286 -53.712  0.00  0.00     0.055 C 
HETATM   18  C           1     -43.025  58.243 -52.845  0.00  0.00     0.012 C 
HETATM   19  C           1     -41.303  56.848 -50.801  0.00  0.00     0.033 C 
ENDROOT
BRANCH   3  20
HETATM   20  C           1     -41.337  55.452 -55.217  0.00  0.00     0.114 C 
BRANCH  20  21
HETATM   21  C           1     -41.503  53.976 -54.860  0.00  0.00     0.222 C 
HETATM   22  O           1     -42.509  53.380 -55.147  0.00  0.00    -0.273 OA
HETATM   23  N           1     -40.429  53.431 -54.222  0.00  0.00    -0.327 N 
HETATM   24  H           1     -39.635  54.032 -54.054  0.00  0.00     0.169 HD
BRANCH  23  25
HETATM   25  C           1     -40.160  52.194 -53.757  0.00  0.00     0.034 A 
HETATM   26  C           1     -39.849  52.119 -52.448  0.00  0.00     0.029 A 
HETATM   27  C           1     -39.554  50.949 -51.863  0.00  0.00     0.002 A 
HETATM   28  C           1     -39.568  49.820 -52.585  0.00  0.00     0.000 A 
HETATM   29  C           1     -39.881  49.875 -53.888  0.00  0.00     0.002 A 
HETATM   30  C           1     -40.175  51.051 -54.466  0.00  0.00     0.029 A 
ENDBRANCH  23  25
ENDBRANCH  20  21
ENDBRANCH   3  20
BRANCH  12  31
HETATM   31  C           1     -43.839  59.827 -51.044  0.00  0.00     0.176 C 
BRANCH  31  32
HETATM   32  O           1     -44.560  59.892 -49.829  0.00  0.00    -0.400 OA
HETATM   33  H           1     -45.001  59.056 -49.669  0.00  0.00     0.209 HD
ENDBRANCH  31  32
ENDBRANCH  12  31
BRANCH  13  34
HETATM   34  O           1     -41.237  59.240 -50.533  0.00  0.00    -0.395 OA
HETATM   35  H           1     -41.264  59.575 -51.434  0.00  0.00     0.210 HD
ENDBRANCH  13  34
BRANCH   9  36
HETATM   36  C           1     -43.044  58.816 -60.919  0.00  0.00     0.270 C 
BRANCH  36  37
HETATM   37  O           1     -43.055  60.226 -60.785  0.00  0.00    -0.387 OA
HETATM   38  C           1     -41.784  60.794 -61.009  0.00  0.00     0.202 C 
ENDBRANCH  36  37
ENDBRANCH   9  36
TORSDOF 8
ENDMDL
MODEL 6
REMARK VINA RESULT:      -7.3      2.424      6.685
REMARK  8 active torsions:
REMARK  status: ('A' for Active; 'I' for Inactive)
REMARK    1  A    between atoms: C_3  and  C_27 
REMARK       I    between atoms: N_12  and  C_13 
REMARK    2  A    between atoms: C_13  and  C_14 
REMARK    3  A    between atoms: C_14  and  O_15 
REMARK    4  A    between atoms: C_18  and  C_36 
REMARK    5  A    between atoms: O_19  and  C_36 
REMARK    6  A    between atoms: C_20  and  O_21 
REMARK    7  A    between atoms: C_27  and  C_28 
REMARK       I    between atoms: C_28  and  N_29 
REMARK    8  A    between atoms: N_29  and  C_30 
ROOT
HETATM    1  C           1     -45.154  56.923 -55.065  0.00  0.00     0.016 C 
HETATM    2  C           1     -43.735  57.509 -55.290  0.00  0.00    -0.030 C 
HETATM    3  C           1     -43.173  57.946 -53.898  0.00  0.00     0.056 C 
HETATM    4  C           1     -43.781  59.268 -53.539  0.00  0.00     0.056 A 
HETATM    5  C           1     -43.840  60.274 -54.409  0.00  0.00     0.012 A 
HETATM    6  S           1     -44.489  61.436 -53.796  0.00  0.00    -0.055 SA
HETATM    7  C           1     -44.692  60.767 -52.505  0.00  0.00     0.174 A 
HETATM    8  N           1     -45.295  61.449 -51.513  0.00  0.00    -0.304 N 
HETATM    9  C           1     -45.624  61.043 -50.252  0.00  0.00     0.247 C 
HETATM   10  O           1     -45.416  59.934 -49.829  0.00  0.00    -0.271 OA
HETATM   11  N           1     -44.288  59.570 -52.429  0.00  0.00    -0.227 NA
HETATM   12  C           1     -43.355  58.425 -57.787  0.00  0.00     0.008 C 
HETATM   13  C           1     -43.678  56.979 -58.210  0.00  0.00     0.128 C 
HETATM   14  C           1     -42.838  56.385 -55.847  0.00  0.00     0.013 C 
HETATM   15  H           1     -45.512  62.398 -51.781  0.00  0.00     0.171 HD
HETATM   16  C           1     -41.842  58.677 -58.004  0.00  0.00     0.020 C 
HETATM   17  C           1     -43.312  60.066 -55.793  0.00  0.00     0.055 C 
HETATM   18  C           1     -43.820  58.700 -56.319  0.00  0.00     0.012 C 
HETATM   19  C           1     -43.258  55.882 -57.232  0.00  0.00     0.033 C 
ENDROOT
BRANCH   3  20
HETATM   20  C           1     -43.288  56.950 -52.724  0.00  0.00     0.114 C 
BRANCH  20  21
HETATM   21  C           1     -42.007  56.147 -52.513  0.00  0.00     0.222 C 
HETATM   22  O           1     -41.009  56.673 -52.093  0.00  0.00    -0.273 OA
HETATM   23  N           1     -42.118  54.824 -52.826  0.00  0.00    -0.327 N 
HETATM   24  H           1     -43.016  54.499 -53.153  0.00  0.00     0.169 HD
BRANCH  23  25
HETATM   25  C           1     -41.258  53.786 -52.775  0.00  0.00     0.034 A 
HETATM   26  C           1     -40.975  53.206 -53.956  0.00  0.00     0.029 A 
HETATM   27  C           1     -40.140  52.159 -54.043  0.00  0.00     0.002 A 
HETATM   28  C           1     -39.564  51.673 -52.934  0.00  0.00     0.000 A 
HETATM   29  C           1     -39.830  52.242 -51.749  0.00  0.00     0.002 A 
HETATM   30  C           1     -40.668  53.290 -51.672  0.00  0.00     0.029 A 
ENDBRANCH  23  25
ENDBRANCH  20  21
ENDBRANCH   3  20
BRANCH  12  31
HETATM   31  C           1     -44.093  59.404 -58.737  0.00  0.00     0.176 C 
BRANCH  31  32
HETATM   32  O           1     -43.908  59.035 -60.090  0.00  0.00    -0.400 OA
HETATM   33  H           1     -42.972  59.013 -60.294  0.00  0.00     0.209 HD
ENDBRANCH  31  32
ENDBRANCH  12  31
BRANCH  13  34
HETATM   34  O           1     -45.058  56.878 -58.484  0.00  0.00    -0.395 OA
HETATM   35  H           1     -45.496  56.595 -57.676  0.00  0.00     0.210 HD
ENDBRANCH  13  34
BRANCH   9  36
HETATM   36  C           1     -46.291  62.122 -49.412  0.00  0.00     0.270 C 
BRANCH  36  37
HETATM   37  O           1     -46.620  61.629 -48.126  0.00  0.00    -0.387 OA
HETATM   38  C           1     -45.932  62.310 -47.100  0.00  0.00     0.202 C 
ENDBRANCH  36  37
ENDBRANCH   9  36
TORSDOF 8
ENDMDL
MODEL 7
REMARK VINA RESULT:      -7.2      2.626      7.018
REMARK  8 active torsions:
REMARK  status: ('A' for Active; 'I' for Inactive)
REMARK    1  A    between atoms: C_3  and  C_27 
REMARK       I    between atoms: N_12  and  C_13 
REMARK    2  A    between atoms: C_13  and  C_14 
REMARK    3  A    between atoms: C_14  and  O_15 
REMARK    4  A    between atoms: C_18  and  C_36 
REMARK    5  A    between atoms: O_19  and  C_36 
REMARK    6  A    between atoms: C_20  and  O_21 
REMARK    7  A    between atoms: C_27  and  C_28 
REMARK       I    between atoms: C_28  and  N_29 
REMARK    8  A    between atoms: N_29  and  C_30 
ROOT
HETATM    1  C           1     -40.811  56.680 -53.648  0.00  0.00     0.016 C 
HETATM    2  C           1     -42.267  56.196 -53.414  0.00  0.00    -0.030 C 
HETATM    3  C           1     -43.227  57.238 -54.075  0.00  0.00     0.056 C 
HETATM    4  C           1     -43.353  58.414 -53.154  0.00  0.00     0.056 A 
HETATM    5  C           1     -43.575  58.265 -51.850  0.00  0.00     0.012 A 
HETATM    6  S           1     -43.644  59.574 -51.196  0.00  0.00    -0.055 SA
HETATM    7  C           1     -43.425  60.320 -52.441  0.00  0.00     0.174 A 
HETATM    8  N           1     -43.396  61.665 -52.391  0.00  0.00    -0.304 N 
HETATM    9  C           1     -43.179  62.569 -53.390  0.00  0.00     0.247 C 
HETATM   10  O           1     -42.953  62.263 -54.534  0.00  0.00    -0.271 OA
HETATM   11  N           1     -43.263  59.624 -53.486  0.00  0.00    -0.227 NA
HETATM   12  C           1     -42.510  54.575 -51.286  0.00  0.00     0.008 C 
HETATM   13  C           1     -41.504  53.682 -52.034  0.00  0.00     0.128 C 
HETATM   14  C           1     -42.443  54.845 -54.133  0.00  0.00     0.013 C 
HETATM   15  H           1     -43.574  62.015 -51.461  0.00  0.00     0.171 HD
HETATM   16  C           1     -43.902  53.896 -51.329  0.00  0.00     0.020 C 
HETATM   17  C           1     -43.670  56.883 -51.285  0.00  0.00     0.055 C 
HETATM   18  C           1     -42.517  56.028 -51.867  0.00  0.00     0.012 C 
HETATM   19  C           1     -41.578  53.717 -53.561  0.00  0.00     0.033 C 
ENDROOT
BRANCH   3  20
HETATM   20  C           1     -42.917  57.697 -55.516  0.00  0.00     0.114 C 
BRANCH  20  21
HETATM   21  C           1     -44.081  57.444 -56.472  0.00  0.00     0.222 C 
HETATM   22  O           1     -45.200  57.789 -56.189  0.00  0.00    -0.273 OA
HETATM   23  N           1     -43.726  56.825 -57.634  0.00  0.00    -0.327 N 
HETATM   24  H           1     -42.749  56.603 -57.761  0.00  0.00     0.169 HD
BRANCH  23  25
HETATM   25  C           1     -44.418  56.441 -58.726  0.00  0.00     0.034 A 
HETATM   26  C           1     -44.020  55.284 -59.289  0.00  0.00     0.029 A 
HETATM   27  C           1     -44.620  54.793 -60.384  0.00  0.00     0.002 A 
HETATM   28  C           1     -45.644  55.458 -60.937  0.00  0.00     0.000 A 
HETATM   29  C           1     -46.057  56.609 -60.387  0.00  0.00     0.002 A 
HETATM   30  C           1     -45.450  57.093 -59.291  0.00  0.00     0.029 A 
ENDBRANCH  23  25
ENDBRANCH  20  21
ENDBRANCH   3  20
BRANCH  12  31
HETATM   31  C           1     -42.111  54.637 -49.788  0.00  0.00     0.176 C 
BRANCH  31  32
HETATM   32  O           1     -41.123  55.625 -49.566  0.00  0.00    -0.400 OA
HETATM   33  H           1     -40.275  55.311 -49.885  0.00  0.00     0.209 HD
ENDBRANCH  31  32
ENDBRANCH  12  31
BRANCH  13  34
HETATM   34  O           1     -40.198  54.003 -51.608  0.00  0.00    -0.395 OA
HETATM   35  H           1     -39.623  53.972 -52.379  0.00  0.00     0.210 HD
ENDBRANCH  13  34
BRANCH   9  36
HETATM   36  C           1     -43.240  64.019 -52.933  0.00  0.00     0.270 C 
BRANCH  36  37
HETATM   37  O           1     -44.507  64.320 -52.378  0.00  0.00    -0.387 OA
HETATM   38  C           1     -45.485  64.543 -53.370  0.00  0.00     0.202 C 
ENDBRANCH  36  37
ENDBRANCH   9  36
TORSDOF 8
ENDMDL
MODEL 8
REMARK VINA RESULT:      -7.1      3.599      6.670
REMARK  8 active torsions:
REMARK  status: ('A' for Active; 'I' for Inactive)
REMARK    1  A    between atoms: C_3  and  C_27 
REMARK       I    between atoms: N_12  and  C_13 
REMARK    2  A    between atoms: C_13  and  C_14 
REMARK    3  A    between atoms: C_14  and  O_15 
REMARK    4  A    between atoms: C_18  and  C_36 
REMARK    5  A    between atoms: O_19  and  C_36 
REMARK    6  A    between atoms: C_20  and  O_21 
REMARK    7  A    between atoms: C_27  and  C_28 
REMARK       I    between atoms: C_28  and  N_29 
REMARK    8  A    between atoms: N_29  and  C_30 
ROOT
HETATM    1  C           1     -44.642  59.527 -53.750  0.00  0.00     0.016 C 
HETATM    2  C           1     -43.139  59.589 -54.131  0.00  0.00    -0.030 C 
HETATM    3  C           1     -43.048  59.812 -55.676  0.00  0.00     0.056 C 
HETATM    4  C           1     -43.279  58.497 -56.356  0.00  0.00     0.056 A 
HETATM    5  C           1     -42.667  57.383 -55.961  0.00  0.00     0.012 A 
HETATM    6  S           1     -43.084  56.253 -56.795  0.00  0.00    -0.055 SA
HETATM    7  C           1     -43.975  57.068 -57.629  0.00  0.00     0.174 A 
HETATM    8  N           1     -44.656  56.467 -58.624  0.00  0.00    -0.304 N 
HETATM    9  C           1     -45.558  56.993 -59.503  0.00  0.00     0.247 C 
HETATM   10  O           1     -45.903  58.148 -59.500  0.00  0.00    -0.271 OA
HETATM   11  N           1     -44.047  58.296 -57.333  0.00  0.00    -0.227 NA
HETATM   12  C           1     -41.551  58.332 -52.367  0.00  0.00     0.008 C 
HETATM   13  C           1     -42.139  59.328 -51.350  0.00  0.00     0.128 C 
HETATM   14  C           1     -42.517  60.809 -53.424  0.00  0.00     0.013 C 
HETATM   15  H           1     -44.431  55.486 -58.701  0.00  0.00     0.171 HD
HETATM   16  C           1     -40.079  58.724 -52.649  0.00  0.00     0.020 C 
HETATM   17  C           1     -41.746  57.443 -54.784  0.00  0.00     0.055 C 
HETATM   18  C           1     -42.428  58.263 -53.660  0.00  0.00     0.012 C 
HETATM   19  C           1     -42.511  60.706 -51.896  0.00  0.00     0.033 C 
ENDROOT
BRANCH   3  20
HETATM   20  C           1     -43.925  60.918 -56.302  0.00  0.00     0.114 C 
BRANCH  20  21
HETATM   21  C           1     -43.103  61.944 -57.079  0.00  0.00     0.222 C 
HETATM   22  O           1     -43.177  63.118 -56.823  0.00  0.00    -0.273 OA
HETATM   23  N           1     -42.302  61.405 -58.042  0.00  0.00    -0.327 N 
HETATM   24  H           1     -42.315  60.401 -58.147  0.00  0.00     0.169 HD
BRANCH  23  25
HETATM   25  C           1     -41.427  61.936 -58.921  0.00  0.00     0.034 A 
HETATM   26  C           1     -41.763  61.816 -60.220  0.00  0.00     0.029 A 
HETATM   27  C           1     -40.977  62.294 -61.195  0.00  0.00     0.002 A 
HETATM   28  C           1     -39.829  62.912 -60.883  0.00  0.00     0.000 A 
HETATM   29  C           1     -39.481  63.046 -59.595  0.00  0.00     0.002 A 
HETATM   30  C           1     -40.275  62.563 -58.625  0.00  0.00     0.029 A 
ENDBRANCH  23  25
ENDBRANCH  20  21
ENDBRANCH   3  20
BRANCH  12  31
HETATM   31  C           1     -41.502  56.923 -51.720  0.00  0.00     0.176 C 
BRANCH  31  32
HETATM   32  O           1     -40.942  56.978 -50.423  0.00  0.00    -0.400 OA
HETATM   33  H           1     -39.994  56.839 -50.474  0.00  0.00     0.209 HD
ENDBRANCH  31  32
ENDBRANCH  12  31
BRANCH  13  34
HETATM   34  O           1     -43.257  58.740 -50.724  0.00  0.00    -0.395 OA
HETATM   35  H           1     -43.128  58.806 -49.773  0.00  0.00     0.210 HD
ENDBRANCH  13  34
BRANCH   9  36
HETATM   36  C           1     -46.105  55.983 -60.502  0.00  0.00     0.270 C 
BRANCH  36  37
HETATM   37  O           1     -47.519  56.045 -60.557  0.00  0.00    -0.387 OA
HETATM   38  C           1     -47.983  56.592 -61.772  0.00  0.00     0.202 C 
ENDBRANCH  36  37
ENDBRANCH   9  36
TORSDOF 8
ENDMDL
MODEL 9
REMARK VINA RESULT:      -7.0      3.047      6.636
REMARK  8 active torsions:
REMARK  status: ('A' for Active; 'I' for Inactive)
REMARK    1  A    between atoms: C_3  and  C_27 
REMARK       I    between atoms: N_12  and  C_13 
REMARK    2  A    between atoms: C_13  and  C_14 
REMARK    3  A    between atoms: C_14  and  O_15 
REMARK    4  A    between atoms: C_18  and  C_36 
REMARK    5  A    between atoms: O_19  and  C_36 
REMARK    6  A    between atoms: C_20  and  O_21 
REMARK    7  A    between atoms: C_27  and  C_28 
REMARK       I    between atoms: C_28  and  N_29 
REMARK    8  A    between atoms: N_29  and  C_30 
ROOT
HETATM    1  C           1     -40.412  55.745 -54.317  0.00  0.00     0.016 C 
HETATM    2  C           1     -41.879  55.308 -54.062  0.00  0.00    -0.030 C 
HETATM    3  C           1     -42.768  55.954 -55.174  0.00  0.00     0.056 C 
HETATM    4  C           1     -43.016  57.385 -54.807  0.00  0.00     0.056 A 
HETATM    5  C           1     -43.387  57.743 -53.580  0.00  0.00     0.012 A 
HETATM    6  S           1     -43.549  59.197 -53.504  0.00  0.00    -0.055 SA
HETATM    7  C           1     -43.195  59.411 -54.912  0.00  0.00     0.174 A 
HETATM    8  N           1     -43.189  60.669 -55.393  0.00  0.00    -0.304 N 
HETATM    9  C           1     -42.868  61.124 -56.638  0.00  0.00     0.247 C 
HETATM   10  O           1     -42.506  60.411 -57.540  0.00  0.00    -0.271 OA
HETATM   11  N           1     -42.903  58.374 -55.577  0.00  0.00    -0.227 NA
HETATM   12  C           1     -42.349  54.631 -51.505  0.00  0.00     0.008 C 
HETATM   13  C           1     -41.251  53.577 -51.735  0.00  0.00     0.128 C 
HETATM   14  C           1     -41.952  53.775 -54.207  0.00  0.00     0.013 C 
HETATM   15  H           1     -43.479  61.342 -54.698  0.00  0.00     0.171 HD
HETATM   16  C           1     -43.717  53.910 -51.421  0.00  0.00     0.020 C 
HETATM   17  C           1     -43.530  56.687 -52.531  0.00  0.00     0.055 C 
HETATM   18  C           1     -42.306  55.741 -52.608  0.00  0.00     0.012 C 
HETATM   19  C           1     -41.147  53.011 -53.152  0.00  0.00     0.033 C 
ENDROOT
BRANCH   3  20
HETATM   20  C           1     -42.298  55.833 -56.640  0.00  0.00     0.114 C 
BRANCH  20  21
HETATM   21  C           1     -43.430  55.436 -57.585  0.00  0.00     0.222 C 
HETATM   22  O           1     -43.753  54.284 -57.714  0.00  0.00    -0.273 OA
HETATM   23  N           1     -44.016  56.487 -58.227  0.00  0.00    -0.327 N 
HETATM   24  H           1     -43.666  57.411 -58.020  0.00  0.00     0.169 HD
BRANCH  23  25
HETATM   25  C           1     -45.031  56.581 -59.110  0.00  0.00     0.034 A 
HETATM   26  C           1     -45.911  57.574 -58.880  0.00  0.00     0.029 A 
HETATM   27  C           1     -46.970  57.773 -59.680  0.00  0.00     0.002 A 
HETATM   28  C           1     -47.166  56.974 -60.738  0.00  0.00     0.000 A 
HETATM   29  C           1     -46.297  55.983 -60.985  0.00  0.00     0.002 A 
HETATM   30  C           1     -45.239  55.791 -60.179  0.00  0.00     0.029 A 
ENDBRANCH  23  25
ENDBRANCH  20  21
ENDBRANCH   3  20
BRANCH  12  31
HETATM   31  C           1     -42.128  55.294 -50.120  0.00  0.00     0.176 C 
BRANCH  31  32
HETATM   32  O           1     -41.856  54.322 -49.130  0.00  0.00    -0.400 OA
HETATM   33  H           1     -41.191  53.711 -49.451  0.00  0.00     0.209 HD
ENDBRANCH  31  32
ENDBRANCH  12  31
BRANCH  13  34
HETATM   34  O           1     -40.008  54.113 -51.338  0.00  0.00    -0.395 OA
HETATM   35  H           1     -39.382  53.385 -51.276  0.00  0.00     0.210 HD
ENDBRANCH  13  34
BRANCH   9  36
HETATM   36  C           1     -43.000  62.632 -56.797  0.00  0.00     0.270 C 
BRANCH  36  37
HETATM   37  O           1     -42.712  63.027 -58.125  0.00  0.00    -0.387 OA
HETATM   38  C           1     -41.453  63.653 -58.236  0.00  0.00     0.202 C 
ENDBRANCH  36  37
ENDBRANCH   9  36
TORSDOF 8
ENDMDL
MODEL 10
REMARK VINA RESULT:      -7.0      2.783      8.048
REMARK  8 active torsions:
REMARK  status: ('A' for Active; 'I' for Inactive)
REMARK    1  A    between atoms: C_3  and  C_27 
REMARK       I    between atoms: N_12  and  C_13 
REMARK    2  A    between atoms: C_13  and  C_14 
REMARK    3  A    between atoms: C_14  and  O_15 
REMARK    4  A    between atoms: C_18  and  C_36 
REMARK    5  A    between atoms: O_19  and  C_36 
REMARK    6  A    between atoms: C_20  and  O_21 
REMARK    7  A    between atoms: C_27  and  C_28 
REMARK       I    between atoms: C_28  and  N_29 
REMARK    8  A    between atoms: N_29  and  C_30 
ROOT
HETATM    1  C           1     -41.635  58.913 -53.938  0.00  0.00     0.016 C 
HETATM    2  C           1     -43.106  58.481 -54.176  0.00  0.00    -0.030 C 
HETATM    3  C           1     -43.564  57.645 -52.936  0.00  0.00     0.056 C 
HETATM    4  C           1     -43.019  56.257 -53.077  0.00  0.00     0.056 A 
HETATM    5  C           1     -43.111  55.576 -54.217  0.00  0.00     0.012 A 
HETATM    6  S           1     -42.490  54.257 -54.072  0.00  0.00    -0.055 SA
HETATM    7  C           1     -42.121  54.475 -52.668  0.00  0.00     0.174 A 
HETATM    8  N           1     -41.476  53.493 -52.010  0.00  0.00    -0.304 N 
HETATM    9  C           1     -41.004  53.466 -50.730  0.00  0.00     0.247 C 
HETATM   10  O           1     -41.094  54.391 -49.962  0.00  0.00    -0.271 OA
HETATM   11  N           1     -42.432  55.600 -52.178  0.00  0.00    -0.227 NA
HETATM   12  C           1     -43.780  58.417 -56.776  0.00  0.00     0.008 C 
HETATM   13  C           1     -43.398  59.909 -56.761  0.00  0.00     0.128 C 
HETATM   14  C           1     -43.971  59.754 -54.253  0.00  0.00     0.013 C 
HETATM   15  H           1     -41.351  52.671 -52.582  0.00  0.00     0.171 HD
HETATM   16  C           1     -45.320  58.302 -56.892  0.00  0.00     0.020 C 
HETATM   17  C           1     -43.751  56.231 -55.400  0.00  0.00     0.055 C 
HETATM   18  C           1     -43.200  57.674 -55.527  0.00  0.00     0.012 C 
HETATM   19  C           1     -43.648  60.654 -55.450  0.00  0.00     0.033 C 
ENDROOT
BRANCH   3  20
HETATM   20  C           1     -43.271  58.214 -51.531  0.00  0.00     0.114 C 
BRANCH  20  21
HETATM   21  C           1     -44.512  58.816 -50.875  0.00  0.00     0.222 C 
HETATM   22  O           1     -45.524  58.174 -50.762  0.00  0.00    -0.273 OA
HETATM   23  N           1     -44.348  60.097 -50.439  0.00  0.00    -0.327 N 
HETATM   24  H           1     -43.442  60.522 -50.576  0.00  0.00     0.169 HD
BRANCH  23  25
HETATM   25  C           1     -45.159  60.971 -49.809  0.00  0.00     0.034 A 
HETATM   26  C           1     -45.041  61.012 -48.468  0.00  0.00     0.029 A 
HETATM   27  C           1     -45.795  61.832 -47.722  0.00  0.00     0.002 A 
HETATM   28  C           1     -46.688  62.639 -48.312  0.00  0.00     0.000 A 
HETATM   29  C           1     -46.815  62.616 -49.647  0.00  0.00     0.002 A 
HETATM   30  C           1     -46.056  61.790 -50.387  0.00  0.00     0.029 A 
ENDBRANCH  23  25
ENDBRANCH  20  21
ENDBRANCH   3  20
BRANCH  12  31
HETATM   31  C           1     -43.204  57.764 -58.059  0.00  0.00     0.176 C 
BRANCH  31  32
HETATM   32  O           1     -41.838  57.439 -57.895  0.00  0.00    -0.400 OA
HETATM   33  H           1     -41.395  58.138 -57.409  0.00  0.00     0.209 HD
ENDBRANCH  31  32
ENDBRANCH  12  31
BRANCH  13  34
HETATM   34  O           1     -42.047  60.042 -57.141  0.00  0.00    -0.395 OA
HETATM   35  H           1     -41.818  59.279 -57.680  0.00  0.00     0.210 HD
ENDBRANCH  13  34
BRANCH   9  36
HETATM   36  C           1     -40.338  52.153 -50.346  0.00  0.00     0.270 C 
BRANCH  36  37
HETATM   37  O           1     -39.853  51.479 -51.494  0.00  0.00    -0.387 OA
HETATM   38  C           1     -39.471  50.151 -51.212  0.00  0.00     0.202 C 
ENDBRANCH  36  37
ENDBRANCH   9  36
TORSDOF 8
ENDMDL
