MODEL 1
REMARK VINA RESULT:      -7.2      0.000      0.000
REMARK  2 active torsions:
REMARK  status: ('A' for Active; 'I' for Inactive)
REMARK    1  A    between atoms: C_2  and  C_3 
REMARK       I    between atoms: C_3  and  N_4 
REMARK    2  A    between atoms: N_4  and  C_5 
ROOT
HETATM    1  C   UNL     1     -41.026  55.051 -54.902  1.00  0.00     0.174 A 
HETATM    2  S   UNL     1     -41.180  55.398 -53.246  1.00  0.00    -0.050 SA
HETATM    3  C   UNL     1     -40.671  53.799 -52.855  1.00  0.00     0.040 A 
HETATM    4  C   UNL     1     -40.408  53.110 -54.050  1.00  0.00     0.079 A 
HETATM    5  N   UNL     1     -40.614  53.845 -55.207  1.00  0.00    -0.223 NA
HETATM    6  C   UNL     1     -40.520  53.206 -51.589  1.00  0.00     0.061 A 
HETATM    7  C   UNL     1     -40.097  51.890 -51.590  1.00  0.00     0.106 A 
HETATM    8  C   UNL     1     -39.834  51.199 -52.745  1.00  0.00     0.107 A 
HETATM    9  O   UNL     1     -39.433  49.920 -52.506  1.00  0.00    -0.323 OA
HETATM   10  C   UNL     1     -39.482  49.883 -51.064  1.00  0.00     0.352 A 
HETATM   11  O   UNL     1     -39.895  51.134 -50.476  1.00  0.00    -0.323 OA
HETATM   12  C   UNL     1     -39.973  51.768 -53.997  1.00  0.00     0.073 A 
ENDROOT
BRANCH   1  13
HETATM   13  N   UNL     1     -41.316  55.955 -55.890  1.00  0.00    -0.301 N 
HETATM   14  C   UNL     1     -42.543  56.475 -56.232  1.00  0.00     0.264 C 
HETATM   15  O   UNL     1     -43.600  56.220 -55.664  1.00  0.00    -0.267 OA
HETATM   16  H   UNL     1     -40.506  56.241 -56.423  1.00  0.00     0.171 HD
BRANCH  14  17
HETATM   17  C   UNL     1     -42.514  57.393 -57.374  1.00  0.00     0.074 A 
HETATM   18  C   UNL     1     -42.671  57.053 -58.709  1.00  0.00     0.026 A 
HETATM   19  C   UNL     1     -42.581  58.179 -59.581  1.00  0.00     0.028 A 
HETATM   20  C   UNL     1     -42.362  59.332 -58.873  1.00  0.00     0.052 A 
HETATM   21  S   UNL     1     -42.264  59.084 -57.201  1.00  0.00    -0.077 SA
HETATM   22 BR   UNL     1     -42.185  61.018 -59.669  1.00  0.00    -0.043 Br
ENDBRANCH  14  17
ENDBRANCH   1  13
TORSDOF 2
ENDMDL
MODEL 2
REMARK VINA RESULT:      -7.0      1.928      2.820
REMARK  2 active torsions:
REMARK  status: ('A' for Active; 'I' for Inactive)
REMARK    1  A    between atoms: C_2  and  C_3 
REMARK       I    between atoms: C_3  and  N_4 
REMARK    2  A    between atoms: N_4  and  C_5 
ROOT
HETATM    1  C   UNL     1     -41.384  55.611 -54.603  1.00  0.00     0.174 A 
HETATM    2  S   UNL     1     -40.902  53.997 -54.379  1.00  0.00    -0.050 SA
HETATM    3  C   UNL     1     -40.887  54.229 -52.672  1.00  0.00     0.040 A 
HETATM    4  C   UNL     1     -41.268  55.552 -52.399  1.00  0.00     0.079 A 
HETATM    5  N   UNL     1     -41.552  56.322 -53.515  1.00  0.00    -0.223 NA
HETATM    6  C   UNL     1     -40.559  53.309 -51.660  1.00  0.00     0.061 A 
HETATM    7  C   UNL     1     -40.632  53.790 -50.367  1.00  0.00     0.106 A 
HETATM    8  C   UNL     1     -41.004  55.078 -50.076  1.00  0.00     0.107 A 
HETATM    9  O   UNL     1     -41.004  55.330 -48.739  1.00  0.00    -0.323 OA
HETATM   10  C   UNL     1     -40.581  54.053 -48.220  1.00  0.00     0.352 A 
HETATM   11  O   UNL     1     -40.351  53.067 -49.248  1.00  0.00    -0.323 OA
HETATM   12  C   UNL     1     -41.333  55.993 -51.059  1.00  0.00     0.073 A 
ENDROOT
BRANCH   1  13
HETATM   13  N   UNL     1     -41.587  56.171 -55.836  1.00  0.00    -0.301 N 
HETATM   14  C   UNL     1     -42.770  56.613 -56.384  1.00  0.00     0.264 C 
HETATM   15  O   UNL     1     -43.858  56.597 -55.818  1.00  0.00    -0.267 OA
HETATM   16  H   UNL     1     -40.745  56.238 -56.390  1.00  0.00     0.171 HD
BRANCH  14  17
HETATM   17  C   UNL     1     -42.649  57.124 -57.752  1.00  0.00     0.074 A 
HETATM   18  C   UNL     1     -42.814  56.396 -58.921  1.00  0.00     0.026 A 
HETATM   19  C   UNL     1     -42.619  57.184 -60.095  1.00  0.00     0.028 A 
HETATM   20  C   UNL     1     -42.317  58.481 -59.771  1.00  0.00     0.052 A 
HETATM   21  S   UNL     1     -42.264  58.761 -58.103  1.00  0.00    -0.077 SA
HETATM   22 BR   UNL     1     -41.991  59.816 -61.043  1.00  0.00    -0.043 Br
ENDBRANCH  14  17
ENDBRANCH   1  13
TORSDOF 2
ENDMDL
MODEL 3
REMARK VINA RESULT:      -7.0      4.136      4.680
REMARK  2 active torsions:
REMARK  status: ('A' for Active; 'I' for Inactive)
REMARK    1  A    between atoms: C_2  and  C_3 
REMARK       I    between atoms: C_3  and  N_4 
REMARK    2  A    between atoms: N_4  and  C_5 
ROOT
HETATM    1  C   UNL     1     -41.349  56.085 -51.950  1.00  0.00     0.174 A 
HETATM    2  S   UNL     1     -40.819  55.147 -50.636  1.00  0.00    -0.050 SA
HETATM    3  C   UNL     1     -40.531  53.816 -51.690  1.00  0.00     0.040 A 
HETATM    4  C   UNL     1     -40.862  54.204 -52.998  1.00  0.00     0.079 A 
HETATM    5  N   UNL     1     -41.323  55.505 -53.124  1.00  0.00    -0.223 NA
HETATM    6  C   UNL     1     -40.051  52.531 -51.378  1.00  0.00     0.061 A 
HETATM    7  C   UNL     1     -39.927  51.662 -52.446  1.00  0.00     0.106 A 
HETATM    8  C   UNL     1     -40.244  52.020 -53.732  1.00  0.00     0.107 A 
HETATM    9  O   UNL     1     -40.045  51.006 -54.617  1.00  0.00    -0.323 OA
HETATM   10  C   UNL     1     -39.574  49.964 -53.739  1.00  0.00     0.352 A 
HETATM   11  O   UNL     1     -39.489  50.376 -52.359  1.00  0.00    -0.323 OA
HETATM   12  C   UNL     1     -40.712  53.280 -54.056  1.00  0.00     0.073 A 
ENDROOT
BRANCH   1  13
HETATM   13  N   UNL     1     -41.792  57.375 -51.823  1.00  0.00    -0.301 N 
HETATM   14  C   UNL     1     -41.170  58.531 -52.235  1.00  0.00     0.264 C 
HETATM   15  O   UNL     1     -40.096  58.581 -52.826  1.00  0.00    -0.267 OA
HETATM   16  H   UNL     1     -42.682  57.449 -51.350  1.00  0.00     0.171 HD
BRANCH  14  17
HETATM   17  C   UNL     1     -41.897  59.760 -51.906  1.00  0.00     0.074 A 
HETATM   18  C   UNL     1     -42.008  60.341 -50.652  1.00  0.00     0.026 A 
HETATM   19  C   UNL     1     -42.794  61.531 -50.663  1.00  0.00     0.028 A 
HETATM   20  C   UNL     1     -43.248  61.810 -51.925  1.00  0.00     0.052 A 
HETATM   21  S   UNL     1     -42.749  60.679 -53.082  1.00  0.00    -0.077 SA
HETATM   22 BR   UNL     1     -44.315  63.293 -52.339  1.00  0.00    -0.043 Br
ENDBRANCH  14  17
ENDBRANCH   1  13
TORSDOF 2
ENDMDL
MODEL 4
REMARK VINA RESULT:      -6.9      4.360      5.097
REMARK  2 active torsions:
REMARK  status: ('A' for Active; 'I' for Inactive)
REMARK    1  A    between atoms: C_2  and  C_3 
REMARK       I    between atoms: C_3  and  N_4 
REMARK    2  A    between atoms: N_4  and  C_5 
ROOT
HETATM    1  C   UNL     1     -41.252  55.749 -52.233  1.00  0.00     0.174 A 
HETATM    2  S   UNL     1     -41.170  55.357 -53.884  1.00  0.00    -0.050 SA
HETATM    3  C   UNL     1     -40.659  53.760 -53.489  1.00  0.00     0.040 A 
HETATM    4  C   UNL     1     -40.599  53.645 -52.091  1.00  0.00     0.079 A 
HETATM    5  N   UNL     1     -40.945  54.792 -51.394  1.00  0.00    -0.223 NA
HETATM    6  C   UNL     1     -40.337  52.697 -54.352  1.00  0.00     0.061 A 
HETATM    7  C   UNL     1     -39.950  51.522 -53.738  1.00  0.00     0.106 A 
HETATM    8  C   UNL     1     -39.884  51.387 -52.374  1.00  0.00     0.107 A 
HETATM    9  O   UNL     1     -39.478  50.145 -51.993  1.00  0.00    -0.323 OA
HETATM   10  C   UNL     1     -39.286  49.515 -53.276  1.00  0.00     0.352 A 
HETATM   11  O   UNL     1     -39.592  50.381 -54.388  1.00  0.00    -0.323 OA
HETATM   12  C   UNL     1     -40.201  52.420 -51.511  1.00  0.00     0.073 A 
ENDROOT
BRANCH   1  13
HETATM   13  N   UNL     1     -41.609  56.988 -51.771  1.00  0.00    -0.301 N 
HETATM   14  C   UNL     1     -42.844  57.592 -51.825  1.00  0.00     0.264 C 
HETATM   15  O   UNL     1     -43.859  57.080 -52.286  1.00  0.00    -0.267 OA
HETATM   16  H   UNL     1     -40.840  57.501 -51.362  1.00  0.00     0.171 HD
BRANCH  14  17
HETATM   17  C   UNL     1     -42.878  58.950 -51.276  1.00  0.00     0.074 A 
HETATM   18  C   UNL     1     -41.784  59.715 -50.900  1.00  0.00     0.026 A 
HETATM   19  C   UNL     1     -42.154  60.996 -50.393  1.00  0.00     0.028 A 
HETATM   20  C   UNL     1     -43.515  61.156 -50.406  1.00  0.00     0.052 A 
HETATM   21  S   UNL     1     -44.343  59.809 -51.011  1.00  0.00    -0.077 SA
HETATM   22 BR   UNL     1     -44.381  62.708 -49.814  1.00  0.00    -0.043 Br
ENDBRANCH  14  17
ENDBRANCH   1  13
TORSDOF 2
ENDMDL
MODEL 5
REMARK VINA RESULT:      -6.8     14.510     16.379
REMARK  2 active torsions:
REMARK  status: ('A' for Active; 'I' for Inactive)
REMARK    1  A    between atoms: C_2  and  C_3 
REMARK       I    between atoms: C_3  and  N_4 
REMARK    2  A    between atoms: N_4  and  C_5 
ROOT
HETATM    1  C   UNL     1     -34.913  39.968 -52.364  1.00  0.00     0.174 A 
HETATM    2  S   UNL     1     -35.678  39.099 -51.121  1.00  0.00    -0.050 SA
HETATM    3  C   UNL     1     -34.244  39.181 -50.169  1.00  0.00     0.040 A 
HETATM    4  C   UNL     1     -33.271  39.892 -50.889  1.00  0.00     0.079 A 
HETATM    5  N   UNL     1     -33.676  40.335 -52.138  1.00  0.00    -0.223 NA
HETATM    6  C   UNL     1     -34.005  38.654 -48.887  1.00  0.00     0.061 A 
HETATM    7  C   UNL     1     -32.742  38.876 -48.374  1.00  0.00     0.106 A 
HETATM    8  C   UNL     1     -31.776  39.568 -49.060  1.00  0.00     0.107 A 
HETATM    9  O   UNL     1     -30.611  39.663 -48.363  1.00  0.00    -0.323 OA
HETATM   10  C   UNL     1     -30.951  38.942 -47.161  1.00  0.00     0.352 A 
HETATM   11  O   UNL     1     -32.305  38.447 -47.158  1.00  0.00    -0.323 OA
HETATM   12  C   UNL     1     -31.996  40.096 -50.318  1.00  0.00     0.073 A 
ENDROOT
BRANCH   1  13
HETATM   13  N   UNL     1     -35.523  40.279 -53.550  1.00  0.00    -0.301 N 
HETATM   14  C   UNL     1     -36.114  41.467 -53.916  1.00  0.00     0.264 C 
HETATM   15  O   UNL     1     -36.160  42.475 -53.220  1.00  0.00    -0.267 OA
HETATM   16  H   UNL     1     -35.537  39.511 -54.208  1.00  0.00     0.171 HD
BRANCH  14  17
HETATM   17  C   UNL     1     -36.719  41.455 -55.251  1.00  0.00     0.074 A 
HETATM   18  C   UNL     1     -37.981  40.982 -55.580  1.00  0.00     0.026 A 
HETATM   19  C   UNL     1     -38.271  41.103 -56.971  1.00  0.00     0.028 A 
HETATM   20  C   UNL     1     -37.219  41.666 -57.646  1.00  0.00     0.052 A 
HETATM   21  S   UNL     1     -35.907  42.046 -56.645  1.00  0.00    -0.077 SA
HETATM   22 BR   UNL     1     -37.224  41.985 -59.491  1.00  0.00    -0.043 Br
ENDBRANCH  14  17
ENDBRANCH   1  13
TORSDOF 2
ENDMDL
MODEL 6
REMARK VINA RESULT:      -6.7      4.869      5.517
REMARK  2 active torsions:
REMARK  status: ('A' for Active; 'I' for Inactive)
REMARK    1  A    between atoms: C_2  and  C_3 
REMARK       I    between atoms: C_3  and  N_4 
REMARK    2  A    between atoms: N_4  and  C_5 
ROOT
HETATM    1  C   UNL     1     -42.559  56.545 -52.287  1.00  0.00     0.174 A 
HETATM    2  S   UNL     1     -43.011  55.881 -53.784  1.00  0.00    -0.050 SA
HETATM    3  C   UNL     1     -41.981  54.529 -53.506  1.00  0.00     0.040 A 
HETATM    4  C   UNL     1     -41.362  54.690 -52.257  1.00  0.00     0.079 A 
HETATM    5  N   UNL     1     -41.709  55.846 -51.576  1.00  0.00    -0.223 NA
HETATM    6  C   UNL     1     -41.741  53.417 -54.335  1.00  0.00     0.061 A 
HETATM    7  C   UNL     1     -40.849  52.485 -53.842  1.00  0.00     0.106 A 
HETATM    8  C   UNL     1     -40.233  52.621 -52.623  1.00  0.00     0.107 A 
HETATM    9  O   UNL     1     -39.396  51.585 -52.346  1.00  0.00    -0.323 OA
HETATM   10  C   UNL     1     -39.547  50.783 -53.535  1.00  0.00     0.352 A 
HETATM   11  O   UNL     1     -40.475  51.345 -54.486  1.00  0.00    -0.323 OA
HETATM   12  C   UNL     1     -40.461  53.705 -51.796  1.00  0.00     0.073 A 
ENDROOT
BRANCH   1  13
HETATM   13  N   UNL     1     -43.029  57.744 -51.823  1.00  0.00    -0.301 N 
HETATM   14  C   UNL     1     -44.237  58.006 -51.217  1.00  0.00     0.264 C 
HETATM   15  O   UNL     1     -45.096  57.167 -50.966  1.00  0.00    -0.267 OA
HETATM   16  H   UNL     1     -42.391  58.513 -51.976  1.00  0.00     0.171 HD
BRANCH  14  17
HETATM   17  C   UNL     1     -44.451  59.415 -50.878  1.00  0.00     0.074 A 
HETATM   18  C   UNL     1     -45.669  60.026 -50.622  1.00  0.00     0.026 A 
HETATM   19  C   UNL     1     -45.540  61.417 -50.330  1.00  0.00     0.028 A 
HETATM   20  C   UNL     1     -44.227  61.808 -50.372  1.00  0.00     0.052 A 
HETATM   21  S   UNL     1     -43.163  60.547 -50.751  1.00  0.00    -0.077 SA
HETATM   22 BR   UNL     1     -43.658  63.562 -50.044  1.00  0.00    -0.043 Br
ENDBRANCH  14  17
ENDBRANCH   1  13
TORSDOF 2
ENDMDL
MODEL 7
REMARK VINA RESULT:      -6.7      2.838      3.014
REMARK  2 active torsions:
REMARK  status: ('A' for Active; 'I' for Inactive)
REMARK    1  A    between atoms: C_2  and  C_3 
REMARK       I    between atoms: C_3  and  N_4 
REMARK    2  A    between atoms: N_4  and  C_5 
ROOT
HETATM    1  C   UNL     1     -41.467  56.412 -53.423  1.00  0.00     0.174 A 
HETATM    2  S   UNL     1     -41.433  56.089 -51.755  1.00  0.00    -0.050 SA
HETATM    3  C   UNL     1     -40.861  54.495 -52.066  1.00  0.00     0.040 A 
HETATM    4  C   UNL     1     -40.728  54.332 -53.454  1.00  0.00     0.079 A 
HETATM    5  N   UNL     1     -41.076  55.440 -54.210  1.00  0.00    -0.223 NA
HETATM    6  C   UNL     1     -40.556  53.472 -51.149  1.00  0.00     0.061 A 
HETATM    7  C   UNL     1     -40.118  52.284 -51.701  1.00  0.00     0.106 A 
HETATM    8  C   UNL     1     -39.981  52.102 -53.054  1.00  0.00     0.107 A 
HETATM    9  O   UNL     1     -39.537  50.855 -53.369  1.00  0.00    -0.323 OA
HETATM   10  C   UNL     1     -39.419  50.267 -52.057  1.00  0.00     0.352 A 
HETATM   11  O   UNL     1     -39.779  51.172 -50.993  1.00  0.00    -0.323 OA
HETATM   12  C   UNL     1     -40.271  53.098 -53.968  1.00  0.00     0.073 A 
ENDROOT
BRANCH   1  13
HETATM   13  N   UNL     1     -41.881  57.607 -53.950  1.00  0.00    -0.301 N 
HETATM   14  C   UNL     1     -41.252  58.829 -53.882  1.00  0.00     0.264 C 
HETATM   15  O   UNL     1     -40.169  59.035 -53.344  1.00  0.00    -0.267 OA
HETATM   16  H   UNL     1     -42.771  57.548 -54.426  1.00  0.00     0.171 HD
BRANCH  14  17
HETATM   17  C   UNL     1     -41.989  59.924 -54.518  1.00  0.00     0.074 A 
HETATM   18  C   UNL     1     -42.180  60.109 -55.879  1.00  0.00     0.026 A 
HETATM   19  C   UNL     1     -42.936  61.281 -56.177  1.00  0.00     0.028 A 
HETATM   20  C   UNL     1     -43.294  61.940 -55.030  1.00  0.00     0.052 A 
HETATM   21  S   UNL     1     -42.741  61.182 -53.620  1.00  0.00    -0.077 SA
HETATM   22 BR   UNL     1     -44.292  63.525 -55.014  1.00  0.00    -0.043 Br
ENDBRANCH  14  17
ENDBRANCH   1  13
TORSDOF 2
ENDMDL
MODEL 8
REMARK VINA RESULT:      -6.7      2.527      2.656
REMARK  2 active torsions:
REMARK  status: ('A' for Active; 'I' for Inactive)
REMARK    1  A    between atoms: C_2  and  C_3 
REMARK       I    between atoms: C_3  and  N_4 
REMARK    2  A    between atoms: N_4  and  C_5 
ROOT
HETATM    1  C   UNL     1     -43.211  55.522 -54.979  1.00  0.00     0.174 A 
HETATM    2  S   UNL     1     -43.027  55.899 -53.332  1.00  0.00    -0.050 SA
HETATM    3  C   UNL     1     -41.959  54.562 -53.136  1.00  0.00     0.040 A 
HETATM    4  C   UNL     1     -41.816  53.920 -54.376  1.00  0.00     0.079 A 
HETATM    5  N   UNL     1     -42.536  54.487 -55.415  1.00  0.00    -0.223 NA
HETATM    6  C   UNL     1     -41.305  54.118 -51.972  1.00  0.00     0.061 A 
HETATM    7  C   UNL     1     -40.507  53.001 -52.122  1.00  0.00     0.106 A 
HETATM    8  C   UNL     1     -40.352  52.358 -53.325  1.00  0.00     0.107 A 
HETATM    9  O   UNL     1     -39.523  51.283 -53.236  1.00  0.00    -0.323 OA
HETATM   10  C   UNL     1     -39.180  51.316 -51.835  1.00  0.00     0.352 A 
HETATM   11  O   UNL     1     -39.795  52.409 -51.124  1.00  0.00    -0.323 OA
HETATM   12  C   UNL     1     -40.984  52.783 -54.478  1.00  0.00     0.073 A 
ENDROOT
BRANCH   1  13
HETATM   13  N   UNL     1     -44.016  56.233 -55.828  1.00  0.00    -0.301 N 
HETATM   14  C   UNL     1     -43.650  57.204 -56.732  1.00  0.00     0.264 C 
HETATM   15  O   UNL     1     -42.499  57.573 -56.943  1.00  0.00    -0.267 OA
HETATM   16  H   UNL     1     -44.996  56.001 -55.740  1.00  0.00     0.171 HD
BRANCH  14  17
HETATM   17  C   UNL     1     -44.770  57.805 -57.461  1.00  0.00     0.074 A 
HETATM   18  C   UNL     1     -45.877  58.428 -56.904  1.00  0.00     0.026 A 
HETATM   19  C   UNL     1     -46.797  58.902 -57.886  1.00  0.00     0.028 A 
HETATM   20  C   UNL     1     -46.352  58.622 -59.152  1.00  0.00     0.052 A 
HETATM   21  S   UNL     1     -44.866  57.811 -59.177  1.00  0.00    -0.077 SA
HETATM   22 BR   UNL     1     -47.290  59.086 -60.705  1.00  0.00    -0.043 Br
ENDBRANCH  14  17
ENDBRANCH   1  13
TORSDOF 2
ENDMDL
MODEL 9
REMARK VINA RESULT:      -6.7      2.773      3.211
REMARK  2 active torsions:
REMARK  status: ('A' for Active; 'I' for Inactive)
REMARK    1  A    between atoms: C_2  and  C_3 
REMARK       I    between atoms: C_3  and  N_4 
REMARK    2  A    between atoms: N_4  and  C_5 
ROOT
HETATM    1  C   UNL     1     -43.297  55.741 -54.264  1.00  0.00     0.174 A 
HETATM    2  S   UNL     1     -43.625  56.741 -52.930  1.00  0.00    -0.050 SA
HETATM    3  C   UNL     1     -42.718  55.692 -51.909  1.00  0.00     0.040 A 
HETATM    4  C   UNL     1     -42.215  54.637 -52.687  1.00  0.00     0.079 A 
HETATM    5  N   UNL     1     -42.555  54.687 -54.030  1.00  0.00    -0.223 NA
HETATM    6  C   UNL     1     -42.475  55.797 -50.527  1.00  0.00     0.061 A 
HETATM    7  C   UNL     1     -41.709  54.790 -49.974  1.00  0.00     0.106 A 
HETATM    8  C   UNL     1     -41.207  53.750 -50.716  1.00  0.00     0.107 A 
HETATM    9  O   UNL     1     -40.483  52.877 -49.964  1.00  0.00    -0.323 OA
HETATM   10  C   UNL     1     -40.595  53.481 -48.659  1.00  0.00     0.352 A 
HETATM   11  O   UNL     1     -41.365  54.701 -48.660  1.00  0.00    -0.323 OA
HETATM   12  C   UNL     1     -41.432  53.634 -52.075  1.00  0.00     0.073 A 
ENDROOT
BRANCH   1  13
HETATM   13  N   UNL     1     -43.772  55.989 -55.524  1.00  0.00    -0.301 N 
HETATM   14  C   UNL     1     -43.164  56.693 -56.538  1.00  0.00     0.264 C 
HETATM   15  O   UNL     1     -42.049  57.201 -56.473  1.00  0.00    -0.267 OA
HETATM   16  H   UNL     1     -44.693  55.606 -55.689  1.00  0.00     0.171 HD
BRANCH  14  17
HETATM   17  C   UNL     1     -43.966  56.812 -57.758  1.00  0.00     0.074 A 
HETATM   18  C   UNL     1     -43.856  56.029 -58.897  1.00  0.00     0.026 A 
HETATM   19  C   UNL     1     -44.779  56.404 -59.918  1.00  0.00     0.028 A 
HETATM   20  C   UNL     1     -45.558  57.457 -59.514  1.00  0.00     0.052 A 
HETATM   21  S   UNL     1     -45.201  57.992 -57.948  1.00  0.00    -0.077 SA
HETATM   22 BR   UNL     1     -46.886  58.233 -60.582  1.00  0.00    -0.043 Br
ENDBRANCH  14  17
ENDBRANCH   1  13
TORSDOF 2
ENDMDL
MODEL 10
REMARK VINA RESULT:      -6.7      3.031      3.443
REMARK  2 active torsions:
REMARK  status: ('A' for Active; 'I' for Inactive)
REMARK    1  A    between atoms: C_2  and  C_3 
REMARK       I    between atoms: C_3  and  N_4 
REMARK    2  A    between atoms: N_4  and  C_5 
ROOT
HETATM    1  C   UNL     1     -41.420  55.997 -53.700  1.00  0.00     0.174 A 
HETATM    2  S   UNL     1     -40.811  54.925 -54.869  1.00  0.00    -0.050 SA
HETATM    3  C   UNL     1     -40.543  53.736 -53.653  1.00  0.00     0.040 A 
HETATM    4  C   UNL     1     -40.958  54.260 -52.418  1.00  0.00     0.079 A 
HETATM    5  N   UNL     1     -41.459  55.551 -52.469  1.00  0.00    -0.223 NA
HETATM    6  C   UNL     1     -40.005  52.443 -53.786  1.00  0.00     0.061 A 
HETATM    7  C   UNL     1     -39.904  51.712 -52.618  1.00  0.00     0.106 A 
HETATM    8  C   UNL     1     -40.304  52.204 -51.401  1.00  0.00     0.107 A 
HETATM    9  O   UNL     1     -40.111  51.312 -50.391  1.00  0.00    -0.323 OA
HETATM   10  C   UNL     1     -39.534  50.204 -51.111  1.00  0.00     0.352 A 
HETATM   11  O   UNL     1     -39.408  50.448 -52.527  1.00  0.00    -0.323 OA
HETATM   12  C   UNL     1     -40.839  53.470 -51.253  1.00  0.00     0.073 A 
ENDROOT
BRANCH   1  13
HETATM   13  N   UNL     1     -41.847  57.265 -53.992  1.00  0.00    -0.301 N 
HETATM   14  C   UNL     1     -41.199  58.456 -53.755  1.00  0.00     0.264 C 
HETATM   15  O   UNL     1     -40.084  58.564 -53.254  1.00  0.00    -0.267 OA
HETATM   16  H   UNL     1     -42.763  57.292 -54.418  1.00  0.00     0.171 HD
BRANCH  14  17
HETATM   17  C   UNL     1     -41.956  59.646 -54.151  1.00  0.00     0.074 A 
HETATM   18  C   UNL     1     -42.185  60.083 -55.447  1.00  0.00     0.026 A 
HETATM   19  C   UNL     1     -42.953  61.285 -55.497  1.00  0.00     0.028 A 
HETATM   20  C   UNL     1     -43.279  61.713 -54.237  1.00  0.00     0.052 A 
HETATM   21  S   UNL     1     -42.685  60.706 -53.012  1.00  0.00    -0.077 SA
HETATM   22 BR   UNL     1     -44.280  63.258 -53.894  1.00  0.00    -0.043 Br
ENDBRANCH  14  17
ENDBRANCH   1  13
TORSDOF 2
ENDMDL
