MODEL 1
REMARK VINA RESULT:      -9.6      0.000      0.000
REMARK  4 active torsions:
REMARK  status: ('A' for Active; 'I' for Inactive)
REMARK    1  A    between atoms: C_8  and  C_9 
REMARK       I    between atoms: C_9  and  N_10 
REMARK    2  A    between atoms: N_10  and  C_11 
REMARK    3  A    between atoms: C_13  and  C_14 
REMARK       I    between atoms: C_14  and  N_15 
REMARK    4  A    between atoms: N_15  and  C_16 
ROOT
HETATM    1  C   UNL     1       7.033  25.247  55.730  1.00  0.00     0.277 C 
HETATM    2  N   UNL     1       7.338  26.571  55.469  1.00  0.00    -0.322 N 
HETATM    3  O   UNL     1       6.504  24.816  56.750  1.00  0.00    -0.266 OA
HETATM    4  H   UNL     1       7.825  26.703  54.584  1.00  0.00     0.169 HD
ENDROOT
BRANCH   2   5
HETATM    5  C   UNL     1       7.077  27.701  56.261  1.00  0.00     0.036 A 
HETATM    6  C   UNL     1       8.007  28.255  57.146  1.00  0.00     0.046 A 
HETATM    7  C   UNL     1       7.678  29.390  57.902  1.00  0.00     0.034 A 
HETATM    8  C   UNL     1       6.402  29.952  57.793  1.00  0.00     0.017 A 
HETATM    9  C   UNL     1       5.468  29.398  56.920  1.00  0.00     0.003 A 
HETATM   10  C   UNL     1       5.806  28.279  56.157  1.00  0.00     0.029 A 
BRANCH   7  11
HETATM   11  C   UNL     1       8.642  30.002  58.861  1.00  0.00     0.252 C 
HETATM   12  N   UNL     1       8.215  30.117  60.171  1.00  0.00    -0.352 N 
HETATM   13  H   UNL     1       7.331  29.706  60.448  1.00  0.00     0.163 HD
HETATM   14  O   UNL     1       9.753  30.345  58.472  1.00  0.00    -0.268 OA
BRANCH  12  15
HETATM   15  C   UNL     1       9.014  30.723  61.187  1.00  0.00     0.084 A 
HETATM   16  C   UNL     1       8.980  32.213  61.382  1.00  0.00     0.027 A 
HETATM   17  C   UNL     1       8.377  31.311  62.416  1.00  0.00     0.027 A 
ENDBRANCH  12  15
ENDBRANCH   7  11
ENDBRANCH   2   5
BRANCH   1  18
HETATM   18  C   UNL     1       7.439  24.364  54.620  1.00  0.00     0.157 A 
HETATM   19  C   UNL     1       7.664  22.957  54.668  1.00  0.00     0.028 A 
HETATM   20  C   UNL     1       7.611  21.953  55.654  1.00  0.00     0.016 A 
HETATM   21  C   UNL     1       8.009  22.602  53.369  1.00  0.00     0.063 A 
HETATM   22  C   UNL     1       7.907  20.633  55.296  1.00  0.00     0.001 A 
HETATM   23  C   UNL     1       8.248  20.309  53.984  1.00  0.00     0.002 A 
HETATM   24  C   UNL     1       8.307  21.290  52.989  1.00  0.00     0.032 A 
HETATM   25  N   UNL     1       7.977  23.767  52.656  1.00  0.00    -0.277 N 
HETATM   26  H   UNL     1       8.173  23.885  51.667  1.00  0.00     0.189 HD
HETATM   27  N   UNL     1       7.641  24.855  53.375  1.00  0.00    -0.168 NA
ENDBRANCH   1  18
TORSDOF 4
ENDMDL
MODEL 2
REMARK VINA RESULT:      -9.5      1.863      2.167
REMARK  4 active torsions:
REMARK  status: ('A' for Active; 'I' for Inactive)
REMARK    1  A    between atoms: C_8  and  C_9 
REMARK       I    between atoms: C_9  and  N_10 
REMARK    2  A    between atoms: N_10  and  C_11 
REMARK    3  A    between atoms: C_13  and  C_14 
REMARK       I    between atoms: C_14  and  N_15 
REMARK    4  A    between atoms: N_15  and  C_16 
ROOT
HETATM    1  C   UNL     1       8.266  24.310  57.213  1.00  0.00     0.277 C 
HETATM    2  N   UNL     1       7.259  25.085  56.663  1.00  0.00    -0.322 N 
HETATM    3  O   UNL     1       9.095  24.684  58.036  1.00  0.00    -0.266 OA
HETATM    4  H   UNL     1       6.715  24.592  55.956  1.00  0.00     0.169 HD
ENDROOT
BRANCH   2   5
HETATM    5  C   UNL     1       6.929  26.420  56.946  1.00  0.00     0.036 A 
HETATM    6  C   UNL     1       7.812  27.323  57.546  1.00  0.00     0.046 A 
HETATM    7  C   UNL     1       7.416  28.645  57.794  1.00  0.00     0.034 A 
HETATM    8  C   UNL     1       6.118  29.055  57.468  1.00  0.00     0.017 A 
HETATM    9  C   UNL     1       5.231  28.157  56.878  1.00  0.00     0.003 A 
HETATM   10  C   UNL     1       5.637  26.846  56.618  1.00  0.00     0.029 A 
BRANCH   7  11
HETATM   11  C   UNL     1       8.329  29.631  58.440  1.00  0.00     0.252 C 
HETATM   12  N   UNL     1       7.974  30.057  59.707  1.00  0.00    -0.352 N 
HETATM   13  H   UNL     1       7.188  29.626  60.179  1.00  0.00     0.163 HD
HETATM   14  O   UNL     1       9.342  29.997  57.855  1.00  0.00    -0.268 OA
BRANCH  12  15
HETATM   15  C   UNL     1       8.730  31.032  60.427  1.00  0.00     0.084 A 
HETATM   16  C   UNL     1       8.221  31.560  61.739  1.00  0.00     0.027 A 
HETATM   17  C   UNL     1       9.427  30.670  61.709  1.00  0.00     0.027 A 
ENDBRANCH  12  15
ENDBRANCH   7  11
ENDBRANCH   2   5
BRANCH   1  18
HETATM   18  C   UNL     1       8.253  22.937  56.676  1.00  0.00     0.157 A 
HETATM   19  C   UNL     1       8.143  22.540  55.311  1.00  0.00     0.028 A 
HETATM   20  C   UNL     1       8.011  23.193  54.070  1.00  0.00     0.016 A 
HETATM   21  C   UNL     1       8.194  21.151  55.334  1.00  0.00     0.063 A 
HETATM   22  C   UNL     1       7.936  22.425  52.902  1.00  0.00     0.001 A 
HETATM   23  C   UNL     1       7.992  21.034  52.959  1.00  0.00     0.002 A 
HETATM   24  C   UNL     1       8.123  20.364  54.180  1.00  0.00     0.032 A 
HETATM   25  N   UNL     1       8.320  20.816  56.653  1.00  0.00    -0.277 N 
HETATM   26  H   UNL     1       8.390  19.882  57.043  1.00  0.00     0.189 HD
HETATM   27  N   UNL     1       8.354  21.865  57.496  1.00  0.00    -0.168 NA
ENDBRANCH   1  18
TORSDOF 4
ENDMDL
MODEL 3
REMARK VINA RESULT:      -9.4      2.131      3.151
REMARK  4 active torsions:
REMARK  status: ('A' for Active; 'I' for Inactive)
REMARK    1  A    between atoms: C_8  and  C_9 
REMARK       I    between atoms: C_9  and  N_10 
REMARK    2  A    between atoms: N_10  and  C_11 
REMARK    3  A    between atoms: C_13  and  C_14 
REMARK       I    between atoms: C_14  and  N_15 
REMARK    4  A    between atoms: N_15  and  C_16 
ROOT
HETATM    1  C   UNL     1       7.493  27.287  56.251  1.00  0.00     0.277 C 
HETATM    2  N   UNL     1       8.618  27.597  56.995  1.00  0.00    -0.322 N 
HETATM    3  O   UNL     1       6.627  28.078  55.888  1.00  0.00    -0.266 OA
HETATM    4  H   UNL     1       9.177  26.780  57.234  1.00  0.00     0.169 HD
ENDROOT
BRANCH   2   5
HETATM    5  C   UNL     1       9.046  28.854  57.451  1.00  0.00     0.036 A 
HETATM    6  C   UNL     1       8.284  29.670  58.293  1.00  0.00     0.046 A 
HETATM    7  C   UNL     1       8.779  30.913  58.714  1.00  0.00     0.034 A 
HETATM    8  C   UNL     1      10.028  31.353  58.264  1.00  0.00     0.017 A 
HETATM    9  C   UNL     1      10.787  30.548  57.417  1.00  0.00     0.003 A 
HETATM   10  C   UNL     1      10.297  29.304  57.015  1.00  0.00     0.029 A 
BRANCH   7  11
HETATM   11  C   UNL     1       7.990  31.812  59.605  1.00  0.00     0.252 C 
HETATM   12  N   UNL     1       8.407  31.891  60.921  1.00  0.00    -0.352 N 
HETATM   13  H   UNL     1       9.264  31.431  61.204  1.00  0.00     0.163 HD
HETATM   14  O   UNL     1       7.047  32.447  59.147  1.00  0.00    -0.268 OA
BRANCH  12  15
HETATM   15  C   UNL     1       7.720  32.677  61.896  1.00  0.00     0.084 A 
HETATM   16  C   UNL     1       6.667  32.046  62.764  1.00  0.00     0.027 A 
HETATM   17  C   UNL     1       7.974  32.472  63.364  1.00  0.00     0.027 A 
ENDBRANCH  12  15
ENDBRANCH   7  11
ENDBRANCH   2   5
BRANCH   1  18
HETATM   18  C   UNL     1       7.425  25.847  55.937  1.00  0.00     0.157 A 
HETATM   19  C   UNL     1       7.553  25.232  54.657  1.00  0.00     0.028 A 
HETATM   20  C   UNL     1       7.760  25.670  53.335  1.00  0.00     0.016 A 
HETATM   21  C   UNL     1       7.430  23.868  54.899  1.00  0.00     0.063 A 
HETATM   22  C   UNL     1       7.836  24.722  52.308  1.00  0.00     0.001 A 
HETATM   23  C   UNL     1       7.711  23.362  52.583  1.00  0.00     0.002 A 
HETATM   24  C   UNL     1       7.504  22.903  53.889  1.00  0.00     0.032 A 
HETATM   25  N   UNL     1       7.239  23.756  56.247  1.00  0.00    -0.277 N 
HETATM   26  H   UNL     1       7.113  22.901  56.778  1.00  0.00     0.189 HD
HETATM   27  N   UNL     1       7.225  24.928  56.909  1.00  0.00    -0.168 NA
ENDBRANCH   1  18
TORSDOF 4
ENDMDL
MODEL 4
REMARK VINA RESULT:      -8.9      2.655      9.780
REMARK  4 active torsions:
REMARK  status: ('A' for Active; 'I' for Inactive)
REMARK    1  A    between atoms: C_8  and  C_9 
REMARK       I    between atoms: C_9  and  N_10 
REMARK    2  A    between atoms: N_10  and  C_11 
REMARK    3  A    between atoms: C_13  and  C_14 
REMARK       I    between atoms: C_14  and  N_15 
REMARK    4  A    between atoms: N_15  and  C_16 
ROOT
HETATM    1  C   UNL     1       6.552  32.037  59.586  1.00  0.00     0.277 C 
HETATM    2  N   UNL     1       7.303  30.887  59.760  1.00  0.00    -0.322 N 
HETATM    3  O   UNL     1       6.448  32.680  58.546  1.00  0.00    -0.266 OA
HETATM    4  H   UNL     1       7.294  30.545  60.719  1.00  0.00     0.169 HD
ENDROOT
BRANCH   2   5
HETATM    5  C   UNL     1       8.055  30.181  58.808  1.00  0.00     0.036 A 
HETATM    6  C   UNL     1       7.595  29.033  58.157  1.00  0.00     0.046 A 
HETATM    7  C   UNL     1       8.399  28.382  57.212  1.00  0.00     0.034 A 
HETATM    8  C   UNL     1       9.684  28.866  56.940  1.00  0.00     0.017 A 
HETATM    9  C   UNL     1      10.152  30.004  57.592  1.00  0.00     0.003 A 
HETATM   10  C   UNL     1       9.339  30.659  58.521  1.00  0.00     0.029 A 
BRANCH   7  11
HETATM   11  C   UNL     1       7.943  27.150  56.505  1.00  0.00     0.252 C 
HETATM   12  N   UNL     1       8.250  25.946  57.112  1.00  0.00    -0.352 N 
HETATM   13  H   UNL     1       8.673  25.941  58.032  1.00  0.00     0.163 HD
HETATM   14  O   UNL     1       7.309  27.247  55.460  1.00  0.00    -0.268 OA
BRANCH  12  15
HETATM   15  C   UNL     1       7.916  24.686  56.527  1.00  0.00     0.084 A 
HETATM   16  C   UNL     1       8.988  23.838  55.904  1.00  0.00     0.027 A 
HETATM   17  C   UNL     1       8.337  23.400  57.182  1.00  0.00     0.027 A 
ENDBRANCH  12  15
ENDBRANCH   7  11
ENDBRANCH   2   5
BRANCH   1  18
HETATM   18  C   UNL     1       5.873  32.440  60.832  1.00  0.00     0.157 A 
HETATM   19  C   UNL     1       6.469  32.686  62.103  1.00  0.00     0.028 A 
HETATM   20  C   UNL     1       7.770  32.648  62.641  1.00  0.00     0.016 A 
HETATM   21  C   UNL     1       5.413  33.047  62.933  1.00  0.00     0.063 A 
HETATM   22  C   UNL     1       7.959  32.974  63.989  1.00  0.00     0.001 A 
HETATM   23  C   UNL     1       6.880  33.334  64.794  1.00  0.00     0.002 A 
HETATM   24  C   UNL     1       5.579  33.379  64.282  1.00  0.00     0.032 A 
HETATM   25  N   UNL     1       4.299  32.992  62.143  1.00  0.00    -0.277 N 
HETATM   26  H   UNL     1       3.344  33.197  62.418  1.00  0.00     0.189 HD
HETATM   27  N   UNL     1       4.533  32.625  60.870  1.00  0.00    -0.168 NA
ENDBRANCH   1  18
TORSDOF 4
ENDMDL
MODEL 5
REMARK VINA RESULT:      -8.9      1.839      8.903
REMARK  4 active torsions:
REMARK  status: ('A' for Active; 'I' for Inactive)
REMARK    1  A    between atoms: C_8  and  C_9 
REMARK       I    between atoms: C_9  and  N_10 
REMARK    2  A    between atoms: N_10  and  C_11 
REMARK    3  A    between atoms: C_13  and  C_14 
REMARK       I    between atoms: C_14  and  N_15 
REMARK    4  A    between atoms: N_15  and  C_16 
ROOT
HETATM    1  C   UNL     1       8.166  29.240  57.659  1.00  0.00     0.277 C 
HETATM    2  N   UNL     1       7.226  28.304  57.260  1.00  0.00    -0.322 N 
HETATM    3  O   UNL     1       9.352  29.248  57.347  1.00  0.00    -0.266 OA
HETATM    4  H   UNL     1       6.310  28.454  57.679  1.00  0.00     0.169 HD
ENDROOT
BRANCH   2   5
HETATM    5  C   UNL     1       7.393  27.211  56.394  1.00  0.00     0.036 A 
HETATM    6  C   UNL     1       7.798  25.944  56.821  1.00  0.00     0.046 A 
HETATM    7  C   UNL     1       7.938  24.896  55.900  1.00  0.00     0.034 A 
HETATM    8  C   UNL     1       7.701  25.128  54.541  1.00  0.00     0.017 A 
HETATM    9  C   UNL     1       7.306  26.393  54.109  1.00  0.00     0.003 A 
HETATM   10  C   UNL     1       7.152  27.428  55.033  1.00  0.00     0.029 A 
BRANCH   7  11
HETATM   11  C   UNL     1       8.377  23.533  56.319  1.00  0.00     0.252 C 
HETATM   12  N   UNL     1       8.650  22.637  55.302  1.00  0.00    -0.352 N 
HETATM   13  H   UNL     1       8.640  22.952  54.340  1.00  0.00     0.163 HD
HETATM   14  O   UNL     1       8.501  23.274  57.511  1.00  0.00    -0.268 OA
BRANCH  12  15
HETATM   15  C   UNL     1       9.036  21.285  55.556  1.00  0.00     0.084 A 
HETATM   16  C   UNL     1       8.016  20.289  56.032  1.00  0.00     0.027 A 
HETATM   17  C   UNL     1       8.584  20.175  54.648  1.00  0.00     0.027 A 
ENDBRANCH  12  15
ENDBRANCH   7  11
ENDBRANCH   2   5
BRANCH   1  18
HETATM   18  C   UNL     1       7.577  30.260  58.546  1.00  0.00     0.157 A 
HETATM   19  C   UNL     1       8.120  30.768  59.763  1.00  0.00     0.028 A 
HETATM   20  C   UNL     1       9.278  30.541  60.532  1.00  0.00     0.016 A 
HETATM   21  C   UNL     1       7.198  31.712  60.203  1.00  0.00     0.063 A 
HETATM   22  C   UNL     1       9.464  31.271  61.712  1.00  0.00     0.001 A 
HETATM   23  C   UNL     1       8.522  32.211  62.126  1.00  0.00     0.002 A 
HETATM   24  C   UNL     1       7.364  32.453  61.377  1.00  0.00     0.032 A 
HETATM   25  N   UNL     1       6.202  31.707  59.268  1.00  0.00    -0.277 N 
HETATM   26  H   UNL     1       5.363  32.276  59.265  1.00  0.00     0.189 HD
HETATM   27  N   UNL     1       6.391  30.841  58.254  1.00  0.00    -0.168 NA
ENDBRANCH   1  18
TORSDOF 4
ENDMDL
MODEL 6
REMARK VINA RESULT:      -8.9      4.409      7.118
REMARK  4 active torsions:
REMARK  status: ('A' for Active; 'I' for Inactive)
REMARK    1  A    between atoms: C_8  and  C_9 
REMARK       I    between atoms: C_9  and  N_10 
REMARK    2  A    between atoms: N_10  and  C_11 
REMARK    3  A    between atoms: C_13  and  C_14 
REMARK       I    between atoms: C_14  and  N_15 
REMARK    4  A    between atoms: N_15  and  C_16 
ROOT
HETATM    1  C   UNL     1       7.317  25.131  54.113  1.00  0.00     0.277 C 
HETATM    2  N   UNL     1       6.084  25.605  54.529  1.00  0.00    -0.322 N 
HETATM    3  O   UNL     1       7.986  25.578  53.186  1.00  0.00    -0.266 OA
HETATM    4  H   UNL     1       5.678  25.054  55.282  1.00  0.00     0.169 HD
ENDROOT
BRANCH   2   5
HETATM    5  C   UNL     1       5.358  26.702  54.038  1.00  0.00     0.036 A 
HETATM    6  C   UNL     1       5.033  26.871  52.689  1.00  0.00     0.046 A 
HETATM    7  C   UNL     1       4.299  27.991  52.271  1.00  0.00     0.034 A 
HETATM    8  C   UNL     1       3.917  28.960  53.205  1.00  0.00     0.017 A 
HETATM    9  C   UNL     1       4.247  28.801  54.549  1.00  0.00     0.003 A 
HETATM   10  C   UNL     1       4.963  27.676  54.962  1.00  0.00     0.029 A 
BRANCH   7  11
HETATM   11  C   UNL     1       3.942  28.207  50.839  1.00  0.00     0.252 C 
HETATM   12  N   UNL     1       3.861  27.075  50.050  1.00  0.00    -0.352 N 
HETATM   13  H   UNL     1       3.945  26.160  50.475  1.00  0.00     0.163 HD
HETATM   14  O   UNL     1       3.715  29.342  50.434  1.00  0.00    -0.268 OA
BRANCH  12  15
HETATM   15  C   UNL     1       3.573  27.135  48.652  1.00  0.00     0.084 A 
HETATM   16  C   UNL     1       4.686  27.008  47.649  1.00  0.00     0.027 A 
HETATM   17  C   UNL     1       3.680  25.906  47.793  1.00  0.00     0.027 A 
ENDBRANCH  12  15
ENDBRANCH   7  11
ENDBRANCH   2   5
BRANCH   1  18
HETATM   18  C   UNL     1       7.758  23.977  54.918  1.00  0.00     0.157 A 
HETATM   19  C   UNL     1       8.028  22.654  54.461  1.00  0.00     0.028 A 
HETATM   20  C   UNL     1       7.987  21.976  53.227  1.00  0.00     0.016 A 
HETATM   21  C   UNL     1       8.422  21.954  55.596  1.00  0.00     0.063 A 
HETATM   22  C   UNL     1       8.344  20.624  53.182  1.00  0.00     0.001 A 
HETATM   23  C   UNL     1       8.736  19.950  54.337  1.00  0.00     0.002 A 
HETATM   24  C   UNL     1       8.784  20.603  55.574  1.00  0.00     0.032 A 
HETATM   25  N   UNL     1       8.361  22.859  56.618  1.00  0.00    -0.277 N 
HETATM   26  H   UNL     1       8.584  22.696  57.594  1.00  0.00     0.189 HD
HETATM   27  N   UNL     1       7.960  24.090  56.251  1.00  0.00    -0.168 NA
ENDBRANCH   1  18
TORSDOF 4
ENDMDL
MODEL 7
REMARK VINA RESULT:      -8.8      4.661     11.626
REMARK  4 active torsions:
REMARK  status: ('A' for Active; 'I' for Inactive)
REMARK    1  A    between atoms: C_8  and  C_9 
REMARK       I    between atoms: C_9  and  N_10 
REMARK    2  A    between atoms: N_10  and  C_11 
REMARK    3  A    between atoms: C_13  and  C_14 
REMARK       I    between atoms: C_14  and  N_15 
REMARK    4  A    between atoms: N_15  and  C_16 
ROOT
HETATM    1  C   UNL     1       5.244  32.164  63.257  1.00  0.00     0.277 C 
HETATM    2  N   UNL     1       6.254  32.788  62.545  1.00  0.00    -0.322 N 
HETATM    3  O   UNL     1       5.044  30.955  63.315  1.00  0.00    -0.266 OA
HETATM    4  H   UNL     1       6.205  33.804  62.589  1.00  0.00     0.169 HD
ENDROOT
BRANCH   2   5
HETATM    5  C   UNL     1       7.283  32.202  61.789  1.00  0.00     0.036 A 
HETATM    6  C   UNL     1       7.075  31.579  60.555  1.00  0.00     0.046 A 
HETATM    7  C   UNL     1       8.152  31.019  59.853  1.00  0.00     0.034 A 
HETATM    8  C   UNL     1       9.437  31.056  60.405  1.00  0.00     0.017 A 
HETATM    9  C   UNL     1       9.648  31.668  61.639  1.00  0.00     0.003 A 
HETATM   10  C   UNL     1       8.575  32.238  62.326  1.00  0.00     0.029 A 
BRANCH   7  11
HETATM   11  C   UNL     1       7.965  30.339  58.538  1.00  0.00     0.252 C 
HETATM   12  N   UNL     1       6.673  29.962  58.221  1.00  0.00    -0.352 N 
HETATM   13  H   UNL     1       5.908  30.238  58.825  1.00  0.00     0.163 HD
HETATM   14  O   UNL     1       8.928  30.170  57.799  1.00  0.00    -0.268 OA
BRANCH  12  15
HETATM   15  C   UNL     1       6.353  29.263  57.017  1.00  0.00     0.084 A 
HETATM   16  C   UNL     1       6.285  27.761  57.015  1.00  0.00     0.027 A 
HETATM   17  C   UNL     1       5.029  28.567  56.863  1.00  0.00     0.027 A 
ENDBRANCH  12  15
ENDBRANCH   7  11
ENDBRANCH   2   5
BRANCH   1  18
HETATM   18  C   UNL     1       4.386  33.139  63.955  1.00  0.00     0.157 A 
HETATM   19  C   UNL     1       4.688  33.865  65.144  1.00  0.00     0.028 A 
HETATM   20  C   UNL     1       5.774  33.947  66.037  1.00  0.00     0.016 A 
HETATM   21  C   UNL     1       3.567  34.654  65.379  1.00  0.00     0.063 A 
HETATM   22  C   UNL     1       5.692  34.817  67.130  1.00  0.00     0.001 A 
HETATM   23  C   UNL     1       4.555  35.596  67.338  1.00  0.00     0.002 A 
HETATM   24  C   UNL     1       3.464  35.532  66.464  1.00  0.00     0.032 A 
HETATM   25  N   UNL     1       2.700  34.360  64.365  1.00  0.00    -0.277 N 
HETATM   26  H   UNL     1       1.777  34.755  64.216  1.00  0.00     0.189 HD
HETATM   27  N   UNL     1       3.154  33.447  63.487  1.00  0.00    -0.168 NA
ENDBRANCH   1  18
TORSDOF 4
ENDMDL
MODEL 8
REMARK VINA RESULT:      -8.8      4.932      7.915
REMARK  4 active torsions:
REMARK  status: ('A' for Active; 'I' for Inactive)
REMARK    1  A    between atoms: C_8  and  C_9 
REMARK       I    between atoms: C_9  and  N_10 
REMARK    2  A    between atoms: N_10  and  C_11 
REMARK    3  A    between atoms: C_13  and  C_14 
REMARK       I    between atoms: C_14  and  N_15 
REMARK    4  A    between atoms: N_15  and  C_16 
ROOT
HETATM    1  C   UNL     1       6.305  25.085  54.662  1.00  0.00     0.277 C 
HETATM    2  N   UNL     1       6.722  25.421  53.386  1.00  0.00    -0.322 N 
HETATM    3  O   UNL     1       5.396  25.621  55.289  1.00  0.00    -0.266 OA
HETATM    4  H   UNL     1       7.531  24.886  53.075  1.00  0.00     0.169 HD
ENDROOT
BRANCH   2   5
HETATM    5  C   UNL     1       6.187  26.386  52.517  1.00  0.00     0.036 A 
HETATM    6  C   UNL     1       5.563  26.073  51.306  1.00  0.00     0.046 A 
HETATM    7  C   UNL     1       5.047  27.090  50.490  1.00  0.00     0.034 A 
HETATM    8  C   UNL     1       5.184  28.428  50.874  1.00  0.00     0.017 A 
HETATM    9  C   UNL     1       5.814  28.746  52.076  1.00  0.00     0.003 A 
HETATM   10  C   UNL     1       6.311  27.729  52.893  1.00  0.00     0.029 A 
BRANCH   7  11
HETATM   11  C   UNL     1       4.383  26.792  49.188  1.00  0.00     0.252 C 
HETATM   12  N   UNL     1       3.019  27.012  49.130  1.00  0.00    -0.352 N 
HETATM   13  H   UNL     1       2.548  27.447  49.914  1.00  0.00     0.163 HD
HETATM   14  O   UNL     1       5.053  26.401  48.238  1.00  0.00    -0.268 OA
BRANCH  12  15
HETATM   15  C   UNL     1       2.246  26.728  47.963  1.00  0.00     0.084 A 
HETATM   16  C   UNL     1       0.824  27.206  47.868  1.00  0.00     0.027 A 
HETATM   17  C   UNL     1       1.880  27.823  47.000  1.00  0.00     0.027 A 
ENDBRANCH  12  15
ENDBRANCH   7  11
ENDBRANCH   2   5
BRANCH   1  18
HETATM   18  C   UNL     1       7.107  23.984  55.226  1.00  0.00     0.157 A 
HETATM   19  C   UNL     1       7.573  22.817  54.553  1.00  0.00     0.028 A 
HETATM   20  C   UNL     1       7.475  22.287  53.251  1.00  0.00     0.016 A 
HETATM   21  C   UNL     1       8.287  22.107  55.511  1.00  0.00     0.063 A 
HETATM   22  C   UNL     1       8.097  21.067  52.964  1.00  0.00     0.001 A 
HETATM   23  C   UNL     1       8.808  20.381  53.948  1.00  0.00     0.002 A 
HETATM   24  C   UNL     1       8.919  20.888  55.247  1.00  0.00     0.032 A 
HETATM   25  N   UNL     1       8.205  22.857  56.651  1.00  0.00    -0.277 N 
HETATM   26  H   UNL     1       8.615  22.644  57.554  1.00  0.00     0.189 HD
HETATM   27  N   UNL     1       7.497  23.994  56.522  1.00  0.00    -0.168 NA
ENDBRANCH   1  18
TORSDOF 4
ENDMDL
MODEL 9
REMARK VINA RESULT:      -8.6      1.673      9.416
REMARK  4 active torsions:
REMARK  status: ('A' for Active; 'I' for Inactive)
REMARK    1  A    between atoms: C_8  and  C_9 
REMARK       I    between atoms: C_9  and  N_10 
REMARK    2  A    between atoms: N_10  and  C_11 
REMARK    3  A    between atoms: C_13  and  C_14 
REMARK       I    between atoms: C_14  and  N_15 
REMARK    4  A    between atoms: N_15  and  C_16 
ROOT
HETATM    1  C   UNL     1       7.653  30.362  58.783  1.00  0.00     0.277 C 
HETATM    2  N   UNL     1       8.277  29.211  58.331  1.00  0.00    -0.322 N 
HETATM    3  O   UNL     1       6.809  31.011  58.173  1.00  0.00    -0.266 OA
HETATM    4  H   UNL     1       8.986  28.862  58.974  1.00  0.00     0.169 HD
ENDROOT
BRANCH   2   5
HETATM    5  C   UNL     1       8.061  28.512  57.132  1.00  0.00     0.036 A 
HETATM    6  C   UNL     1       7.743  27.152  57.079  1.00  0.00     0.046 A 
HETATM    7  C   UNL     1       7.535  26.520  55.844  1.00  0.00     0.034 A 
HETATM    8  C   UNL     1       7.679  27.248  54.657  1.00  0.00     0.017 A 
HETATM    9  C   UNL     1       8.005  28.602  54.705  1.00  0.00     0.003 A 
HETATM   10  C   UNL     1       8.194  29.229  55.938  1.00  0.00     0.029 A 
BRANCH   7  11
HETATM   11  C   UNL     1       7.203  25.069  55.749  1.00  0.00     0.252 C 
HETATM   12  N   UNL     1       7.968  24.321  54.874  1.00  0.00    -0.352 N 
HETATM   13  H   UNL     1       8.765  24.745  54.416  1.00  0.00     0.163 HD
HETATM   14  O   UNL     1       6.309  24.603  56.448  1.00  0.00    -0.268 OA
BRANCH  12  15
HETATM   15  C   UNL     1       7.732  22.930  54.648  1.00  0.00     0.084 A 
HETATM   16  C   UNL     1       7.663  22.398  53.244  1.00  0.00     0.027 A 
HETATM   17  C   UNL     1       8.826  22.043  54.121  1.00  0.00     0.027 A 
ENDBRANCH  12  15
ENDBRANCH   7  11
ENDBRANCH   2   5
BRANCH   1  18
HETATM   18  C   UNL     1       8.135  30.755  60.120  1.00  0.00     0.157 A 
HETATM   19  C   UNL     1       7.558  31.714  61.002  1.00  0.00     0.028 A 
HETATM   20  C   UNL     1       6.445  32.578  60.978  1.00  0.00     0.016 A 
HETATM   21  C   UNL     1       8.373  31.705  62.129  1.00  0.00     0.063 A 
HETATM   22  C   UNL     1       6.197  33.398  62.084  1.00  0.00     0.001 A 
HETATM   23  C   UNL     1       7.032  33.365  63.199  1.00  0.00     0.002 A 
HETATM   24  C   UNL     1       8.142  32.514  63.246  1.00  0.00     0.032 A 
HETATM   25  N   UNL     1       9.348  30.786  61.861  1.00  0.00    -0.277 N 
HETATM   26  H   UNL     1      10.117  30.516  62.465  1.00  0.00     0.189 HD
HETATM   27  N   UNL     1       9.243  30.194  60.657  1.00  0.00    -0.168 NA
ENDBRANCH   1  18
TORSDOF 4
ENDMDL
MODEL 10
REMARK VINA RESULT:      -8.5      7.897     10.992
REMARK  4 active torsions:
REMARK  status: ('A' for Active; 'I' for Inactive)
REMARK    1  A    between atoms: C_8  and  C_9 
REMARK       I    between atoms: C_9  and  N_10 
REMARK    2  A    between atoms: N_10  and  C_11 
REMARK    3  A    between atoms: C_13  and  C_14 
REMARK       I    between atoms: C_14  and  N_15 
REMARK    4  A    between atoms: N_15  and  C_16 
ROOT
HETATM    1  C   UNL     1       5.259  32.358  62.925  1.00  0.00     0.277 C 
HETATM    2  N   UNL     1       5.358  33.624  63.477  1.00  0.00    -0.322 N 
HETATM    3  O   UNL     1       4.681  31.397  63.423  1.00  0.00    -0.266 OA
HETATM    4  H   UNL     1       5.929  34.259  62.922  1.00  0.00     0.169 HD
ENDROOT
BRANCH   2   5
HETATM    5  C   UNL     1       4.796  34.103  64.671  1.00  0.00     0.036 A 
HETATM    6  C   UNL     1       5.412  33.976  65.920  1.00  0.00     0.046 A 
HETATM    7  C   UNL     1       4.794  34.485  67.071  1.00  0.00     0.034 A 
HETATM    8  C   UNL     1       3.539  35.096  66.975  1.00  0.00     0.017 A 
HETATM    9  C   UNL     1       2.916  35.216  65.734  1.00  0.00     0.003 A 
HETATM   10  C   UNL     1       3.544  34.723  64.589  1.00  0.00     0.029 A 
BRANCH   7  11
HETATM   11  C   UNL     1       5.419  34.360  68.420  1.00  0.00     0.252 C 
HETATM   12  N   UNL     1       6.504  35.178  68.671  1.00  0.00    -0.352 N 
HETATM   13  H   UNL     1       6.769  35.882  67.993  1.00  0.00     0.163 HD
HETATM   14  O   UNL     1       4.946  33.580  69.239  1.00  0.00    -0.268 OA
BRANCH  12  15
HETATM   15  C   UNL     1       7.228  35.133  69.901  1.00  0.00     0.084 A 
HETATM   16  C   UNL     1       7.724  33.818  70.435  1.00  0.00     0.027 A 
HETATM   17  C   UNL     1       8.701  34.830  69.914  1.00  0.00     0.027 A 
ENDBRANCH  12  15
ENDBRANCH   7  11
ENDBRANCH   2   5
BRANCH   1  18
HETATM   18  C   UNL     1       5.961  32.270  61.631  1.00  0.00     0.157 A 
HETATM   19  C   UNL     1       7.362  32.123  61.413  1.00  0.00     0.028 A 
HETATM   20  C   UNL     1       8.512  32.021  62.221  1.00  0.00     0.016 A 
HETATM   21  C   UNL     1       7.510  32.077  60.031  1.00  0.00     0.063 A 
HETATM   22  C   UNL     1       9.762  31.876  61.609  1.00  0.00     0.001 A 
HETATM   23  C   UNL     1       9.876  31.831  60.221  1.00  0.00     0.002 A 
HETATM   24  C   UNL     1       8.748  31.931  59.398  1.00  0.00     0.032 A 
HETATM   25  N   UNL     1       6.245  32.200  59.529  1.00  0.00    -0.277 N 
HETATM   26  H   UNL     1       5.972  32.204  58.552  1.00  0.00     0.189 HD
HETATM   27  N   UNL     1       5.282  32.324  60.462  1.00  0.00    -0.168 NA
ENDBRANCH   1  18
TORSDOF 4
ENDMDL
