MODEL 1
REMARK VINA RESULT:     -11.0      0.000      0.000
REMARK  6 active torsions:
REMARK  status: ('A' for Active; 'I' for Inactive)
REMARK       I    between atoms: N_2  and  C_3 
REMARK    1  A    between atoms: N_2  and  C_15 
REMARK       I    between atoms: C_3  and  N_4 
REMARK    2  A    between atoms: N_4  and  C_5 
REMARK    3  A    between atoms: C_15  and  C_16 
REMARK    4  A    between atoms: C_16  and  C_17 
REMARK    5  A    between atoms: C_17  and  C_18 
REMARK    6  A    between atoms: C_22  and  C_23 
ROOT
HETATM    1  C   UNL     1       7.672  28.130  56.155  1.00  0.00     0.127 C 
ENDROOT
BRANCH   1   2
HETATM    2  N   UNL     1       6.603  27.194  56.516  1.00  0.00    -0.338 N 
HETATM    3  C   UNL     1       5.371  27.800  57.012  1.00  0.00     0.154 C 
HETATM    4  C   UNL     1       6.493  25.888  56.036  1.00  0.00     0.322 C 
HETATM    5  N   UNL     1       7.679  25.302  55.671  1.00  0.00    -0.309 N 
HETATM    6  O   UNL     1       5.388  25.370  55.893  1.00  0.00    -0.247 OA
HETATM    7  H   UNL     1       8.513  25.716  56.049  1.00  0.00     0.170 HD
BRANCH   5   8
HETATM    8  C   UNL     1       7.865  24.095  54.959  1.00  0.00     0.036 A 
HETATM    9  C   UNL     1       8.073  22.854  55.569  1.00  0.00     0.039 A 
HETATM   10  C   UNL     1       8.228  21.733  54.765  1.00  0.00    -0.024 A 
HETATM   11  C   UNL     1       8.154  21.815  53.386  1.00  0.00    -0.026 A 
HETATM   12  C   UNL     1       8.461  20.322  55.164  1.00  0.00     0.207 C 
HETATM   13  C   UNL     1       8.310  20.458  52.807  1.00  0.00     0.207 C 
HETATM   14  C   UNL     1       7.936  23.026  52.757  1.00  0.00     0.012 A 
HETATM   15  O   UNL     1       8.729  19.633  53.919  1.00  0.00    -0.382 OA
HETATM   16  C   UNL     1       7.802  24.169  53.553  1.00  0.00     0.030 A 
ENDBRANCH   5   8
ENDBRANCH   1   2
BRANCH   1  17
HETATM   17  C   UNL     1       8.809  28.204  57.185  1.00  0.00     0.026 C 
BRANCH  17  18
HETATM   18  C   UNL     1       9.667  29.470  57.078  1.00  0.00     0.060 C 
BRANCH  18  19
HETATM   19  C   UNL     1       9.384  30.481  58.134  1.00  0.00     0.030 A 
HETATM   20  N   UNL     1      10.099  31.635  58.304  1.00  0.00    -0.282 N 
HETATM   21  H   UNL     1      10.881  31.990  57.758  1.00  0.00     0.189 HD
HETATM   22  N   UNL     1       9.691  32.368  59.351  1.00  0.00    -0.174 NA
HETATM   23  C   UNL     1       8.691  31.664  59.906  1.00  0.00     0.089 A 
HETATM   24  C   UNL     1       8.454  30.482  59.152  1.00  0.00     0.060 A 
BRANCH  23  25
HETATM   25  C   UNL     1       8.014  32.122  61.126  1.00  0.00    -0.005 A 
HETATM   26  C   UNL     1       8.661  32.099  62.373  1.00  0.00     0.017 A 
HETATM   27  C   UNL     1       8.009  32.559  63.522  1.00  0.00     0.043 A 
HETATM   28  C   UNL     1       6.710  33.041  63.430  1.00  0.00     0.116 A 
HETATM   29  F   UNL     1       6.090  33.483  64.533  1.00  0.00    -0.206 F 
HETATM   30  C   UNL     1       6.047  33.073  62.212  1.00  0.00     0.043 A 
HETATM   31  C   UNL     1       6.698  32.615  61.063  1.00  0.00     0.017 A 
ENDBRANCH  23  25
ENDBRANCH  18  19
ENDBRANCH  17  18
ENDBRANCH   1  17
TORSDOF 6
ENDMDL
MODEL 2
REMARK VINA RESULT:     -11.0      4.752     11.687
REMARK  6 active torsions:
REMARK  status: ('A' for Active; 'I' for Inactive)
REMARK       I    between atoms: N_2  and  C_3 
REMARK    1  A    between atoms: N_2  and  C_15 
REMARK       I    between atoms: C_3  and  N_4 
REMARK    2  A    between atoms: N_4  and  C_5 
REMARK    3  A    between atoms: C_15  and  C_16 
REMARK    4  A    between atoms: C_16  and  C_17 
REMARK    5  A    between atoms: C_17  and  C_18 
REMARK    6  A    between atoms: C_22  and  C_23 
ROOT
HETATM    1  C   UNL     1       8.216  29.793  57.735  1.00  0.00     0.127 C 
ENDROOT
BRANCH   1   2
HETATM    2  N   UNL     1       9.370  30.463  58.344  1.00  0.00    -0.338 N 
HETATM    3  C   UNL     1      10.552  30.582  57.496  1.00  0.00     0.154 C 
HETATM    4  C   UNL     1       9.301  31.344  59.425  1.00  0.00     0.322 C 
HETATM    5  N   UNL     1       8.234  31.148  60.265  1.00  0.00    -0.309 N 
HETATM    6  O   UNL     1      10.111  32.261  59.531  1.00  0.00    -0.247 OA
HETATM    7  H   UNL     1       7.792  30.245  60.218  1.00  0.00     0.170 HD
BRANCH   5   8
HETATM    8  C   UNL     1       7.779  31.996  61.300  1.00  0.00     0.036 A 
HETATM    9  C   UNL     1       6.742  32.921  61.152  1.00  0.00     0.039 A 
HETATM   10  C   UNL     1       6.370  33.690  62.247  1.00  0.00    -0.024 A 
HETATM   11  C   UNL     1       6.984  33.540  63.478  1.00  0.00    -0.026 A 
HETATM   12  C   UNL     1       5.316  34.730  62.344  1.00  0.00     0.207 C 
HETATM   13  C   UNL     1       6.348  34.457  64.455  1.00  0.00     0.207 C 
HETATM   14  C   UNL     1       8.003  32.624  63.657  1.00  0.00     0.012 A 
HETATM   15  O   UNL     1       5.508  35.319  63.653  1.00  0.00    -0.382 OA
HETATM   16  C   UNL     1       8.405  31.859  62.556  1.00  0.00     0.030 A 
ENDBRANCH   5   8
ENDBRANCH   1   2
BRANCH   1  17
HETATM   17  C   UNL     1       8.489  28.340  57.317  1.00  0.00     0.026 C 
BRANCH  17  18
HETATM   18  C   UNL     1       7.364  27.365  57.677  1.00  0.00     0.060 C 
BRANCH  18  19
HETATM   19  C   UNL     1       7.622  25.962  57.251  1.00  0.00     0.030 A 
HETATM   20  N   UNL     1       8.254  25.027  58.025  1.00  0.00    -0.282 N 
HETATM   21  H   UNL     1       8.611  25.117  58.973  1.00  0.00     0.189 HD
HETATM   22  N   UNL     1       8.417  23.845  57.411  1.00  0.00    -0.174 NA
HETATM   23  C   UNL     1       7.898  24.011  56.184  1.00  0.00     0.089 A 
HETATM   24  C   UNL     1       7.367  25.324  56.056  1.00  0.00     0.060 A 
BRANCH  23  25
HETATM   25  C   UNL     1       7.939  22.939  55.181  1.00  0.00    -0.005 A 
HETATM   26  C   UNL     1       7.890  23.223  53.805  1.00  0.00     0.017 A 
HETATM   27  C   UNL     1       7.950  22.191  52.863  1.00  0.00     0.043 A 
HETATM   28  C   UNL     1       8.058  20.874  53.290  1.00  0.00     0.116 A 
HETATM   29  F   UNL     1       8.119  19.889  52.384  1.00  0.00    -0.206 F 
HETATM   30  C   UNL     1       8.107  20.565  54.642  1.00  0.00     0.043 A 
HETATM   31  C   UNL     1       8.047  21.596  55.584  1.00  0.00     0.017 A 
ENDBRANCH  23  25
ENDBRANCH  18  19
ENDBRANCH  17  18
ENDBRANCH   1  17
TORSDOF 6
ENDMDL
MODEL 3
REMARK VINA RESULT:      -9.8      5.286      8.862
REMARK  6 active torsions:
REMARK  status: ('A' for Active; 'I' for Inactive)
REMARK       I    between atoms: N_2  and  C_3 
REMARK    1  A    between atoms: N_2  and  C_15 
REMARK       I    between atoms: C_3  and  N_4 
REMARK    2  A    between atoms: N_4  and  C_5 
REMARK    3  A    between atoms: C_15  and  C_16 
REMARK    4  A    between atoms: C_16  and  C_17 
REMARK    5  A    between atoms: C_17  and  C_18 
REMARK    6  A    between atoms: C_22  and  C_23 
ROOT
HETATM    1  C   UNL     1       7.606  29.413  56.205  1.00  0.00     0.127 C 
ENDROOT
BRANCH   1   2
HETATM    2  N   UNL     1       6.148  29.495  56.067  1.00  0.00    -0.338 N 
HETATM    3  C   UNL     1       5.478  30.429  56.967  1.00  0.00     0.154 C 
HETATM    4  C   UNL     1       5.434  29.128  54.925  1.00  0.00     0.322 C 
HETATM    5  N   UNL     1       6.038  28.173  54.145  1.00  0.00    -0.309 N 
HETATM    6  O   UNL     1       4.386  29.701  54.637  1.00  0.00    -0.247 OA
HETATM    7  H   UNL     1       6.749  27.620  54.593  1.00  0.00     0.170 HD
BRANCH   5   8
HETATM    8  C   UNL     1       5.676  27.764  52.842  1.00  0.00     0.036 A 
HETATM    9  C   UNL     1       5.644  28.618  51.736  1.00  0.00     0.039 A 
HETATM   10  C   UNL     1       5.288  28.096  50.500  1.00  0.00    -0.024 A 
HETATM   11  C   UNL     1       4.993  26.754  50.337  1.00  0.00    -0.026 A 
HETATM   12  C   UNL     1       5.176  28.788  49.191  1.00  0.00     0.207 C 
HETATM   13  C   UNL     1       4.697  26.489  48.909  1.00  0.00     0.207 C 
HETATM   14  C   UNL     1       5.031  25.884  51.411  1.00  0.00     0.012 A 
HETATM   15  O   UNL     1       4.591  27.800  48.308  1.00  0.00    -0.382 OA
HETATM   16  C   UNL     1       5.364  26.399  52.668  1.00  0.00     0.030 A 
ENDBRANCH   5   8
ENDBRANCH   1   2
BRANCH   1  17
HETATM   17  C   UNL     1       8.072  28.517  57.362  1.00  0.00     0.026 C 
BRANCH  17  18
HETATM   18  C   UNL     1       7.091  27.396  57.718  1.00  0.00     0.060 C 
BRANCH  18  19
HETATM   19  C   UNL     1       7.512  26.051  57.238  1.00  0.00     0.030 A 
HETATM   20  N   UNL     1       8.496  25.300  57.821  1.00  0.00    -0.282 N 
HETATM   21  H   UNL     1       9.056  25.507  58.644  1.00  0.00     0.189 HD
HETATM   22  N   UNL     1       8.734  24.143  57.184  1.00  0.00    -0.174 NA
HETATM   23  C   UNL     1       7.898  24.140  56.133  1.00  0.00     0.089 A 
HETATM   24  C   UNL     1       7.097  25.315  56.148  1.00  0.00     0.060 A 
BRANCH  23  25
HETATM   25  C   UNL     1       7.900  23.046  55.153  1.00  0.00    -0.005 A 
HETATM   26  C   UNL     1       7.979  23.302  53.773  1.00  0.00     0.017 A 
HETATM   27  C   UNL     1       8.000  22.248  52.854  1.00  0.00     0.043 A 
HETATM   28  C   UNL     1       7.942  20.937  53.308  1.00  0.00     0.116 A 
HETATM   29  F   UNL     1       7.966  19.931  52.425  1.00  0.00    -0.206 F 
HETATM   30  C   UNL     1       7.863  20.656  54.665  1.00  0.00     0.043 A 
HETATM   31  C   UNL     1       7.842  21.709  55.584  1.00  0.00     0.017 A 
ENDBRANCH  23  25
ENDBRANCH  18  19
ENDBRANCH  17  18
ENDBRANCH   1  17
TORSDOF 6
ENDMDL
MODEL 4
REMARK VINA RESULT:      -9.7      4.690     11.083
REMARK  6 active torsions:
REMARK  status: ('A' for Active; 'I' for Inactive)
REMARK       I    between atoms: N_2  and  C_3 
REMARK    1  A    between atoms: N_2  and  C_15 
REMARK       I    between atoms: C_3  and  N_4 
REMARK    2  A    between atoms: N_4  and  C_5 
REMARK    3  A    between atoms: C_15  and  C_16 
REMARK    4  A    between atoms: C_16  and  C_17 
REMARK    5  A    between atoms: C_17  and  C_18 
REMARK    6  A    between atoms: C_22  and  C_23 
ROOT
HETATM    1  C   UNL     1       6.439  29.596  56.525  1.00  0.00     0.127 C 
ENDROOT
BRANCH   1   2
HETATM    2  N   UNL     1       5.456  30.605  56.931  1.00  0.00    -0.338 N 
HETATM    3  C   UNL     1       4.174  30.556  56.235  1.00  0.00     0.154 C 
HETATM    4  C   UNL     1       5.463  31.276  58.155  1.00  0.00     0.322 C 
HETATM    5  N   UNL     1       6.697  31.399  58.743  1.00  0.00    -0.309 N 
HETATM    6  O   UNL     1       4.408  31.641  58.669  1.00  0.00    -0.247 OA
HETATM    7  H   UNL     1       7.491  31.283  58.136  1.00  0.00     0.170 HD
BRANCH   5   8
HETATM    8  C   UNL     1       6.992  31.824  60.058  1.00  0.00     0.036 A 
HETATM    9  C   UNL     1       6.250  32.783  60.753  1.00  0.00     0.039 A 
HETATM   10  C   UNL     1       6.625  33.109  62.049  1.00  0.00    -0.024 A 
HETATM   11  C   UNL     1       7.694  32.487  62.671  1.00  0.00    -0.026 A 
HETATM   12  C   UNL     1       6.011  34.086  62.983  1.00  0.00     0.207 C 
HETATM   13  C   UNL     1       7.823  33.006  64.054  1.00  0.00     0.207 C 
HETATM   14  C   UNL     1       8.437  31.525  62.013  1.00  0.00     0.012 A 
HETATM   15  O   UNL     1       6.926  34.140  64.104  1.00  0.00    -0.382 OA
HETATM   16  C   UNL     1       8.086  31.204  60.697  1.00  0.00     0.030 A 
ENDBRANCH   5   8
ENDBRANCH   1   2
BRANCH   1  17
HETATM   17  C   UNL     1       6.307  28.261  57.274  1.00  0.00     0.026 C 
BRANCH  17  18
HETATM   18  C   UNL     1       7.647  27.607  57.626  1.00  0.00     0.060 C 
BRANCH  18  19
HETATM   19  C   UNL     1       7.747  26.178  57.220  1.00  0.00     0.030 A 
HETATM   20  N   UNL     1       8.107  25.163  58.063  1.00  0.00    -0.282 N 
HETATM   21  H   UNL     1       8.330  25.204  59.055  1.00  0.00     0.189 HD
HETATM   22  N   UNL     1       8.175  23.965  57.460  1.00  0.00    -0.174 NA
HETATM   23  C   UNL     1       7.874  24.201  56.173  1.00  0.00     0.089 A 
HETATM   24  C   UNL     1       7.576  25.579  55.990  1.00  0.00     0.060 A 
BRANCH  23  25
HETATM   25  C   UNL     1       7.896  23.128  55.170  1.00  0.00    -0.005 A 
HETATM   26  C   UNL     1       7.940  23.415  53.795  1.00  0.00     0.017 A 
HETATM   27  C   UNL     1       7.982  22.382  52.853  1.00  0.00     0.043 A 
HETATM   28  C   UNL     1       7.979  21.060  53.281  1.00  0.00     0.116 A 
HETATM   29  F   UNL     1       8.022  20.074  52.376  1.00  0.00    -0.206 F 
HETATM   30  C   UNL     1       7.934  20.749  54.632  1.00  0.00     0.043 A 
HETATM   31  C   UNL     1       7.893  21.781  55.574  1.00  0.00     0.017 A 
ENDBRANCH  23  25
ENDBRANCH  18  19
ENDBRANCH  17  18
ENDBRANCH   1  17
TORSDOF 6
ENDMDL
MODEL 5
REMARK VINA RESULT:      -9.6      1.462      2.149
REMARK  6 active torsions:
REMARK  status: ('A' for Active; 'I' for Inactive)
REMARK       I    between atoms: N_2  and  C_3 
REMARK    1  A    between atoms: N_2  and  C_15 
REMARK       I    between atoms: C_3  and  N_4 
REMARK    2  A    between atoms: N_4  and  C_5 
REMARK    3  A    between atoms: C_15  and  C_16 
REMARK    4  A    between atoms: C_16  and  C_17 
REMARK    5  A    between atoms: C_17  and  C_18 
REMARK    6  A    between atoms: C_22  and  C_23 
ROOT
HETATM    1  C   UNL     1       7.519  28.172  54.064  1.00  0.00     0.127 C 
ENDROOT
BRANCH   1   2
HETATM    2  N   UNL     1       6.393  27.326  53.654  1.00  0.00    -0.338 N 
HETATM    3  C   UNL     1       5.434  27.946  52.745  1.00  0.00     0.154 C 
HETATM    4  C   UNL     1       6.392  25.931  53.685  1.00  0.00     0.322 C 
HETATM    5  N   UNL     1       7.228  25.371  54.619  1.00  0.00    -0.309 N 
HETATM    6  O   UNL     1       5.737  25.291  52.866  1.00  0.00    -0.247 OA
HETATM    7  H   UNL     1       7.518  25.972  55.372  1.00  0.00     0.170 HD
BRANCH   5   8
HETATM    8  C   UNL     1       7.603  24.014  54.743  1.00  0.00     0.036 A 
HETATM    9  C   UNL     1       7.880  23.179  53.656  1.00  0.00     0.039 A 
HETATM   10  C   UNL     1       8.256  21.866  53.902  1.00  0.00    -0.024 A 
HETATM   11  C   UNL     1       8.388  21.379  55.191  1.00  0.00    -0.026 A 
HETATM   12  C   UNL     1       8.594  20.793  52.933  1.00  0.00     0.207 C 
HETATM   13  C   UNL     1       8.843  19.969  55.136  1.00  0.00     0.207 C 
HETATM   14  C   UNL     1       8.134  22.186  56.284  1.00  0.00     0.012 A 
HETATM   15  O   UNL     1       8.721  19.599  53.743  1.00  0.00    -0.382 OA
HETATM   16  C   UNL     1       7.731  23.506  56.052  1.00  0.00     0.030 A 
ENDBRANCH   5   8
ENDBRANCH   1   2
BRANCH   1  17
HETATM   17  C   UNL     1       7.332  28.832  55.440  1.00  0.00     0.026 C 
BRANCH  17  18
HETATM   18  C   UNL     1       8.359  28.390  56.488  1.00  0.00     0.060 C 
BRANCH  18  19
HETATM   19  C   UNL     1       8.584  29.389  57.569  1.00  0.00     0.030 A 
HETATM   20  N   UNL     1       9.801  29.938  57.866  1.00  0.00    -0.282 N 
HETATM   21  H   UNL     1      10.699  29.788  57.411  1.00  0.00     0.189 HD
HETATM   22  N   UNL     1       9.769  30.778  58.912  1.00  0.00    -0.174 NA
HETATM   23  C   UNL     1       8.495  30.763  59.336  1.00  0.00     0.089 A 
HETATM   24  C   UNL     1       7.715  29.918  58.499  1.00  0.00     0.060 A 
BRANCH  23  25
HETATM   25  C   UNL     1       8.069  31.528  60.515  1.00  0.00    -0.005 A 
HETATM   26  C   UNL     1       6.892  32.296  60.501  1.00  0.00     0.017 A 
HETATM   27  C   UNL     1       6.489  33.002  61.639  1.00  0.00     0.043 A 
HETATM   28  C   UNL     1       7.259  32.945  62.794  1.00  0.00     0.116 A 
HETATM   29  F   UNL     1       6.867  33.620  63.883  1.00  0.00    -0.206 F 
HETATM   30  C   UNL     1       8.426  32.195  62.835  1.00  0.00     0.043 A 
HETATM   31  C   UNL     1       8.829  31.489  61.698  1.00  0.00     0.017 A 
ENDBRANCH  23  25
ENDBRANCH  18  19
ENDBRANCH  17  18
ENDBRANCH   1  17
TORSDOF 6
ENDMDL
MODEL 6
REMARK VINA RESULT:      -9.5      5.309      8.687
REMARK  6 active torsions:
REMARK  status: ('A' for Active; 'I' for Inactive)
REMARK       I    between atoms: N_2  and  C_3 
REMARK    1  A    between atoms: N_2  and  C_15 
REMARK       I    between atoms: C_3  and  N_4 
REMARK    2  A    between atoms: N_4  and  C_5 
REMARK    3  A    between atoms: C_15  and  C_16 
REMARK    4  A    between atoms: C_16  and  C_17 
REMARK    5  A    between atoms: C_17  and  C_18 
REMARK    6  A    between atoms: C_22  and  C_23 
ROOT
HETATM    1  C   UNL     1       5.157  27.183  56.641  1.00  0.00     0.127 C 
ENDROOT
BRANCH   1   2
HETATM    2  N   UNL     1       6.617  27.112  56.753  1.00  0.00    -0.338 N 
HETATM    3  C   UNL     1       7.214  27.950  57.789  1.00  0.00     0.154 C 
HETATM    4  C   UNL     1       7.400  26.050  56.299  1.00  0.00     0.322 C 
HETATM    5  N   UNL     1       6.863  25.338  55.255  1.00  0.00    -0.309 N 
HETATM    6  O   UNL     1       8.448  25.761  56.872  1.00  0.00    -0.247 OA
HETATM    7  H   UNL     1       6.144  25.801  54.727  1.00  0.00     0.170 HD
BRANCH   5   8
HETATM    8  C   UNL     1       7.305  24.102  54.732  1.00  0.00     0.036 A 
HETATM    9  C   UNL     1       7.431  22.934  55.490  1.00  0.00     0.039 A 
HETATM   10  C   UNL     1       7.860  21.773  54.861  1.00  0.00    -0.024 A 
HETATM   11  C   UNL     1       8.137  21.743  53.505  1.00  0.00    -0.026 A 
HETATM   12  C   UNL     1       8.076  20.422  55.439  1.00  0.00     0.207 C 
HETATM   13  C   UNL     1       8.525  20.365  53.117  1.00  0.00     0.207 C 
HETATM   14  C   UNL     1       8.008  22.879  52.730  1.00  0.00     0.012 A 
HETATM   15  O   UNL     1       8.699  19.667  54.372  1.00  0.00    -0.382 OA
HETATM   16  C   UNL     1       7.600  24.063  53.354  1.00  0.00     0.030 A 
ENDBRANCH   5   8
ENDBRANCH   1   2
BRANCH   1  17
HETATM   17  C   UNL     1       4.649  28.421  55.886  1.00  0.00     0.026 C 
BRANCH  17  18
HETATM   18  C   UNL     1       5.611  28.933  54.809  1.00  0.00     0.060 C 
BRANCH  18  19
HETATM   19  C   UNL     1       5.418  28.299  53.476  1.00  0.00     0.030 A 
HETATM   20  N   UNL     1       6.336  27.484  52.872  1.00  0.00    -0.282 N 
HETATM   21  H   UNL     1       7.240  27.172  53.219  1.00  0.00     0.189 HD
HETATM   22  N   UNL     1       5.962  27.069  51.652  1.00  0.00    -0.174 NA
HETATM   23  C   UNL     1       4.771  27.648  51.432  1.00  0.00     0.089 A 
HETATM   24  C   UNL     1       4.386  28.410  52.569  1.00  0.00     0.060 A 
BRANCH  23  25
HETATM   25  C   UNL     1       4.055  27.474  50.162  1.00  0.00    -0.005 A 
HETATM   26  C   UNL     1       3.007  28.334  49.791  1.00  0.00     0.017 A 
HETATM   27  C   UNL     1       2.349  28.168  48.568  1.00  0.00     0.043 A 
HETATM   28  C   UNL     1       2.734  27.143  47.712  1.00  0.00     0.116 A 
HETATM   29  F   UNL     1       2.104  26.990  46.541  1.00  0.00    -0.206 F 
HETATM   30  C   UNL     1       3.765  26.280  48.054  1.00  0.00     0.043 A 
HETATM   31  C   UNL     1       4.423  26.445  49.276  1.00  0.00     0.017 A 
ENDBRANCH  23  25
ENDBRANCH  18  19
ENDBRANCH  17  18
ENDBRANCH   1  17
TORSDOF 6
ENDMDL
MODEL 7
REMARK VINA RESULT:      -9.4      2.746      4.525
REMARK  6 active torsions:
REMARK  status: ('A' for Active; 'I' for Inactive)
REMARK       I    between atoms: N_2  and  C_3 
REMARK    1  A    between atoms: N_2  and  C_15 
REMARK       I    between atoms: C_3  and  N_4 
REMARK    2  A    between atoms: N_4  and  C_5 
REMARK    3  A    between atoms: C_15  and  C_16 
REMARK    4  A    between atoms: C_16  and  C_17 
REMARK    5  A    between atoms: C_17  and  C_18 
REMARK    6  A    between atoms: C_22  and  C_23 
ROOT
HETATM    1  C   UNL     1       8.668  30.258  59.559  1.00  0.00     0.127 C 
ENDROOT
BRANCH   1   2
HETATM    2  N   UNL     1       9.292  30.313  58.232  1.00  0.00    -0.338 N 
HETATM    3  C   UNL     1      10.356  31.299  58.074  1.00  0.00     0.154 C 
HETATM    4  C   UNL     1       9.277  29.272  57.302  1.00  0.00     0.322 C 
HETATM    5  N   UNL     1       8.211  28.415  57.407  1.00  0.00    -0.309 N 
HETATM    6  O   UNL     1      10.212  29.127  56.519  1.00  0.00    -0.247 OA
HETATM    7  H   UNL     1       7.410  28.762  57.907  1.00  0.00     0.170 HD
BRANCH   5   8
HETATM    8  C   UNL     1       8.035  27.168  56.765  1.00  0.00     0.036 A 
HETATM    9  C   UNL     1       8.329  25.937  57.357  1.00  0.00     0.039 A 
HETATM   10  C   UNL     1       8.100  24.775  56.633  1.00  0.00    -0.024 A 
HETATM   11  C   UNL     1       7.565  24.811  55.357  1.00  0.00    -0.026 A 
HETATM   12  C   UNL     1       8.330  23.364  57.032  1.00  0.00     0.207 C 
HETATM   13  C   UNL     1       7.393  23.424  54.861  1.00  0.00     0.207 C 
HETATM   14  C   UNL     1       7.252  26.013  54.752  1.00  0.00     0.012 A 
HETATM   15  O   UNL     1       8.094  22.602  55.823  1.00  0.00    -0.382 OA
HETATM   16  C   UNL     1       7.501  27.194  55.460  1.00  0.00     0.030 A 
ENDBRANCH   5   8
ENDBRANCH   1   2
BRANCH   1  17
HETATM   17  C   UNL     1       9.288  31.225  60.579  1.00  0.00     0.026 C 
BRANCH  17  18
HETATM   18  C   UNL     1       8.961  30.887  62.037  1.00  0.00     0.060 C 
BRANCH  18  19
HETATM   19  C   UNL     1       7.777  31.613  62.573  1.00  0.00     0.030 A 
HETATM   20  N   UNL     1       6.526  31.558  62.020  1.00  0.00    -0.282 N 
HETATM   21  H   UNL     1       6.206  31.025  61.215  1.00  0.00     0.189 HD
HETATM   22  N   UNL     1       5.629  32.333  62.648  1.00  0.00    -0.174 NA
HETATM   23  C   UNL     1       6.313  32.940  63.631  1.00  0.00     0.089 A 
HETATM   24  C   UNL     1       7.663  32.492  63.629  1.00  0.00     0.060 A 
BRANCH  23  25
HETATM   25  C   UNL     1       5.677  33.923  64.517  1.00  0.00    -0.005 A 
HETATM   26  C   UNL     1       5.552  35.272  64.141  1.00  0.00     0.017 A 
HETATM   27  C   UNL     1       4.924  36.191  64.988  1.00  0.00     0.043 A 
HETATM   28  C   UNL     1       4.420  35.769  66.212  1.00  0.00     0.116 A 
HETATM   29  F   UNL     1       3.817  36.652  67.017  1.00  0.00    -0.206 F 
HETATM   30  C   UNL     1       4.532  34.443  66.608  1.00  0.00     0.043 A 
HETATM   31  C   UNL     1       5.159  33.524  65.762  1.00  0.00     0.017 A 
ENDBRANCH  23  25
ENDBRANCH  18  19
ENDBRANCH  17  18
ENDBRANCH   1  17
TORSDOF 6
ENDMDL
MODEL 8
REMARK VINA RESULT:      -9.3      4.504     10.219
REMARK  6 active torsions:
REMARK  status: ('A' for Active; 'I' for Inactive)
REMARK       I    between atoms: N_2  and  C_3 
REMARK    1  A    between atoms: N_2  and  C_15 
REMARK       I    between atoms: C_3  and  N_4 
REMARK    2  A    between atoms: N_4  and  C_5 
REMARK    3  A    between atoms: C_15  and  C_16 
REMARK    4  A    between atoms: C_16  and  C_17 
REMARK    5  A    between atoms: C_17  and  C_18 
REMARK    6  A    between atoms: C_22  and  C_23 
ROOT
HETATM    1  C   UNL     1       5.634  28.143  52.838  1.00  0.00     0.127 C 
ENDROOT
BRANCH   1   2
HETATM    2  N   UNL     1       4.664  28.947  53.588  1.00  0.00    -0.338 N 
HETATM    3  C   UNL     1       3.271  28.808  53.173  1.00  0.00     0.154 C 
HETATM    4  C   UNL     1       4.872  29.454  54.872  1.00  0.00     0.322 C 
HETATM    5  N   UNL     1       6.186  29.672  55.203  1.00  0.00    -0.309 N 
HETATM    6  O   UNL     1       3.926  29.602  55.642  1.00  0.00    -0.247 OA
HETATM    7  H   UNL     1       6.831  29.746  54.435  1.00  0.00     0.170 HD
BRANCH   5   8
HETATM    8  C   UNL     1       6.720  29.967  56.478  1.00  0.00     0.036 A 
HETATM    9  C   UNL     1       6.223  30.965  57.321  1.00  0.00     0.039 A 
HETATM   10  C   UNL     1       6.821  31.151  58.560  1.00  0.00    -0.024 A 
HETATM   11  C   UNL     1       7.872  30.357  58.984  1.00  0.00    -0.026 A 
HETATM   12  C   UNL     1       6.486  32.134  59.621  1.00  0.00     0.207 C 
HETATM   13  C   UNL     1       8.265  30.760  60.356  1.00  0.00     0.207 C 
HETATM   14  C   UNL     1       8.374  29.354  58.177  1.00  0.00     0.012 A 
HETATM   15  O   UNL     1       7.549  31.994  60.593  1.00  0.00    -0.382 OA
HETATM   16  C   UNL     1       7.798  29.170  56.915  1.00  0.00     0.030 A 
ENDBRANCH   5   8
ENDBRANCH   1   2
BRANCH   1  17
HETATM   17  C   UNL     1       5.217  27.857  51.387  1.00  0.00     0.026 C 
BRANCH  17  18
HETATM   18  C   UNL     1       5.029  26.370  51.073  1.00  0.00     0.060 C 
BRANCH  18  19
HETATM   19  C   UNL     1       6.018  25.482  51.744  1.00  0.00     0.030 A 
HETATM   20  N   UNL     1       7.364  25.510  51.503  1.00  0.00    -0.282 N 
HETATM   21  H   UNL     1       7.890  26.122  50.884  1.00  0.00     0.189 HD
HETATM   22  N   UNL     1       8.050  24.584  52.190  1.00  0.00    -0.174 NA
HETATM   23  C   UNL     1       7.125  23.905  52.887  1.00  0.00     0.089 A 
HETATM   24  C   UNL     1       5.837  24.457  52.649  1.00  0.00     0.060 A 
BRANCH  23  25
HETATM   25  C   UNL     1       7.488  22.758  53.731  1.00  0.00    -0.005 A 
HETATM   26  C   UNL     1       7.449  22.843  55.134  1.00  0.00     0.017 A 
HETATM   27  C   UNL     1       7.776  21.736  55.923  1.00  0.00     0.043 A 
HETATM   28  C   UNL     1       8.145  20.542  55.316  1.00  0.00     0.116 A 
HETATM   29  F   UNL     1       8.454  19.483  56.075  1.00  0.00    -0.206 F 
HETATM   30  C   UNL     1       8.192  20.432  53.933  1.00  0.00     0.043 A 
HETATM   31  C   UNL     1       7.865  21.538  53.144  1.00  0.00     0.017 A 
ENDBRANCH  23  25
ENDBRANCH  18  19
ENDBRANCH  17  18
ENDBRANCH   1  17
TORSDOF 6
ENDMDL
MODEL 9
REMARK VINA RESULT:      -9.2      1.631      2.142
REMARK  6 active torsions:
REMARK  status: ('A' for Active; 'I' for Inactive)
REMARK       I    between atoms: N_2  and  C_3 
REMARK    1  A    between atoms: N_2  and  C_15 
REMARK       I    between atoms: C_3  and  N_4 
REMARK    2  A    between atoms: N_4  and  C_5 
REMARK    3  A    between atoms: C_15  and  C_16 
REMARK    4  A    between atoms: C_16  and  C_17 
REMARK    5  A    between atoms: C_17  and  C_18 
REMARK    6  A    between atoms: C_22  and  C_23 
ROOT
HETATM    1  C   UNL     1       6.547  29.922  56.094  1.00  0.00     0.127 C 
ENDROOT
BRANCH   1   2
HETATM    2  N   UNL     1       5.374  29.104  55.766  1.00  0.00    -0.338 N 
HETATM    3  C   UNL     1       4.121  29.833  55.601  1.00  0.00     0.154 C 
HETATM    4  C   UNL     1       5.425  27.835  55.189  1.00  0.00     0.322 C 
HETATM    5  N   UNL     1       6.574  27.127  55.442  1.00  0.00    -0.309 N 
HETATM    6  O   UNL     1       4.521  27.452  54.449  1.00  0.00    -0.247 OA
HETATM    7  H   UNL     1       7.116  27.431  56.233  1.00  0.00     0.170 HD
BRANCH   5   8
HETATM    8  C   UNL     1       7.005  25.929  54.830  1.00  0.00     0.036 A 
HETATM    9  C   UNL     1       7.020  24.687  55.471  1.00  0.00     0.039 A 
HETATM   10  C   UNL     1       7.451  23.574  54.762  1.00  0.00    -0.024 A 
HETATM   11  C   UNL     1       7.836  23.665  53.435  1.00  0.00    -0.026 A 
HETATM   12  C   UNL     1       7.563  22.164  55.212  1.00  0.00     0.207 C 
HETATM   13  C   UNL     1       8.198  22.315  52.939  1.00  0.00     0.207 C 
HETATM   14  C   UNL     1       7.818  24.878  52.773  1.00  0.00     0.012 A 
HETATM   15  O   UNL     1       8.240  21.489  54.125  1.00  0.00    -0.382 OA
HETATM   16  C   UNL     1       7.410  26.013  53.482  1.00  0.00     0.030 A 
ENDBRANCH   5   8
ENDBRANCH   1   2
BRANCH   1  17
HETATM   17  C   UNL     1       6.589  30.394  57.555  1.00  0.00     0.026 C 
BRANCH  17  18
HETATM   18  C   UNL     1       7.919  30.117  58.263  1.00  0.00     0.060 C 
BRANCH  18  19
HETATM   19  C   UNL     1       8.042  30.772  59.594  1.00  0.00     0.030 A 
HETATM   20  N   UNL     1       9.205  30.841  60.312  1.00  0.00    -0.282 N 
HETATM   21  H   UNL     1      10.131  30.502  60.064  1.00  0.00     0.189 HD
HETATM   22  N   UNL     1       9.061  31.437  61.506  1.00  0.00    -0.174 NA
HETATM   23  C   UNL     1       7.758  31.748  61.591  1.00  0.00     0.089 A 
HETATM   24  C   UNL     1       7.090  31.366  60.395  1.00  0.00     0.060 A 
BRANCH  23  25
HETATM   25  C   UNL     1       7.194  32.374  62.794  1.00  0.00    -0.005 A 
HETATM   26  C   UNL     1       8.023  32.922  63.789  1.00  0.00     0.017 A 
HETATM   27  C   UNL     1       7.470  33.534  64.918  1.00  0.00     0.043 A 
HETATM   28  C   UNL     1       6.089  33.599  65.060  1.00  0.00     0.116 A 
HETATM   29  F   UNL     1       5.564  34.188  66.141  1.00  0.00    -0.206 F 
HETATM   30  C   UNL     1       5.249  33.064  64.094  1.00  0.00     0.043 A 
HETATM   31  C   UNL     1       5.801  32.453  62.964  1.00  0.00     0.017 A 
ENDBRANCH  23  25
ENDBRANCH  18  19
ENDBRANCH  17  18
ENDBRANCH   1  17
TORSDOF 6
ENDMDL
MODEL 10
REMARK VINA RESULT:      -9.1      7.102     13.645
REMARK  6 active torsions:
REMARK  status: ('A' for Active; 'I' for Inactive)
REMARK       I    between atoms: N_2  and  C_3 
REMARK    1  A    between atoms: N_2  and  C_15 
REMARK       I    between atoms: C_3  and  N_4 
REMARK    2  A    between atoms: N_4  and  C_5 
REMARK    3  A    between atoms: C_15  and  C_16 
REMARK    4  A    between atoms: C_16  and  C_17 
REMARK    5  A    between atoms: C_17  and  C_18 
REMARK    6  A    between atoms: C_22  and  C_23 
ROOT
HETATM    1  C   UNL     1       5.416  33.288  64.610  1.00  0.00     0.127 C 
ENDROOT
BRANCH   1   2
HETATM    2  N   UNL     1       5.107  34.599  65.190  1.00  0.00    -0.338 N 
HETATM    3  C   UNL     1       4.067  35.363  64.508  1.00  0.00     0.154 C 
HETATM    4  C   UNL     1       5.373  34.968  66.509  1.00  0.00     0.322 C 
HETATM    5  N   UNL     1       6.421  34.306  67.097  1.00  0.00    -0.309 N 
HETATM    6  O   UNL     1       4.645  35.772  67.087  1.00  0.00    -0.247 OA
HETATM    7  H   UNL     1       7.074  33.865  66.472  1.00  0.00     0.170 HD
BRANCH   5   8
HETATM    8  C   UNL     1       6.787  34.302  68.462  1.00  0.00     0.036 A 
HETATM    9  C   UNL     1       5.981  33.794  69.485  1.00  0.00     0.039 A 
HETATM   10  C   UNL     1       6.454  33.829  70.789  1.00  0.00    -0.024 A 
HETATM   11  C   UNL     1       7.709  34.329  71.091  1.00  0.00    -0.026 A 
HETATM   12  C   UNL     1       5.797  33.362  72.035  1.00  0.00     0.207 C 
HETATM   13  C   UNL     1       7.950  34.194  72.548  1.00  0.00     0.207 C 
HETATM   14  C   UNL     1       8.532  34.826  70.099  1.00  0.00     0.012 A 
HETATM   15  O   UNL     1       6.666  33.821  73.098  1.00  0.00    -0.382 OA
HETATM   16  C   UNL     1       8.059  34.819  68.782  1.00  0.00     0.030 A 
ENDBRANCH   5   8
ENDBRANCH   1   2
BRANCH   1  17
HETATM   17  C   UNL     1       6.351  33.351  63.392  1.00  0.00     0.026 C 
BRANCH  17  18
HETATM   18  C   UNL     1       7.728  32.722  63.629  1.00  0.00     0.060 C 
BRANCH  18  19
HETATM   19  C   UNL     1       8.161  31.791  62.551  1.00  0.00     0.030 A 
HETATM   20  N   UNL     1       8.623  30.523  62.770  1.00  0.00    -0.282 N 
HETATM   21  H   UNL     1       8.720  30.020  63.649  1.00  0.00     0.189 HD
HETATM   22  N   UNL     1       8.999  29.889  61.648  1.00  0.00    -0.174 NA
HETATM   23  C   UNL     1       8.804  30.776  60.660  1.00  0.00     0.089 A 
HETATM   24  C   UNL     1       8.254  31.977  61.188  1.00  0.00     0.060 A 
BRANCH  23  25
HETATM   25  C   UNL     1       9.156  30.465  59.268  1.00  0.00    -0.005 A 
HETATM   26  C   UNL     1       8.399  29.557  58.508  1.00  0.00     0.017 A 
HETATM   27  C   UNL     1       8.734  29.288  57.178  1.00  0.00     0.043 A 
HETATM   28  C   UNL     1       9.827  29.923  56.601  1.00  0.00     0.116 A 
HETATM   29  F   UNL     1      10.143  29.665  55.326  1.00  0.00    -0.206 F 
HETATM   30  C   UNL     1      10.592  30.824  57.329  1.00  0.00     0.043 A 
HETATM   31  C   UNL     1      10.257  31.093  58.659  1.00  0.00     0.017 A 
ENDBRANCH  23  25
ENDBRANCH  18  19
ENDBRANCH  17  18
ENDBRANCH   1  17
TORSDOF 6
ENDMDL
