MODEL 1
REMARK VINA RESULT:     -10.7      0.000      0.000
REMARK  6 active torsions:
REMARK  status: ('A' for Active; 'I' for Inactive)
REMARK    1  A    between atoms: C_5  and  N_6 
REMARK       I    between atoms: N_6  and  C_7 
REMARK       I    between atoms: C_7  and  N_8 
REMARK    2  A    between atoms: N_8  and  C_9 
REMARK    3  A    between atoms: C_9  and  C_10 
REMARK       I    between atoms: C_10  and  N_11 
REMARK    4  A    between atoms: N_11  and  N_12 
REMARK       I    between atoms: N_12  and  C_13 
REMARK       I    between atoms: C_13  and  N_14 
REMARK    5  A    between atoms: N_14  and  C_15 
REMARK    6  A    between atoms: C_17  and  C_18 
ROOT
HETATM    1  C   UNL     1       7.908  28.367  56.771  1.00  0.00     0.253 C 
HETATM    2  N   UNL     1       7.576  28.122  55.452  1.00  0.00    -0.265 N 
HETATM    3  O   UNL     1       7.098  28.256  57.692  1.00  0.00    -0.270 OA
HETATM    4  H   UNL     1       8.330  28.019  54.768  1.00  0.00     0.190 HD
ENDROOT
BRANCH   2   5
HETATM    5  N   UNL     1       6.353  27.500  55.180  1.00  0.00    -0.249 N 
HETATM    6  C   UNL     1       6.254  26.181  54.785  1.00  0.00     0.339 C 
HETATM    7  N   UNL     1       7.442  25.493  54.861  1.00  0.00    -0.308 N 
HETATM    8  O   UNL     1       5.170  25.735  54.427  1.00  0.00    -0.245 OA
HETATM    9  H   UNL     1       8.243  26.078  55.051  1.00  0.00     0.170 HD
HETATM   10  H   UNL     1       5.562  28.102  54.962  1.00  0.00     0.192 HD
BRANCH   7  11
HETATM   11  C   UNL     1       7.680  24.131  54.606  1.00  0.00     0.037 A 
HETATM   12  C   UNL     1       7.885  23.175  55.605  1.00  0.00     0.045 A 
HETATM   13  C   UNL     1       8.134  21.830  55.279  1.00  0.00     0.050 A 
HETATM   14  C   UNL     1       8.159  21.449  53.929  1.00  0.00     0.016 A 
HETATM   15  C   UNL     1       7.957  22.395  52.927  1.00  0.00     0.003 A 
HETATM   16  C   UNL     1       7.722  23.730  53.266  1.00  0.00     0.029 A 
BRANCH  13  17
HETATM   17  C   UNL     1       8.338  20.797  56.359  1.00  0.00     0.417 C 
HETATM   18  F   UNL     1       8.319  21.307  57.621  1.00  0.00    -0.166 F 
HETATM   19  F   UNL     1       7.386  19.824  56.332  1.00  0.00    -0.166 F 
HETATM   20  F   UNL     1       9.533  20.149  56.242  1.00  0.00    -0.166 F 
ENDBRANCH  13  17
ENDBRANCH   7  11
ENDBRANCH   2   5
BRANCH   1  21
HETATM   21  C   UNL     1       9.305  28.961  56.978  1.00  0.00     0.228 C 
BRANCH  21  22
HETATM   22  N   UNL     1       9.444  29.885  58.092  1.00  0.00    -0.334 N 
HETATM   23  C   UNL     1      10.271  30.958  58.079  1.00  0.00     0.322 C 
HETATM   24  N   UNL     1      10.082  31.916  59.022  1.00  0.00    -0.293 N 
HETATM   25  O   UNL     1      11.207  31.048  57.283  1.00  0.00    -0.247 OA
HETATM   26  H   UNL     1      10.774  32.650  58.990  1.00  0.00     0.172 HD
HETATM   27  H   UNL     1       8.639  30.000  58.707  1.00  0.00     0.164 HD
BRANCH  24  28
HETATM   28  C   UNL     1       9.053  32.036  59.963  1.00  0.00     0.131 A 
HETATM   29  N   UNL     1       7.786  32.260  59.550  1.00  0.00    -0.243 NA
HETATM   30  C   UNL     1       6.833  32.388  60.506  1.00  0.00     0.125 A 
HETATM   31  C   UNL     1       7.081  32.319  61.871  1.00  0.00    -0.044 A 
HETATM   32  C   UNL     1       5.973  32.441  62.868  1.00  0.00     0.049 C 
HETATM   33  C   UNL     1       8.393  32.073  62.269  1.00  0.00     0.012 A 
HETATM   34  C   UNL     1       9.392  31.934  61.306  1.00  0.00     0.051 A 
ENDBRANCH  24  28
ENDBRANCH  21  22
ENDBRANCH   1  21
TORSDOF 6
ENDMDL
MODEL 2
REMARK VINA RESULT:     -10.3      1.750      2.236
REMARK  6 active torsions:
REMARK  status: ('A' for Active; 'I' for Inactive)
REMARK    1  A    between atoms: C_5  and  N_6 
REMARK       I    between atoms: N_6  and  C_7 
REMARK       I    between atoms: C_7  and  N_8 
REMARK    2  A    between atoms: N_8  and  C_9 
REMARK    3  A    between atoms: C_9  and  C_10 
REMARK       I    between atoms: C_10  and  N_11 
REMARK    4  A    between atoms: N_11  and  N_12 
REMARK       I    between atoms: N_12  and  C_13 
REMARK       I    between atoms: C_13  and  N_14 
REMARK    5  A    between atoms: N_14  and  C_15 
REMARK    6  A    between atoms: C_17  and  C_18 
ROOT
HETATM    1  C   UNL     1       8.034  28.429  56.738  1.00  0.00     0.253 C 
HETATM    2  N   UNL     1       7.904  27.251  57.449  1.00  0.00    -0.265 N 
HETATM    3  O   UNL     1       7.196  28.806  55.918  1.00  0.00    -0.270 OA
HETATM    4  H   UNL     1       8.510  27.099  58.259  1.00  0.00     0.190 HD
ENDROOT
BRANCH   2   5
HETATM    5  N   UNL     1       6.674  26.587  57.416  1.00  0.00    -0.249 N 
HETATM    6  C   UNL     1       6.531  25.296  56.946  1.00  0.00     0.339 C 
HETATM    7  N   UNL     1       7.726  24.668  56.688  1.00  0.00    -0.308 N 
HETATM    8  O   UNL     1       5.408  24.821  56.812  1.00  0.00    -0.245 OA
HETATM    9  H   UNL     1       8.529  25.281  56.736  1.00  0.00     0.170 HD
HETATM   10  H   UNL     1       5.833  27.160  57.437  1.00  0.00     0.192 HD
BRANCH   7  11
HETATM   11  C   UNL     1       7.945  23.344  56.273  1.00  0.00     0.037 A 
HETATM   12  C   UNL     1       7.917  22.930  54.938  1.00  0.00     0.045 A 
HETATM   13  C   UNL     1       8.130  21.583  54.594  1.00  0.00     0.050 A 
HETATM   14  C   UNL     1       8.386  20.652  55.610  1.00  0.00     0.016 A 
HETATM   15  C   UNL     1       8.414  21.055  56.943  1.00  0.00     0.003 A 
HETATM   16  C   UNL     1       8.191  22.394  57.271  1.00  0.00     0.029 A 
BRANCH  13  17
HETATM   17  C   UNL     1       8.116  21.143  53.151  1.00  0.00     0.417 C 
HETATM   18  F   UNL     1       7.139  20.242  52.857  1.00  0.00    -0.166 F 
HETATM   19  F   UNL     1       7.939  22.185  52.293  1.00  0.00    -0.166 F 
HETATM   20  F   UNL     1       9.287  20.551  52.775  1.00  0.00    -0.166 F 
ENDBRANCH  13  17
ENDBRANCH   7  11
ENDBRANCH   2   5
BRANCH   1  21
HETATM   21  C   UNL     1       9.384  29.134  56.911  1.00  0.00     0.228 C 
BRANCH  21  22
HETATM   22  N   UNL     1       9.507  29.992  58.078  1.00  0.00    -0.334 N 
HETATM   23  C   UNL     1      10.345  31.055  58.143  1.00  0.00     0.322 C 
HETATM   24  N   UNL     1      10.145  31.960  59.135  1.00  0.00    -0.293 N 
HETATM   25  O   UNL     1      11.299  31.179  57.374  1.00  0.00    -0.247 OA
HETATM   26  H   UNL     1      10.844  32.687  59.159  1.00  0.00     0.172 HD
HETATM   27  H   UNL     1       8.689  30.081  58.681  1.00  0.00     0.164 HD
BRANCH  24  28
HETATM   28  C   UNL     1       9.096  32.039  60.058  1.00  0.00     0.131 A 
HETATM   29  N   UNL     1       7.835  32.268  59.629  1.00  0.00    -0.243 NA
HETATM   30  C   UNL     1       6.863  32.354  60.569  1.00  0.00     0.125 A 
HETATM   31  C   UNL     1       7.084  32.238  61.936  1.00  0.00    -0.044 A 
HETATM   32  C   UNL     1       5.956  32.316  62.914  1.00  0.00     0.049 C 
HETATM   33  C   UNL     1       8.390  31.987  62.350  1.00  0.00     0.012 A 
HETATM   34  C   UNL     1       9.409  31.891  61.404  1.00  0.00     0.051 A 
ENDBRANCH  24  28
ENDBRANCH  21  22
ENDBRANCH   1  21
TORSDOF 6
ENDMDL
MODEL 3
REMARK VINA RESULT:     -10.1      2.183      3.324
REMARK  6 active torsions:
REMARK  status: ('A' for Active; 'I' for Inactive)
REMARK    1  A    between atoms: C_5  and  N_6 
REMARK       I    between atoms: N_6  and  C_7 
REMARK       I    between atoms: C_7  and  N_8 
REMARK    2  A    between atoms: N_8  and  C_9 
REMARK    3  A    between atoms: C_9  and  C_10 
REMARK       I    between atoms: C_10  and  N_11 
REMARK    4  A    between atoms: N_11  and  N_12 
REMARK       I    between atoms: N_12  and  C_13 
REMARK       I    between atoms: C_13  and  N_14 
REMARK    5  A    between atoms: N_14  and  C_15 
REMARK    6  A    between atoms: C_17  and  C_18 
ROOT
HETATM    1  C   UNL     1       5.048  28.495  53.724  1.00  0.00     0.253 C 
HETATM    2  N   UNL     1       4.549  27.336  54.288  1.00  0.00    -0.265 N 
HETATM    3  O   UNL     1       5.315  28.589  52.525  1.00  0.00    -0.270 OA
HETATM    4  H   UNL     1       4.147  27.382  55.227  1.00  0.00     0.190 HD
ENDROOT
BRANCH   2   5
HETATM    5  N   UNL     1       4.108  26.319  53.435  1.00  0.00    -0.249 N 
HETATM    6  C   UNL     1       4.846  25.179  53.185  1.00  0.00     0.339 C 
HETATM    7  N   UNL     1       5.958  25.056  53.984  1.00  0.00    -0.308 N 
HETATM    8  O   UNL     1       4.471  24.392  52.322  1.00  0.00    -0.245 OA
HETATM    9  H   UNL     1       6.159  25.879  54.534  1.00  0.00     0.170 HD
HETATM   10  H   UNL     1       3.393  26.559  52.752  1.00  0.00     0.192 HD
BRANCH   7  11
HETATM   11  C   UNL     1       6.878  23.995  54.042  1.00  0.00     0.037 A 
HETATM   12  C   UNL     1       7.102  23.218  55.182  1.00  0.00     0.045 A 
HETATM   13  C   UNL     1       8.050  22.180  55.174  1.00  0.00     0.050 A 
HETATM   14  C   UNL     1       8.767  21.919  53.998  1.00  0.00     0.016 A 
HETATM   15  C   UNL     1       8.552  22.689  52.857  1.00  0.00     0.003 A 
HETATM   16  C   UNL     1       7.614  23.724  52.882  1.00  0.00     0.029 A 
BRANCH  13  17
HETATM   17  C   UNL     1       8.277  21.332  56.401  1.00  0.00     0.417 C 
HETATM   18  F   UNL     1       7.342  20.359  56.582  1.00  0.00    -0.166 F 
HETATM   19  F   UNL     1       9.481  20.696  56.376  1.00  0.00    -0.166 F 
HETATM   20  F   UNL     1       8.271  22.066  57.551  1.00  0.00    -0.166 F 
ENDBRANCH  13  17
ENDBRANCH   7  11
ENDBRANCH   2   5
BRANCH   1  21
HETATM   21  C   UNL     1       5.415  29.589  54.732  1.00  0.00     0.228 C 
BRANCH  21  22
HETATM   22  N   UNL     1       6.486  29.264  55.661  1.00  0.00    -0.334 N 
HETATM   23  C   UNL     1       7.548  28.487  55.339  1.00  0.00     0.322 C 
HETATM   24  N   UNL     1       8.628  28.516  56.162  1.00  0.00    -0.293 N 
HETATM   25  O   UNL     1       7.529  27.728  54.369  1.00  0.00    -0.247 OA
HETATM   26  H   UNL     1       9.352  27.866  55.894  1.00  0.00     0.172 HD
HETATM   27  H   UNL     1       6.682  29.936  56.401  1.00  0.00     0.164 HD
BRANCH  24  28
HETATM   28  C   UNL     1       8.875  29.346  57.262  1.00  0.00     0.131 A 
HETATM   29  N   UNL     1       8.084  29.271  58.354  1.00  0.00    -0.243 NA
HETATM   30  C   UNL     1       8.358  30.113  59.380  1.00  0.00     0.125 A 
HETATM   31  C   UNL     1       9.384  31.049  59.371  1.00  0.00    -0.044 A 
HETATM   32  C   UNL     1       9.646  31.926  60.553  1.00  0.00     0.049 C 
HETATM   33  C   UNL     1      10.194  31.095  58.238  1.00  0.00     0.012 A 
HETATM   34  C   UNL     1       9.936  30.239  57.169  1.00  0.00     0.051 A 
ENDBRANCH  24  28
ENDBRANCH  21  22
ENDBRANCH   1  21
TORSDOF 6
ENDMDL
MODEL 4
REMARK VINA RESULT:     -10.1      5.081     10.670
REMARK  6 active torsions:
REMARK  status: ('A' for Active; 'I' for Inactive)
REMARK    1  A    between atoms: C_5  and  N_6 
REMARK       I    between atoms: N_6  and  C_7 
REMARK       I    between atoms: C_7  and  N_8 
REMARK    2  A    between atoms: N_8  and  C_9 
REMARK    3  A    between atoms: C_9  and  C_10 
REMARK       I    between atoms: C_10  and  N_11 
REMARK    4  A    between atoms: N_11  and  N_12 
REMARK       I    between atoms: N_12  and  C_13 
REMARK       I    between atoms: C_13  and  N_14 
REMARK    5  A    between atoms: N_14  and  C_15 
REMARK    6  A    between atoms: C_17  and  C_18 
ROOT
HETATM    1  C   UNL     1       8.295  28.566  56.197  1.00  0.00     0.253 C 
HETATM    2  N   UNL     1       8.484  29.063  57.472  1.00  0.00    -0.265 N 
HETATM    3  O   UNL     1       8.781  29.096  55.197  1.00  0.00    -0.270 OA
HETATM    4  H   UNL     1       8.244  28.470  58.270  1.00  0.00     0.190 HD
ENDROOT
BRANCH   2   5
HETATM    5  N   UNL     1       9.449  30.058  57.661  1.00  0.00    -0.249 N 
HETATM    6  C   UNL     1       9.342  31.032  58.634  1.00  0.00     0.339 C 
HETATM    7  N   UNL     1       8.300  30.826  59.507  1.00  0.00    -0.308 N 
HETATM    8  O   UNL     1      10.148  31.955  58.657  1.00  0.00    -0.245 OA
HETATM    9  H   UNL     1       7.676  30.081  59.231  1.00  0.00     0.170 HD
HETATM   10  H   UNL     1      10.072  30.258  56.881  1.00  0.00     0.192 HD
BRANCH   7  11
HETATM   11  C   UNL     1       7.953  31.576  60.643  1.00  0.00     0.037 A 
HETATM   12  C   UNL     1       6.942  32.541  60.662  1.00  0.00     0.045 A 
HETATM   13  C   UNL     1       6.656  33.267  61.832  1.00  0.00     0.050 A 
HETATM   14  C   UNL     1       7.392  33.002  62.995  1.00  0.00     0.016 A 
HETATM   15  C   UNL     1       8.403  32.044  62.986  1.00  0.00     0.003 A 
HETATM   16  C   UNL     1       8.682  31.337  61.814  1.00  0.00     0.029 A 
BRANCH  13  17
HETATM   17  C   UNL     1       5.553  34.296  61.853  1.00  0.00     0.417 C 
HETATM   18  F   UNL     1       4.583  34.047  62.775  1.00  0.00    -0.166 F 
HETATM   19  F   UNL     1       6.017  35.547  62.122  1.00  0.00    -0.166 F 
HETATM   20  F   UNL     1       4.906  34.391  60.656  1.00  0.00    -0.166 F 
ENDBRANCH  13  17
ENDBRANCH   7  11
ENDBRANCH   2   5
BRANCH   1  21
HETATM   21  C   UNL     1       7.287  27.414  56.103  1.00  0.00     0.228 C 
BRANCH  21  22
HETATM   22  N   UNL     1       7.839  26.075  56.232  1.00  0.00    -0.334 N 
HETATM   23  C   UNL     1       7.947  25.419  57.412  1.00  0.00     0.322 C 
HETATM   24  N   UNL     1       8.168  24.079  57.374  1.00  0.00    -0.293 N 
HETATM   25  O   UNL     1       7.910  26.010  58.492  1.00  0.00    -0.247 OA
HETATM   26  H   UNL     1       8.301  23.670  58.287  1.00  0.00     0.172 HD
HETATM   27  H   UNL     1       7.753  25.456  55.427  1.00  0.00     0.164 HD
BRANCH  24  28
HETATM   28  C   UNL     1       8.177  23.218  56.270  1.00  0.00     0.131 A 
HETATM   29  N   UNL     1       8.090  23.723  55.020  1.00  0.00    -0.243 NA
HETATM   30  C   UNL     1       8.083  22.841  53.992  1.00  0.00     0.125 A 
HETATM   31  C   UNL     1       8.144  21.462  54.144  1.00  0.00    -0.044 A 
HETATM   32  C   UNL     1       8.161  20.550  52.959  1.00  0.00     0.049 C 
HETATM   33  C   UNL     1       8.248  20.968  55.443  1.00  0.00     0.012 A 
HETATM   34  C   UNL     1       8.259  21.854  56.519  1.00  0.00     0.051 A 
ENDBRANCH  24  28
ENDBRANCH  21  22
ENDBRANCH   1  21
TORSDOF 6
ENDMDL
MODEL 5
REMARK VINA RESULT:     -10.0      4.939     10.163
REMARK  6 active torsions:
REMARK  status: ('A' for Active; 'I' for Inactive)
REMARK    1  A    between atoms: C_5  and  N_6 
REMARK       I    between atoms: N_6  and  C_7 
REMARK       I    between atoms: C_7  and  N_8 
REMARK    2  A    between atoms: N_8  and  C_9 
REMARK    3  A    between atoms: C_9  and  C_10 
REMARK       I    between atoms: C_10  and  N_11 
REMARK    4  A    between atoms: N_11  and  N_12 
REMARK       I    between atoms: N_12  and  C_13 
REMARK       I    between atoms: C_13  and  N_14 
REMARK    5  A    between atoms: N_14  and  C_15 
REMARK    6  A    between atoms: C_17  and  C_18 
ROOT
HETATM    1  C   UNL     1       5.069  27.863  56.478  1.00  0.00     0.253 C 
HETATM    2  N   UNL     1       5.677  28.724  57.372  1.00  0.00    -0.265 N 
HETATM    3  O   UNL     1       4.382  28.259  55.535  1.00  0.00    -0.270 OA
HETATM    4  H   UNL     1       6.400  28.355  57.993  1.00  0.00     0.190 HD
ENDROOT
BRANCH   2   5
HETATM    5  N   UNL     1       5.712  30.087  57.061  1.00  0.00    -0.249 N 
HETATM    6  C   UNL     1       6.257  31.035  57.905  1.00  0.00     0.339 C 
HETATM    7  N   UNL     1       6.916  30.496  58.985  1.00  0.00    -0.308 N 
HETATM    8  O   UNL     1       6.131  32.225  57.641  1.00  0.00    -0.245 OA
HETATM    9  H   UNL     1       6.786  29.500  59.089  1.00  0.00     0.170 HD
HETATM   10  H   UNL     1       5.054  30.424  56.361  1.00  0.00     0.192 HD
BRANCH   7  11
HETATM   11  C   UNL     1       7.637  31.165  59.989  1.00  0.00     0.037 A 
HETATM   12  C   UNL     1       7.055  31.704  61.140  1.00  0.00     0.045 A 
HETATM   13  C   UNL     1       7.835  32.375  62.098  1.00  0.00     0.050 A 
HETATM   14  C   UNL     1       9.218  32.486  61.896  1.00  0.00     0.016 A 
HETATM   15  C   UNL     1       9.807  31.953  60.751  1.00  0.00     0.003 A 
HETATM   16  C   UNL     1       9.018  31.298  59.802  1.00  0.00     0.029 A 
BRANCH  13  17
HETATM   17  C   UNL     1       7.206  32.942  63.347  1.00  0.00     0.417 C 
HETATM   18  F   UNL     1       6.790  34.232  63.220  1.00  0.00    -0.166 F 
HETATM   19  F   UNL     1       6.116  32.231  63.746  1.00  0.00    -0.166 F 
HETATM   20  F   UNL     1       8.061  32.935  64.411  1.00  0.00    -0.166 F 
ENDBRANCH  13  17
ENDBRANCH   7  11
ENDBRANCH   2   5
BRANCH   1  21
HETATM   21  C   UNL     1       5.163  26.380  56.854  1.00  0.00     0.228 C 
BRANCH  21  22
HETATM   22  N   UNL     1       6.369  25.691  56.424  1.00  0.00    -0.334 N 
HETATM   23  C   UNL     1       7.502  25.627  57.165  1.00  0.00     0.322 C 
HETATM   24  N   UNL     1       8.434  24.703  56.819  1.00  0.00    -0.293 N 
HETATM   25  O   UNL     1       7.722  26.415  58.086  1.00  0.00    -0.247 OA
HETATM   26  H   UNL     1       9.275  24.757  57.374  1.00  0.00     0.172 HD
HETATM   27  H   UNL     1       6.254  24.904  55.786  1.00  0.00     0.164 HD
BRANCH  24  28
HETATM   28  C   UNL     1       8.353  23.684  55.862  1.00  0.00     0.131 A 
HETATM   29  N   UNL     1       8.154  23.995  54.562  1.00  0.00    -0.243 NA
HETATM   30  C   UNL     1       8.064  22.967  53.684  1.00  0.00     0.125 A 
HETATM   31  C   UNL     1       8.146  21.626  54.037  1.00  0.00    -0.044 A 
HETATM   32  C   UNL     1       8.066  20.545  53.007  1.00  0.00     0.049 C 
HETATM   33  C   UNL     1       8.366  21.334  55.382  1.00  0.00     0.012 A 
HETATM   34  C   UNL     1       8.465  22.373  56.306  1.00  0.00     0.051 A 
ENDBRANCH  24  28
ENDBRANCH  21  22
ENDBRANCH   1  21
TORSDOF 6
ENDMDL
MODEL 6
REMARK VINA RESULT:      -9.9      5.025     10.651
REMARK  6 active torsions:
REMARK  status: ('A' for Active; 'I' for Inactive)
REMARK    1  A    between atoms: C_5  and  N_6 
REMARK       I    between atoms: N_6  and  C_7 
REMARK       I    between atoms: C_7  and  N_8 
REMARK    2  A    between atoms: N_8  and  C_9 
REMARK    3  A    between atoms: C_9  and  C_10 
REMARK       I    between atoms: C_10  and  N_11 
REMARK    4  A    between atoms: N_11  and  N_12 
REMARK       I    between atoms: N_12  and  C_13 
REMARK       I    between atoms: C_13  and  N_14 
REMARK    5  A    between atoms: N_14  and  C_15 
REMARK    6  A    between atoms: C_17  and  C_18 
ROOT
HETATM    1  C   UNL     1       8.226  28.619  56.466  1.00  0.00     0.253 C 
HETATM    2  N   UNL     1       8.095  29.210  57.708  1.00  0.00    -0.265 N 
HETATM    3  O   UNL     1       8.966  29.069  55.591  1.00  0.00    -0.270 OA
HETATM    4  H   UNL     1       7.642  28.681  58.457  1.00  0.00     0.190 HD
ENDROOT
BRANCH   2   5
HETATM    5  N   UNL     1       9.006  30.208  58.068  1.00  0.00    -0.249 N 
HETATM    6  C   UNL     1       8.661  31.292  58.851  1.00  0.00     0.339 C 
HETATM    7  N   UNL     1       7.398  31.204  59.388  1.00  0.00    -0.308 N 
HETATM    8  O   UNL     1       9.466  32.202  59.014  1.00  0.00    -0.245 OA
HETATM    9  H   UNL     1       6.850  30.439  59.020  1.00  0.00     0.170 HD
HETATM   10  H   UNL     1       9.841  30.307  57.494  1.00  0.00     0.192 HD
BRANCH   7  11
HETATM   11  C   UNL     1       6.764  32.088  60.277  1.00  0.00     0.037 A 
HETATM   12  C   UNL     1       7.202  32.327  61.583  1.00  0.00     0.045 A 
HETATM   13  C   UNL     1       6.509  33.214  62.427  1.00  0.00     0.050 A 
HETATM   14  C   UNL     1       5.374  33.875  61.937  1.00  0.00     0.016 A 
HETATM   15  C   UNL     1       4.930  33.642  60.637  1.00  0.00     0.003 A 
HETATM   16  C   UNL     1       5.621  32.750  59.814  1.00  0.00     0.029 A 
BRANCH  13  17
HETATM   17  C   UNL     1       6.994  33.483  63.830  1.00  0.00     0.417 C 
HETATM   18  F   UNL     1       6.916  34.791  64.200  1.00  0.00    -0.166 F 
HETATM   19  F   UNL     1       6.290  32.785  64.763  1.00  0.00    -0.166 F 
HETATM   20  F   UNL     1       8.299  33.127  64.008  1.00  0.00    -0.166 F 
ENDBRANCH  13  17
ENDBRANCH   7  11
ENDBRANCH   2   5
BRANCH   1  21
HETATM   21  C   UNL     1       7.245  27.472  56.198  1.00  0.00     0.228 C 
BRANCH  21  22
HETATM   22  N   UNL     1       7.798  26.130  56.285  1.00  0.00    -0.334 N 
HETATM   23  C   UNL     1       7.905  25.437  57.444  1.00  0.00     0.322 C 
HETATM   24  N   UNL     1       8.127  24.100  57.365  1.00  0.00    -0.293 N 
HETATM   25  O   UNL     1       7.867  25.994  58.542  1.00  0.00    -0.247 OA
HETATM   26  H   UNL     1       8.260  23.663  58.265  1.00  0.00     0.172 HD
HETATM   27  H   UNL     1       7.712  25.536  55.461  1.00  0.00     0.164 HD
BRANCH  24  28
HETATM   28  C   UNL     1       8.137  23.274  56.235  1.00  0.00     0.131 A 
HETATM   29  N   UNL     1       8.328  23.809  55.010  1.00  0.00    -0.243 NA
HETATM   30  C   UNL     1       8.309  22.964  53.951  1.00  0.00     0.125 A 
HETATM   31  C   UNL     1       8.090  21.595  54.046  1.00  0.00    -0.044 A 
HETATM   32  C   UNL     1       8.110  20.719  52.835  1.00  0.00     0.049 C 
HETATM   33  C   UNL     1       7.911  21.067  55.323  1.00  0.00     0.012 A 
HETATM   34  C   UNL     1       7.929  21.914  56.430  1.00  0.00     0.051 A 
ENDBRANCH  24  28
ENDBRANCH  21  22
ENDBRANCH   1  21
TORSDOF 6
ENDMDL
MODEL 7
REMARK VINA RESULT:      -9.9      2.757      3.591
REMARK  6 active torsions:
REMARK  status: ('A' for Active; 'I' for Inactive)
REMARK    1  A    between atoms: C_5  and  N_6 
REMARK       I    between atoms: N_6  and  C_7 
REMARK       I    between atoms: C_7  and  N_8 
REMARK    2  A    between atoms: N_8  and  C_9 
REMARK    3  A    between atoms: C_9  and  C_10 
REMARK       I    between atoms: C_10  and  N_11 
REMARK    4  A    between atoms: N_11  and  N_12 
REMARK       I    between atoms: N_12  and  C_13 
REMARK       I    between atoms: C_13  and  N_14 
REMARK    5  A    between atoms: N_14  and  C_15 
REMARK    6  A    between atoms: C_17  and  C_18 
ROOT
HETATM    1  C   UNL     1       5.941  30.846  57.888  1.00  0.00     0.253 C 
HETATM    2  N   UNL     1       6.090  29.473  57.955  1.00  0.00    -0.265 N 
HETATM    3  O   UNL     1       5.108  31.389  57.161  1.00  0.00    -0.270 OA
HETATM    4  H   UNL     1       6.636  29.077  58.723  1.00  0.00     0.190 HD
ENDROOT
BRANCH   2   5
HETATM    5  N   UNL     1       5.110  28.669  57.363  1.00  0.00    -0.249 N 
HETATM    6  C   UNL     1       5.404  27.497  56.695  1.00  0.00     0.339 C 
HETATM    7  N   UNL     1       6.716  27.106  56.823  1.00  0.00    -0.308 N 
HETATM    8  O   UNL     1       4.521  26.912  56.079  1.00  0.00    -0.245 OA
HETATM    9  H   UNL     1       7.309  27.798  57.258  1.00  0.00     0.170 HD
HETATM   10  H   UNL     1       4.216  29.105  57.146  1.00  0.00     0.192 HD
BRANCH   7  11
HETATM   11  C   UNL     1       7.330  25.938  56.337  1.00  0.00     0.037 A 
HETATM   12  C   UNL     1       7.086  25.398  55.071  1.00  0.00     0.045 A 
HETATM   13  C   UNL     1       7.724  24.216  54.654  1.00  0.00     0.050 A 
HETATM   14  C   UNL     1       8.628  23.586  55.521  1.00  0.00     0.016 A 
HETATM   15  C   UNL     1       8.876  24.117  56.786  1.00  0.00     0.003 A 
HETATM   16  C   UNL     1       8.227  25.285  57.190  1.00  0.00     0.029 A 
BRANCH  13  17
HETATM   17  C   UNL     1       7.471  23.644  53.281  1.00  0.00     0.417 C 
HETATM   18  F   UNL     1       8.294  24.139  52.316  1.00  0.00    -0.166 F 
HETATM   19  F   UNL     1       7.622  22.291  53.247  1.00  0.00    -0.166 F 
HETATM   20  F   UNL     1       6.202  23.885  52.841  1.00  0.00    -0.166 F 
ENDBRANCH  13  17
ENDBRANCH   7  11
ENDBRANCH   2   5
BRANCH   1  21
HETATM   21  C   UNL     1       7.009  31.641  58.645  1.00  0.00     0.228 C 
BRANCH  21  22
HETATM   22  N   UNL     1       7.052  31.438  60.084  1.00  0.00    -0.334 N 
HETATM   23  C   UNL     1       8.095  30.863  60.730  1.00  0.00     0.322 C 
HETATM   24  N   UNL     1       8.169  31.017  62.077  1.00  0.00    -0.293 N 
HETATM   25  O   UNL     1       8.924  30.170  60.139  1.00  0.00    -0.247 OA
HETATM   26  H   UNL     1       8.935  30.509  62.496  1.00  0.00     0.172 HD
HETATM   27  H   UNL     1       6.522  32.088  60.664  1.00  0.00     0.164 HD
BRANCH  24  28
HETATM   28  C   UNL     1       7.379  31.808  62.919  1.00  0.00     0.131 A 
HETATM   29  N   UNL     1       6.033  31.707  62.872  1.00  0.00    -0.243 NA
HETATM   30  C   UNL     1       5.319  32.512  63.695  1.00  0.00     0.125 A 
HETATM   31  C   UNL     1       5.881  33.438  64.564  1.00  0.00    -0.044 A 
HETATM   32  C   UNL     1       5.030  34.274  65.465  1.00  0.00     0.049 C 
HETATM   33  C   UNL     1       7.272  33.512  64.603  1.00  0.00     0.012 A 
HETATM   34  C   UNL     1       8.031  32.694  63.769  1.00  0.00     0.051 A 
ENDBRANCH  24  28
ENDBRANCH  21  22
ENDBRANCH   1  21
TORSDOF 6
ENDMDL
MODEL 8
REMARK VINA RESULT:      -9.8      2.324      3.360
REMARK  6 active torsions:
REMARK  status: ('A' for Active; 'I' for Inactive)
REMARK    1  A    between atoms: C_5  and  N_6 
REMARK       I    between atoms: N_6  and  C_7 
REMARK       I    between atoms: C_7  and  N_8 
REMARK    2  A    between atoms: N_8  and  C_9 
REMARK    3  A    between atoms: C_9  and  C_10 
REMARK       I    between atoms: C_10  and  N_11 
REMARK    4  A    between atoms: N_11  and  N_12 
REMARK       I    between atoms: N_12  and  C_13 
REMARK       I    between atoms: C_13  and  N_14 
REMARK    5  A    between atoms: N_14  and  C_15 
REMARK    6  A    between atoms: C_17  and  C_18 
ROOT
HETATM    1  C   UNL     1       7.308  28.944  58.011  1.00  0.00     0.253 C 
HETATM    2  N   UNL     1       7.078  27.649  57.586  1.00  0.00    -0.265 N 
HETATM    3  O   UNL     1       8.189  29.230  58.823  1.00  0.00    -0.270 OA
HETATM    4  H   UNL     1       6.490  27.501  56.762  1.00  0.00     0.190 HD
ENDROOT
BRANCH   2   5
HETATM    5  N   UNL     1       8.023  26.668  57.902  1.00  0.00    -0.249 N 
HETATM    6  C   UNL     1       8.258  25.567  57.101  1.00  0.00     0.339 C 
HETATM    7  N   UNL     1       7.612  25.620  55.889  1.00  0.00    -0.308 N 
HETATM    8  O   UNL     1       8.997  24.674  57.501  1.00  0.00    -0.245 OA
HETATM    9  H   UNL     1       6.947  26.376  55.813  1.00  0.00     0.170 HD
HETATM   10  H   UNL     1       8.313  26.594  58.875  1.00  0.00     0.192 HD
BRANCH   7  11
HETATM   11  C   UNL     1       7.688  24.711  54.820  1.00  0.00     0.037 A 
HETATM   12  C   UNL     1       7.772  23.326  54.978  1.00  0.00     0.045 A 
HETATM   13  C   UNL     1       7.861  22.474  53.862  1.00  0.00     0.050 A 
HETATM   14  C   UNL     1       7.848  23.032  52.576  1.00  0.00     0.016 A 
HETATM   15  C   UNL     1       7.766  24.412  52.408  1.00  0.00     0.003 A 
HETATM   16  C   UNL     1       7.689  25.247  53.526  1.00  0.00     0.029 A 
BRANCH  13  17
HETATM   17  C   UNL     1       7.935  20.977  54.036  1.00  0.00     0.417 C 
HETATM   18  F   UNL     1       7.446  20.273  52.978  1.00  0.00    -0.166 F 
HETATM   19  F   UNL     1       9.211  20.540  54.223  1.00  0.00    -0.166 F 
HETATM   20  F   UNL     1       7.232  20.543  55.123  1.00  0.00    -0.166 F 
ENDBRANCH  13  17
ENDBRANCH   7  11
ENDBRANCH   2   5
BRANCH   1  21
HETATM   21  C   UNL     1       6.269  29.966  57.537  1.00  0.00     0.228 C 
BRANCH  21  22
HETATM   22  N   UNL     1       5.864  30.960  58.517  1.00  0.00    -0.334 N 
HETATM   23  C   UNL     1       4.573  31.301  58.751  1.00  0.00     0.322 C 
HETATM   24  N   UNL     1       4.295  31.986  59.889  1.00  0.00    -0.293 N 
HETATM   25  O   UNL     1       3.679  31.059  57.939  1.00  0.00    -0.247 OA
HETATM   26  H   UNL     1       3.327  32.260  59.964  1.00  0.00     0.172 HD
HETATM   27  H   UNL     1       6.474  31.099  59.322  1.00  0.00     0.164 HD
BRANCH  24  28
HETATM   28  C   UNL     1       5.142  32.298  60.960  1.00  0.00     0.131 A 
HETATM   29  N   UNL     1       6.377  32.791  60.721  1.00  0.00    -0.243 NA
HETATM   30  C   UNL     1       7.159  33.056  61.795  1.00  0.00     0.125 A 
HETATM   31  C   UNL     1       6.779  32.838  63.113  1.00  0.00    -0.044 A 
HETATM   32  C   UNL     1       7.686  33.181  64.251  1.00  0.00     0.049 C 
HETATM   33  C   UNL     1       5.495  32.342  63.332  1.00  0.00     0.012 A 
HETATM   34  C   UNL     1       4.668  32.064  62.245  1.00  0.00     0.051 A 
ENDBRANCH  24  28
ENDBRANCH  21  22
ENDBRANCH   1  21
TORSDOF 6
ENDMDL
MODEL 9
REMARK VINA RESULT:      -9.6      4.888      8.601
REMARK  6 active torsions:
REMARK  status: ('A' for Active; 'I' for Inactive)
REMARK    1  A    between atoms: C_5  and  N_6 
REMARK       I    between atoms: N_6  and  C_7 
REMARK       I    between atoms: C_7  and  N_8 
REMARK    2  A    between atoms: N_8  and  C_9 
REMARK    3  A    between atoms: C_9  and  C_10 
REMARK       I    between atoms: C_10  and  N_11 
REMARK    4  A    between atoms: N_11  and  N_12 
REMARK       I    between atoms: N_12  and  C_13 
REMARK       I    between atoms: C_13  and  N_14 
REMARK    5  A    between atoms: N_14  and  C_15 
REMARK    6  A    between atoms: C_17  and  C_18 
ROOT
HETATM    1  C   UNL     1       4.690  28.234  54.194  1.00  0.00     0.253 C 
HETATM    2  N   UNL     1       4.686  27.225  55.139  1.00  0.00    -0.265 N 
HETATM    3  O   UNL     1       5.528  29.137  54.189  1.00  0.00    -0.270 OA
HETATM    4  H   UNL     1       4.111  26.397  54.969  1.00  0.00     0.190 HD
ENDROOT
BRANCH   2   5
HETATM    5  N   UNL     1       5.804  27.088  55.968  1.00  0.00    -0.249 N 
HETATM    6  C   UNL     1       6.625  25.979  55.943  1.00  0.00     0.339 C 
HETATM    7  N   UNL     1       6.350  25.113  54.911  1.00  0.00    -0.308 N 
HETATM    8  O   UNL     1       7.504  25.856  56.789  1.00  0.00    -0.245 OA
HETATM    9  H   UNL     1       5.501  25.332  54.409  1.00  0.00     0.170 HD
HETATM   10  H   UNL     1       5.832  27.657  56.812  1.00  0.00     0.192 HD
BRANCH   7  11
HETATM   11  C   UNL     1       7.030  23.936  54.553  1.00  0.00     0.037 A 
HETATM   12  C   UNL     1       7.223  22.854  55.416  1.00  0.00     0.045 A 
HETATM   13  C   UNL     1       7.928  21.711  54.996  1.00  0.00     0.050 A 
HETATM   14  C   UNL     1       8.428  21.661  53.688  1.00  0.00     0.016 A 
HETATM   15  C   UNL     1       8.243  22.736  52.821  1.00  0.00     0.003 A 
HETATM   16  C   UNL     1       7.550  23.869  53.255  1.00  0.00     0.029 A 
BRANCH  13  17
HETATM   17  C   UNL     1       8.120  20.537  55.924  1.00  0.00     0.417 C 
HETATM   18  F   UNL     1       8.856  19.525  55.390  1.00  0.00    -0.166 F 
HETATM   19  F   UNL     1       8.745  20.889  57.082  1.00  0.00    -0.166 F 
HETATM   20  F   UNL     1       6.936  19.972  56.301  1.00  0.00    -0.166 F 
ENDBRANCH  13  17
ENDBRANCH   7  11
ENDBRANCH   2   5
BRANCH   1  21
HETATM   21  C   UNL     1       3.468  28.247  53.269  1.00  0.00     0.228 C 
BRANCH  21  22
HETATM   22  N   UNL     1       3.731  27.971  51.866  1.00  0.00    -0.334 N 
HETATM   23  C   UNL     1       4.680  27.104  51.436  1.00  0.00     0.322 C 
HETATM   24  N   UNL     1       4.619  26.687  50.145  1.00  0.00    -0.293 N 
HETATM   25  O   UNL     1       5.607  26.743  52.161  1.00  0.00    -0.247 OA
HETATM   26  H   UNL     1       5.392  26.095  49.880  1.00  0.00     0.172 HD
HETATM   27  H   UNL     1       2.955  28.081  51.214  1.00  0.00     0.164 HD
BRANCH  24  28
HETATM   28  C   UNL     1       3.625  26.922  49.189  1.00  0.00     0.131 A 
HETATM   29  N   UNL     1       3.078  28.152  49.073  1.00  0.00    -0.243 NA
HETATM   30  C   UNL     1       2.106  28.316  48.143  1.00  0.00     0.125 A 
HETATM   31  C   UNL     1       1.631  27.302  47.321  1.00  0.00    -0.044 A 
HETATM   32  C   UNL     1       0.574  27.564  46.296  1.00  0.00     0.049 C 
HETATM   33  C   UNL     1       2.222  26.047  47.451  1.00  0.00     0.012 A 
HETATM   34  C   UNL     1       3.226  25.852  48.398  1.00  0.00     0.051 A 
ENDBRANCH  24  28
ENDBRANCH  21  22
ENDBRANCH   1  21
TORSDOF 6
ENDMDL
MODEL 10
REMARK VINA RESULT:      -9.5      1.961      2.445
REMARK  6 active torsions:
REMARK  status: ('A' for Active; 'I' for Inactive)
REMARK    1  A    between atoms: C_5  and  N_6 
REMARK       I    between atoms: N_6  and  C_7 
REMARK       I    between atoms: C_7  and  N_8 
REMARK    2  A    between atoms: N_8  and  C_9 
REMARK    3  A    between atoms: C_9  and  C_10 
REMARK       I    between atoms: C_10  and  N_11 
REMARK    4  A    between atoms: N_11  and  N_12 
REMARK       I    between atoms: N_12  and  C_13 
REMARK       I    between atoms: C_13  and  N_14 
REMARK    5  A    between atoms: N_14  and  C_15 
REMARK    6  A    between atoms: C_17  and  C_18 
ROOT
HETATM    1  C   UNL     1       7.267  29.794  58.188  1.00  0.00     0.253 C 
HETATM    2  N   UNL     1       7.146  28.467  57.821  1.00  0.00    -0.265 N 
HETATM    3  O   UNL     1       6.624  30.694  57.646  1.00  0.00    -0.270 OA
HETATM    4  H   UNL     1       7.534  27.751  58.440  1.00  0.00     0.190 HD
ENDROOT
BRANCH   2   5
HETATM    5  N   UNL     1       6.092  28.104  56.976  1.00  0.00    -0.249 N 
HETATM    6  C   UNL     1       6.143  27.004  56.143  1.00  0.00     0.339 C 
HETATM    7  N   UNL     1       7.242  26.205  56.353  1.00  0.00    -0.308 N 
HETATM    8  O   UNL     1       5.247  26.821  55.327  1.00  0.00    -0.245 OA
HETATM    9  H   UNL     1       7.926  26.607  56.978  1.00  0.00     0.170 HD
HETATM   10  H   UNL     1       5.415  28.826  56.738  1.00  0.00     0.192 HD
BRANCH   7  11
HETATM   11  C   UNL     1       7.563  24.984  55.737  1.00  0.00     0.037 A 
HETATM   12  C   UNL     1       7.749  23.785  56.431  1.00  0.00     0.045 A 
HETATM   13  C   UNL     1       8.085  22.600  55.751  1.00  0.00     0.050 A 
HETATM   14  C   UNL     1       8.218  22.629  54.355  1.00  0.00     0.016 A 
HETATM   15  C   UNL     1       8.037  23.820  53.655  1.00  0.00     0.003 A 
HETATM   16  C   UNL     1       7.714  24.991  54.345  1.00  0.00     0.029 A 
BRANCH  13  17
HETATM   17  C   UNL     1       8.268  21.304  56.501  1.00  0.00     0.417 C 
HETATM   18  F   UNL     1       8.259  21.444  57.855  1.00  0.00    -0.166 F 
HETATM   19  F   UNL     1       7.297  20.395  56.209  1.00  0.00    -0.166 F 
HETATM   20  F   UNL     1       9.450  20.691  56.202  1.00  0.00    -0.166 F 
ENDBRANCH  13  17
ENDBRANCH   7  11
ENDBRANCH   2   5
BRANCH   1  21
HETATM   21  C   UNL     1       8.391  30.081  59.189  1.00  0.00     0.228 C 
BRANCH  21  22
HETATM   22  N   UNL     1       7.968  30.519  60.510  1.00  0.00    -0.334 N 
HETATM   23  C   UNL     1       8.764  30.474  61.605  1.00  0.00     0.322 C 
HETATM   24  N   UNL     1       8.388  31.196  62.692  1.00  0.00    -0.293 N 
HETATM   25  O   UNL     1       9.766  29.759  61.653  1.00  0.00    -0.247 OA
HETATM   26  H   UNL     1       8.993  31.063  63.489  1.00  0.00     0.172 HD
HETATM   27  H   UNL     1       7.255  31.245  60.554  1.00  0.00     0.164 HD
BRANCH  24  28
HETATM   28  C   UNL     1       7.338  32.112  62.821  1.00  0.00     0.131 A 
HETATM   29  N   UNL     1       6.203  31.942  62.108  1.00  0.00    -0.243 NA
HETATM   30  C   UNL     1       5.228  32.870  62.258  1.00  0.00     0.125 A 
HETATM   31  C   UNL     1       5.329  33.984  63.082  1.00  0.00    -0.044 A 
HETATM   32  C   UNL     1       4.199  34.953  63.220  1.00  0.00     0.049 C 
HETATM   33  C   UNL     1       6.503  34.128  63.817  1.00  0.00     0.012 A 
HETATM   34  C   UNL     1       7.522  33.186  63.684  1.00  0.00     0.051 A 
ENDBRANCH  24  28
ENDBRANCH  21  22
ENDBRANCH   1  21
TORSDOF 6
ENDMDL
