MODEL 1
REMARK VINA RESULT:      -8.8      0.000      0.000
REMARK  7 active torsions:
REMARK  status: ('A' for Active; 'I' for Inactive)
REMARK    1  A    between atoms: C_2  and  C_3 
REMARK    2  A    between atoms: C_6  and  O_7 
REMARK    3  A    between atoms: O_7  and  C_8 
REMARK    4  A    between atoms: C_8  and  C_9 
REMARK       I    between atoms: C_9  and  N_10 
REMARK    5  A    between atoms: N_10  and  N_11 
REMARK       I    between atoms: N_11  and  C_12 
REMARK    6  A    between atoms: C_12  and  C_13 
REMARK    7  A    between atoms: C_16  and  N_17 
ROOT
HETATM    1  N   UNL     1       5.013  28.137  57.549  1.00  0.00    -0.263 N 
HETATM    2  C   UNL     1       6.376  27.898  57.584  1.00  0.00     0.270 C 
HETATM    3  O   UNL     1       7.198  28.727  57.960  1.00  0.00    -0.266 OA
HETATM    4  H   UNL     1       4.398  27.559  56.988  1.00  0.00     0.190 HD
ENDROOT
BRANCH   1   5
HETATM    5  N   UNL     1       4.568  29.426  57.868  1.00  0.00    -0.265 N 
HETATM    6  C   UNL     1       3.772  30.157  57.014  1.00  0.00     0.260 C 
HETATM    7  O   UNL     1       3.232  31.194  57.405  1.00  0.00    -0.269 OA
HETATM    8  H   UNL     1       4.451  29.630  58.859  1.00  0.00     0.190 HD
BRANCH   6   9
HETATM    9  C   UNL     1       3.658  29.683  55.570  1.00  0.00     0.280 C 
BRANCH   9  10
HETATM   10  O   UNL     1       4.918  29.842  54.932  1.00  0.00    -0.342 OA
BRANCH  10  11
HETATM   11  C   UNL     1       5.419  28.775  54.247  1.00  0.00     0.069 A 
HETATM   12  C   UNL     1       4.449  27.913  53.733  1.00  0.00     0.037 A 
HETATM   13  C   UNL     1       4.815  26.777  53.011  1.00  0.00     0.010 A 
HETATM   14  C   UNL     1       6.167  26.481  52.800  1.00  0.00    -0.058 A 
HETATM   15  C   UNL     1       7.138  27.351  53.312  1.00  0.00     0.010 A 
HETATM   16  C   UNL     1       6.767  28.493  54.033  1.00  0.00     0.037 A 
BRANCH  14  17
HETATM   17  C   UNL     1       6.567  25.268  52.000  1.00  0.00     0.034 C 
HETATM   18  C   UNL     1       8.041  24.939  52.171  1.00  0.00     0.010 C 
ENDBRANCH  14  17
ENDBRANCH  10  11
ENDBRANCH   9  10
ENDBRANCH   6   9
ENDBRANCH   1   5
BRANCH   2  19
HETATM   19  C   UNL     1       6.812  26.586  57.036  1.00  0.00     0.033 A 
HETATM   20  C   UNL     1       5.851  25.765  56.444  1.00  0.00     0.019 A 
HETATM   21  C   UNL     1       6.202  24.493  55.986  1.00  0.00     0.032 A 
HETATM   22  C   UNL     1       7.521  24.014  56.111  1.00  0.00     0.058 A 
HETATM   23  C   UNL     1       8.490  24.869  56.648  1.00  0.00     0.032 A 
HETATM   24  C   UNL     1       8.139  26.148  57.109  1.00  0.00     0.019 A 
BRANCH  22  25
HETATM   25  N   UNL     1       7.807  22.680  55.669  1.00  0.00    -0.238 N 
HETATM   26  N   UNL     1       7.655  22.392  54.344  1.00  0.00    -0.172 NA
HETATM   27  C   UNL     1       8.025  21.122  54.199  1.00  0.00     0.053 A 
HETATM   28  C   UNL     1       7.998  20.476  52.865  1.00  0.00     0.072 C 
HETATM   29  C   UNL     1       8.379  20.547  55.428  1.00  0.00     0.055 A 
HETATM   30  C   UNL     1       8.200  21.541  56.371  1.00  0.00     0.035 A 
HETATM   31  C   UNL     1       8.336  21.404  57.842  1.00  0.00     0.070 C 
ENDBRANCH  22  25
ENDBRANCH   2  19
TORSDOF 7
ENDMDL
MODEL 2
REMARK VINA RESULT:      -8.6      3.444      7.296
REMARK  7 active torsions:
REMARK  status: ('A' for Active; 'I' for Inactive)
REMARK    1  A    between atoms: C_2  and  C_3 
REMARK    2  A    between atoms: C_6  and  O_7 
REMARK    3  A    between atoms: O_7  and  C_8 
REMARK    4  A    between atoms: C_8  and  C_9 
REMARK       I    between atoms: C_9  and  N_10 
REMARK    5  A    between atoms: N_10  and  N_11 
REMARK       I    between atoms: N_11  and  C_12 
REMARK    6  A    between atoms: C_12  and  C_13 
REMARK    7  A    between atoms: C_16  and  N_17 
ROOT
HETATM    1  N   UNL     1       5.432  27.379  54.601  1.00  0.00    -0.263 N 
HETATM    2  C   UNL     1       5.560  27.073  55.945  1.00  0.00     0.270 C 
HETATM    3  O   UNL     1       5.081  26.068  56.458  1.00  0.00    -0.266 OA
HETATM    4  H   UNL     1       5.588  28.323  54.265  1.00  0.00     0.190 HD
ENDROOT
BRANCH   1   5
HETATM    5  N   UNL     1       4.628  26.544  53.816  1.00  0.00    -0.265 N 
HETATM    6  C   UNL     1       5.146  25.783  52.790  1.00  0.00     0.260 C 
HETATM    7  O   UNL     1       4.458  24.911  52.257  1.00  0.00    -0.269 OA
HETATM    8  H   UNL     1       3.796  26.164  54.266  1.00  0.00     0.190 HD
BRANCH   6   9
HETATM    9  C   UNL     1       6.550  26.116  52.299  1.00  0.00     0.280 C 
BRANCH   9  10
HETATM   10  O   UNL     1       7.473  25.897  53.357  1.00  0.00    -0.342 OA
BRANCH  10  11
HETATM   11  C   UNL     1       7.678  24.612  53.763  1.00  0.00     0.069 A 
HETATM   12  C   UNL     1       7.824  23.696  52.720  1.00  0.00     0.037 A 
HETATM   13  C   UNL     1       8.038  22.342  52.985  1.00  0.00     0.010 A 
HETATM   14  C   UNL     1       8.099  21.883  54.305  1.00  0.00    -0.058 A 
HETATM   15  C   UNL     1       7.958  22.807  55.350  1.00  0.00     0.010 A 
HETATM   16  C   UNL     1       7.748  24.164  55.080  1.00  0.00     0.037 A 
BRANCH  14  17
HETATM   17  C   UNL     1       8.354  20.427  54.596  1.00  0.00     0.034 C 
HETATM   18  C   UNL     1       8.006  20.068  56.032  1.00  0.00     0.010 C 
ENDBRANCH  14  17
ENDBRANCH  10  11
ENDBRANCH   9  10
ENDBRANCH   6   9
ENDBRANCH   1   5
BRANCH   2  19
HETATM   19  C   UNL     1       6.244  28.101  56.774  1.00  0.00     0.033 A 
HETATM   20  C   UNL     1       7.496  27.793  57.309  1.00  0.00     0.019 A 
HETATM   21  C   UNL     1       8.138  28.699  58.157  1.00  0.00     0.032 A 
HETATM   22  C   UNL     1       7.542  29.931  58.489  1.00  0.00     0.058 A 
HETATM   23  C   UNL     1       6.316  30.257  57.898  1.00  0.00     0.032 A 
HETATM   24  C   UNL     1       5.669  29.347  57.046  1.00  0.00     0.019 A 
BRANCH  22  25
HETATM   25  N   UNL     1       8.227  30.795  59.406  1.00  0.00    -0.238 N 
HETATM   26  N   UNL     1       7.613  31.104  60.584  1.00  0.00    -0.172 NA
HETATM   27  C   UNL     1       8.471  31.866  61.258  1.00  0.00     0.053 A 
HETATM   28  C   UNL     1       8.128  32.378  62.606  1.00  0.00     0.072 C 
HETATM   29  C   UNL     1       9.636  32.106  60.515  1.00  0.00     0.055 A 
HETATM   30  C   UNL     1       9.457  31.447  59.314  1.00  0.00     0.035 A 
HETATM   31  C   UNL     1      10.361  31.481  58.140  1.00  0.00     0.070 C 
ENDBRANCH  22  25
ENDBRANCH   2  19
TORSDOF 7
ENDMDL
MODEL 3
REMARK VINA RESULT:      -8.5      3.369      7.268
REMARK  7 active torsions:
REMARK  status: ('A' for Active; 'I' for Inactive)
REMARK    1  A    between atoms: C_2  and  C_3 
REMARK    2  A    between atoms: C_6  and  O_7 
REMARK    3  A    between atoms: O_7  and  C_8 
REMARK    4  A    between atoms: C_8  and  C_9 
REMARK       I    between atoms: C_9  and  N_10 
REMARK    5  A    between atoms: N_10  and  N_11 
REMARK       I    between atoms: N_11  and  C_12 
REMARK    6  A    between atoms: C_12  and  C_13 
REMARK    7  A    between atoms: C_16  and  N_17 
ROOT
HETATM    1  N   UNL     1       4.822  27.670  55.161  1.00  0.00    -0.263 N 
HETATM    2  C   UNL     1       4.982  29.041  55.260  1.00  0.00     0.270 C 
HETATM    3  O   UNL     1       4.594  29.830  54.405  1.00  0.00    -0.266 OA
HETATM    4  H   UNL     1       5.382  27.039  55.724  1.00  0.00     0.190 HD
ENDROOT
BRANCH   1   5
HETATM    5  N   UNL     1       4.275  27.160  53.978  1.00  0.00    -0.265 N 
HETATM    6  C   UNL     1       5.062  26.713  52.940  1.00  0.00     0.260 C 
HETATM    7  O   UNL     1       4.560  26.086  52.006  1.00  0.00    -0.269 OA
HETATM    8  H   UNL     1       3.362  26.713  54.059  1.00  0.00     0.190 HD
BRANCH   6   9
HETATM    9  C   UNL     1       6.538  27.093  52.956  1.00  0.00     0.280 C 
BRANCH   9  10
HETATM   10  O   UNL     1       7.169  26.447  54.053  1.00  0.00    -0.342 OA
BRANCH  10  11
HETATM   11  C   UNL     1       7.374  25.102  53.964  1.00  0.00     0.069 A 
HETATM   12  C   UNL     1       7.174  24.409  55.158  1.00  0.00     0.037 A 
HETATM   13  C   UNL     1       7.350  23.025  55.218  1.00  0.00     0.010 A 
HETATM   14  C   UNL     1       7.741  22.315  54.077  1.00  0.00    -0.058 A 
HETATM   15  C   UNL     1       7.934  23.014  52.878  1.00  0.00     0.010 A 
HETATM   16  C   UNL     1       7.753  24.400  52.822  1.00  0.00     0.037 A 
BRANCH  14  17
HETATM   17  C   UNL     1       7.908  20.819  54.130  1.00  0.00     0.034 C 
HETATM   18  C   UNL     1       8.571  20.279  52.873  1.00  0.00     0.010 C 
ENDBRANCH  14  17
ENDBRANCH  10  11
ENDBRANCH   9  10
ENDBRANCH   6   9
ENDBRANCH   1   5
BRANCH   2  19
HETATM   19  C   UNL     1       5.757  29.514  56.438  1.00  0.00     0.033 A 
HETATM   20  C   UNL     1       5.484  30.787  56.941  1.00  0.00     0.019 A 
HETATM   21  C   UNL     1       6.241  31.301  57.997  1.00  0.00     0.032 A 
HETATM   22  C   UNL     1       7.288  30.553  58.571  1.00  0.00     0.058 A 
HETATM   23  C   UNL     1       7.512  29.254  58.102  1.00  0.00     0.032 A 
HETATM   24  C   UNL     1       6.752  28.736  57.040  1.00  0.00     0.019 A 
BRANCH  22  25
HETATM   25  N   UNL     1       8.062  31.156  59.617  1.00  0.00    -0.238 N 
HETATM   26  N   UNL     1       7.446  31.423  60.805  1.00  0.00    -0.172 NA
HETATM   27  C   UNL     1       8.386  31.927  61.602  1.00  0.00     0.053 A 
HETATM   28  C   UNL     1       8.063  32.320  62.993  1.00  0.00     0.072 C 
HETATM   29  C   UNL     1       9.614  32.042  60.936  1.00  0.00     0.055 A 
HETATM   30  C   UNL     1       9.390  31.581  59.653  1.00  0.00     0.035 A 
HETATM   31  C   UNL     1      10.351  31.597  58.523  1.00  0.00     0.070 C 
ENDBRANCH  22  25
ENDBRANCH   2  19
TORSDOF 7
ENDMDL
MODEL 4
REMARK VINA RESULT:      -8.4      5.957      9.966
REMARK  7 active torsions:
REMARK  status: ('A' for Active; 'I' for Inactive)
REMARK    1  A    between atoms: C_2  and  C_3 
REMARK    2  A    between atoms: C_6  and  O_7 
REMARK    3  A    between atoms: O_7  and  C_8 
REMARK    4  A    between atoms: C_8  and  C_9 
REMARK       I    between atoms: C_9  and  N_10 
REMARK    5  A    between atoms: N_10  and  N_11 
REMARK       I    between atoms: N_11  and  C_12 
REMARK    6  A    between atoms: C_12  and  C_13 
REMARK    7  A    between atoms: C_16  and  N_17 
ROOT
HETATM    1  N   UNL     1       8.403  30.532  59.320  1.00  0.00    -0.263 N 
HETATM    2  C   UNL     1       8.686  31.804  59.786  1.00  0.00     0.270 C 
HETATM    3  O   UNL     1       9.489  32.559  59.248  1.00  0.00    -0.266 OA
HETATM    4  H   UNL     1       7.962  29.844  59.921  1.00  0.00     0.190 HD
ENDROOT
BRANCH   1   5
HETATM    5  N   UNL     1       9.148  30.054  58.235  1.00  0.00    -0.265 N 
HETATM    6  C   UNL     1       8.652  29.106  57.368  1.00  0.00     0.260 C 
HETATM    7  O   UNL     1       9.243  28.859  56.315  1.00  0.00    -0.269 OA
HETATM    8  H   UNL     1       9.829  30.699  57.836  1.00  0.00     0.190 HD
BRANCH   6   9
HETATM    9  C   UNL     1       7.411  28.333  57.797  1.00  0.00     0.280 C 
BRANCH   9  10
HETATM   10  O   UNL     1       7.794  27.017  58.172  1.00  0.00    -0.342 OA
BRANCH  10  11
HETATM   11  C   UNL     1       7.732  26.043  57.220  1.00  0.00     0.069 A 
HETATM   12  C   UNL     1       8.623  24.987  57.417  1.00  0.00     0.037 A 
HETATM   13  C   UNL     1       8.673  23.919  56.520  1.00  0.00     0.010 A 
HETATM   14  C   UNL     1       7.833  23.898  55.402  1.00  0.00    -0.058 A 
HETATM   15  C   UNL     1       6.934  24.956  55.211  1.00  0.00     0.010 A 
HETATM   16  C   UNL     1       6.884  26.024  56.115  1.00  0.00     0.037 A 
BRANCH  14  17
HETATM   17  C   UNL     1       7.865  22.736  54.444  1.00  0.00     0.034 C 
HETATM   18  C   UNL     1       7.854  23.196  52.995  1.00  0.00     0.010 C 
ENDBRANCH  14  17
ENDBRANCH  10  11
ENDBRANCH   9  10
ENDBRANCH   6   9
ENDBRANCH   1   5
BRANCH   2  19
HETATM   19  C   UNL     1       8.022  32.182  61.063  1.00  0.00     0.033 A 
HETATM   20  C   UNL     1       6.731  32.710  61.005  1.00  0.00     0.019 A 
HETATM   21  C   UNL     1       6.102  33.150  62.172  1.00  0.00     0.032 A 
HETATM   22  C   UNL     1       6.750  33.072  63.421  1.00  0.00     0.058 A 
HETATM   23  C   UNL     1       8.018  32.484  63.476  1.00  0.00     0.032 A 
HETATM   24  C   UNL     1       8.652  32.041  62.304  1.00  0.00     0.019 A 
BRANCH  22  25
HETATM   25  N   UNL     1       6.071  33.589  64.574  1.00  0.00    -0.238 N 
HETATM   26  N   UNL     1       6.758  33.660  65.750  1.00  0.00    -0.172 NA
HETATM   27  C   UNL     1       5.925  34.211  66.631  1.00  0.00     0.053 A 
HETATM   28  C   UNL     1       6.357  34.452  68.027  1.00  0.00     0.072 C 
HETATM   29  C   UNL     1       4.671  34.465  66.059  1.00  0.00     0.055 A 
HETATM   30  C   UNL     1       4.759  34.029  64.751  1.00  0.00     0.035 A 
HETATM   31  C   UNL     1       3.661  33.980  63.755  1.00  0.00     0.070 C 
ENDBRANCH  22  25
ENDBRANCH   2  19
TORSDOF 7
ENDMDL
MODEL 5
REMARK VINA RESULT:      -8.3      0.984      1.973
REMARK  7 active torsions:
REMARK  status: ('A' for Active; 'I' for Inactive)
REMARK    1  A    between atoms: C_2  and  C_3 
REMARK    2  A    between atoms: C_6  and  O_7 
REMARK    3  A    between atoms: O_7  and  C_8 
REMARK    4  A    between atoms: C_8  and  C_9 
REMARK       I    between atoms: C_9  and  N_10 
REMARK    5  A    between atoms: N_10  and  N_11 
REMARK       I    between atoms: N_11  and  C_12 
REMARK    6  A    between atoms: C_12  and  C_13 
REMARK    7  A    between atoms: C_16  and  N_17 
ROOT
HETATM    1  N   UNL     1       4.786  28.659  57.641  1.00  0.00    -0.263 N 
HETATM    2  C   UNL     1       6.129  28.336  57.565  1.00  0.00     0.270 C 
HETATM    3  O   UNL     1       7.029  29.105  57.886  1.00  0.00    -0.266 OA
HETATM    4  H   UNL     1       4.093  28.130  57.122  1.00  0.00     0.190 HD
ENDROOT
BRANCH   1   5
HETATM    5  N   UNL     1       4.449  29.967  58.010  1.00  0.00    -0.265 N 
HETATM    6  C   UNL     1       3.715  30.794  57.188  1.00  0.00     0.260 C 
HETATM    7  O   UNL     1       3.263  31.856  57.621  1.00  0.00    -0.269 OA
HETATM    8  H   UNL     1       4.349  30.142  59.009  1.00  0.00     0.190 HD
BRANCH   6   9
HETATM    9  C   UNL     1       3.562  30.387  55.728  1.00  0.00     0.280 C 
BRANCH   9  10
HETATM   10  O   UNL     1       4.852  30.236  55.152  1.00  0.00    -0.342 OA
BRANCH  10  11
HETATM   11  C   UNL     1       5.040  29.205  54.281  1.00  0.00     0.069 A 
HETATM   12  C   UNL     1       3.862  28.606  53.835  1.00  0.00     0.037 A 
HETATM   13  C   UNL     1       3.900  27.535  52.941  1.00  0.00     0.010 A 
HETATM   14  C   UNL     1       5.127  27.040  52.486  1.00  0.00    -0.058 A 
HETATM   15  C   UNL     1       6.308  27.648  52.931  1.00  0.00     0.010 A 
HETATM   16  C   UNL     1       6.266  28.724  53.825  1.00  0.00     0.037 A 
BRANCH  14  17
HETATM   17  C   UNL     1       5.173  25.901  51.501  1.00  0.00     0.034 C 
HETATM   18  C   UNL     1       4.847  26.360  50.089  1.00  0.00     0.010 C 
ENDBRANCH  14  17
ENDBRANCH  10  11
ENDBRANCH   9  10
ENDBRANCH   6   9
ENDBRANCH   1   5
BRANCH   2  19
HETATM   19  C   UNL     1       6.438  27.009  56.967  1.00  0.00     0.033 A 
HETATM   20  C   UNL     1       7.752  26.545  57.032  1.00  0.00     0.019 A 
HETATM   21  C   UNL     1       8.101  25.341  56.415  1.00  0.00     0.032 A 
HETATM   22  C   UNL     1       7.144  24.576  55.721  1.00  0.00     0.058 A 
HETATM   23  C   UNL     1       5.816  25.018  55.715  1.00  0.00     0.032 A 
HETATM   24  C   UNL     1       5.464  26.229  56.334  1.00  0.00     0.019 A 
BRANCH  22  25
HETATM   25  N   UNL     1       7.576  23.376  55.065  1.00  0.00    -0.238 N 
HETATM   26  N   UNL     1       7.761  22.257  55.822  1.00  0.00    -0.172 NA
HETATM   27  C   UNL     1       8.109  21.291  54.974  1.00  0.00     0.053 A 
HETATM   28  C   UNL     1       8.378  19.919  55.463  1.00  0.00     0.072 C 
HETATM   29  C   UNL     1       8.201  21.772  53.660  1.00  0.00     0.055 A 
HETATM   30  C   UNL     1       7.895  23.118  53.731  1.00  0.00     0.035 A 
HETATM   31  C   UNL     1       7.957  24.102  52.624  1.00  0.00     0.070 C 
ENDBRANCH  22  25
ENDBRANCH   2  19
TORSDOF 7
ENDMDL
MODEL 6
REMARK VINA RESULT:      -8.2      2.951      6.878
REMARK  7 active torsions:
REMARK  status: ('A' for Active; 'I' for Inactive)
REMARK    1  A    between atoms: C_2  and  C_3 
REMARK    2  A    between atoms: C_6  and  O_7 
REMARK    3  A    between atoms: O_7  and  C_8 
REMARK    4  A    between atoms: C_8  and  C_9 
REMARK       I    between atoms: C_9  and  N_10 
REMARK    5  A    between atoms: N_10  and  N_11 
REMARK       I    between atoms: N_11  and  C_12 
REMARK    6  A    between atoms: C_12  and  C_13 
REMARK    7  A    between atoms: C_16  and  N_17 
ROOT
HETATM    1  N   UNL     1       9.046  22.868  55.291  1.00  0.00    -0.263 N 
HETATM    2  C   UNL     1       8.231  22.994  56.401  1.00  0.00     0.270 C 
HETATM    3  O   UNL     1       7.794  22.036  57.032  1.00  0.00    -0.266 OA
HETATM    4  H   UNL     1       9.161  23.637  54.639  1.00  0.00     0.190 HD
ENDROOT
BRANCH   1   5
HETATM    5  N   UNL     1       9.301  21.578  54.810  1.00  0.00    -0.265 N 
HETATM    6  C   UNL     1       8.708  21.093  53.665  1.00  0.00     0.260 C 
HETATM    7  O   UNL     1       9.104  20.041  53.160  1.00  0.00    -0.269 OA
HETATM    8  H   UNL     1      10.217  21.188  55.028  1.00  0.00     0.190 HD
BRANCH   6   9
HETATM    9  C   UNL     1       7.509  21.853  53.111  1.00  0.00     0.280 C 
BRANCH   9  10
HETATM   10  O   UNL     1       7.955  23.095  52.583  1.00  0.00    -0.342 OA
BRANCH  10  11
HETATM   11  C   UNL     1       7.218  24.206  52.867  1.00  0.00     0.069 A 
HETATM   12  C   UNL     1       7.969  25.372  53.020  1.00  0.00     0.037 A 
HETATM   13  C   UNL     1       7.348  26.587  53.316  1.00  0.00     0.010 A 
HETATM   14  C   UNL     1       5.959  26.648  53.473  1.00  0.00    -0.058 A 
HETATM   15  C   UNL     1       5.207  25.477  53.313  1.00  0.00     0.010 A 
HETATM   16  C   UNL     1       5.833  24.261  53.013  1.00  0.00     0.037 A 
BRANCH  14  17
HETATM   17  C   UNL     1       5.282  27.961  53.768  1.00  0.00     0.034 C 
HETATM   18  C   UNL     1       3.842  27.977  53.280  1.00  0.00     0.010 C 
ENDBRANCH  14  17
ENDBRANCH  10  11
ENDBRANCH   9  10
ENDBRANCH   6   9
ENDBRANCH   1   5
BRANCH   2  19
HETATM   19  C   UNL     1       7.820  24.382  56.743  1.00  0.00     0.033 A 
HETATM   20  C   UNL     1       6.456  24.680  56.766  1.00  0.00     0.019 A 
HETATM   21  C   UNL     1       6.030  25.989  57.005  1.00  0.00     0.032 A 
HETATM   22  C   UNL     1       6.957  27.027  57.226  1.00  0.00     0.058 A 
HETATM   23  C   UNL     1       8.318  26.705  57.263  1.00  0.00     0.032 A 
HETATM   24  C   UNL     1       8.749  25.390  57.023  1.00  0.00     0.019 A 
BRANCH  22  25
HETATM   25  N   UNL     1       6.458  28.358  57.414  1.00  0.00    -0.238 N 
HETATM   26  N   UNL     1       5.152  28.607  57.108  1.00  0.00    -0.172 NA
HETATM   27  C   UNL     1       4.939  29.885  57.415  1.00  0.00     0.053 A 
HETATM   28  C   UNL     1       3.603  30.495  57.219  1.00  0.00     0.072 C 
HETATM   29  C   UNL     1       6.109  30.502  57.881  1.00  0.00     0.055 A 
HETATM   30  C   UNL     1       7.087  29.527  57.842  1.00  0.00     0.035 A 
HETATM   31  C   UNL     1       8.530  29.706  58.134  1.00  0.00     0.070 C 
ENDBRANCH  22  25
ENDBRANCH   2  19
TORSDOF 7
ENDMDL
MODEL 7
REMARK VINA RESULT:      -7.7      3.522      6.671
REMARK  7 active torsions:
REMARK  status: ('A' for Active; 'I' for Inactive)
REMARK    1  A    between atoms: C_2  and  C_3 
REMARK    2  A    between atoms: C_6  and  O_7 
REMARK    3  A    between atoms: O_7  and  C_8 
REMARK    4  A    between atoms: C_8  and  C_9 
REMARK       I    between atoms: C_9  and  N_10 
REMARK    5  A    between atoms: N_10  and  N_11 
REMARK       I    between atoms: N_11  and  C_12 
REMARK    6  A    between atoms: C_12  and  C_13 
REMARK    7  A    between atoms: C_16  and  N_17 
ROOT
HETATM    1  N   UNL     1       6.412  29.099  55.280  1.00  0.00    -0.263 N 
HETATM    2  C   UNL     1       5.095  29.217  54.872  1.00  0.00     0.270 C 
HETATM    3  O   UNL     1       4.170  29.466  55.638  1.00  0.00    -0.266 OA
HETATM    4  H   UNL     1       7.097  28.629  54.698  1.00  0.00     0.190 HD
ENDROOT
BRANCH   1   5
HETATM    5  N   UNL     1       6.680  29.173  56.652  1.00  0.00    -0.265 N 
HETATM    6  C   UNL     1       7.613  28.363  57.261  1.00  0.00     0.260 C 
HETATM    7  O   UNL     1       7.971  28.590  58.418  1.00  0.00    -0.269 OA
HETATM    8  H   UNL     1       6.535  30.081  57.092  1.00  0.00     0.190 HD
BRANCH   6   9
HETATM    9  C   UNL     1       8.111  27.149  56.486  1.00  0.00     0.280 C 
BRANCH   9  10
HETATM   10  O   UNL     1       6.992  26.404  56.025  1.00  0.00    -0.342 OA
BRANCH  10  11
HETATM   11  C   UNL     1       7.232  25.345  55.201  1.00  0.00     0.069 A 
HETATM   12  C   UNL     1       7.131  24.099  55.820  1.00  0.00     0.037 A 
HETATM   13  C   UNL     1       7.353  22.924  55.100  1.00  0.00     0.010 A 
HETATM   14  C   UNL     1       7.690  22.983  53.743  1.00  0.00    -0.058 A 
HETATM   15  C   UNL     1       7.784  24.235  53.123  1.00  0.00     0.010 A 
HETATM   16  C   UNL     1       7.557  25.411  53.848  1.00  0.00     0.037 A 
BRANCH  14  17
HETATM   17  C   UNL     1       7.906  21.717  52.955  1.00  0.00     0.034 C 
HETATM   18  C   UNL     1       8.147  20.520  53.862  1.00  0.00     0.010 C 
ENDBRANCH  14  17
ENDBRANCH  10  11
ENDBRANCH   9  10
ENDBRANCH   6   9
ENDBRANCH   1   5
BRANCH   2  19
HETATM   19  C   UNL     1       4.839  28.920  53.438  1.00  0.00     0.033 A 
HETATM   20  C   UNL     1       3.559  29.158  52.933  1.00  0.00     0.019 A 
HETATM   21  C   UNL     1       3.254  28.821  51.611  1.00  0.00     0.032 A 
HETATM   22  C   UNL     1       4.220  28.240  50.768  1.00  0.00     0.058 A 
HETATM   23  C   UNL     1       5.517  28.065  51.264  1.00  0.00     0.032 A 
HETATM   24  C   UNL     1       5.826  28.402  52.592  1.00  0.00     0.019 A 
BRANCH  22  25
HETATM   25  N   UNL     1       3.830  27.869  49.439  1.00  0.00    -0.238 N 
HETATM   26  N   UNL     1       3.681  26.543  49.156  1.00  0.00    -0.172 NA
HETATM   27  C   UNL     1       3.274  26.480  47.890  1.00  0.00     0.053 A 
HETATM   28  C   UNL     1       2.997  25.172  47.251  1.00  0.00     0.072 C 
HETATM   29  C   UNL     1       3.195  27.755  47.313  1.00  0.00     0.055 A 
HETATM   30  C   UNL     1       3.589  28.638  48.300  1.00  0.00     0.035 A 
HETATM   31  C   UNL     1       3.781  30.102  48.157  1.00  0.00     0.070 C 
ENDBRANCH  22  25
ENDBRANCH   2  19
TORSDOF 7
ENDMDL
MODEL 8
REMARK VINA RESULT:      -7.7      2.201      4.004
REMARK  7 active torsions:
REMARK  status: ('A' for Active; 'I' for Inactive)
REMARK    1  A    between atoms: C_2  and  C_3 
REMARK    2  A    between atoms: C_6  and  O_7 
REMARK    3  A    between atoms: O_7  and  C_8 
REMARK    4  A    between atoms: C_8  and  C_9 
REMARK       I    between atoms: C_9  and  N_10 
REMARK    5  A    between atoms: N_10  and  N_11 
REMARK       I    between atoms: N_11  and  C_12 
REMARK    6  A    between atoms: C_12  and  C_13 
REMARK    7  A    between atoms: C_16  and  N_17 
ROOT
HETATM    1  N   UNL     1       6.006  28.699  52.237  1.00  0.00    -0.263 N 
HETATM    2  C   UNL     1       5.576  27.487  51.727  1.00  0.00     0.270 C 
HETATM    3  O   UNL     1       4.713  27.386  50.861  1.00  0.00    -0.266 OA
HETATM    4  H   UNL     1       6.500  28.745  53.122  1.00  0.00     0.190 HD
ENDROOT
BRANCH   1   5
HETATM    5  N   UNL     1       5.349  29.859  51.809  1.00  0.00    -0.265 N 
HETATM    6  C   UNL     1       4.495  30.562  52.629  1.00  0.00     0.260 C 
HETATM    7  O   UNL     1       4.096  31.680  52.297  1.00  0.00    -0.269 OA
HETATM    8  H   UNL     1       5.826  30.411  51.097  1.00  0.00     0.190 HD
BRANCH   6   9
HETATM    9  C   UNL     1       4.008  29.876  53.900  1.00  0.00     0.280 C 
BRANCH   9  10
HETATM   10  O   UNL     1       4.941  30.122  54.943  1.00  0.00    -0.342 OA
BRANCH  10  11
HETATM   11  C   UNL     1       5.535  29.044  55.529  1.00  0.00     0.069 A 
HETATM   12  C   UNL     1       4.659  28.006  55.848  1.00  0.00     0.037 A 
HETATM   13  C   UNL     1       5.125  26.839  56.455  1.00  0.00     0.010 A 
HETATM   14  C   UNL     1       6.483  26.699  56.761  1.00  0.00    -0.058 A 
HETATM   15  C   UNL     1       7.362  27.739  56.434  1.00  0.00     0.010 A 
HETATM   16  C   UNL     1       6.891  28.907  55.822  1.00  0.00     0.037 A 
BRANCH  14  17
HETATM   17  C   UNL     1       6.995  25.431  57.394  1.00  0.00     0.034 C 
HETATM   18  C   UNL     1       8.502  25.468  57.595  1.00  0.00     0.010 C 
ENDBRANCH  14  17
ENDBRANCH  10  11
ENDBRANCH   9  10
ENDBRANCH   6   9
ENDBRANCH   1   5
BRANCH   2  19
HETATM   19  C   UNL     1       6.157  26.278  52.368  1.00  0.00     0.033 A 
HETATM   20  C   UNL     1       5.409  25.100  52.356  1.00  0.00     0.019 A 
HETATM   21  C   UNL     1       5.884  23.962  53.014  1.00  0.00     0.032 A 
HETATM   22  C   UNL     1       7.115  23.978  53.697  1.00  0.00     0.058 A 
HETATM   23  C   UNL     1       7.887  25.144  53.649  1.00  0.00     0.032 A 
HETATM   24  C   UNL     1       7.411  26.289  52.989  1.00  0.00     0.019 A 
BRANCH  22  25
HETATM   25  N   UNL     1       7.522  22.794  54.396  1.00  0.00    -0.238 N 
HETATM   26  N   UNL     1       7.673  22.863  55.750  1.00  0.00    -0.172 NA
HETATM   27  C   UNL     1       8.003  21.637  56.148  1.00  0.00     0.053 A 
HETATM   28  C   UNL     1       8.233  21.345  57.582  1.00  0.00     0.072 C 
HETATM   29  C   UNL     1       8.118  20.759  55.060  1.00  0.00     0.055 A 
HETATM   30  C   UNL     1       7.845  21.517  53.937  1.00  0.00     0.035 A 
HETATM   31  C   UNL     1       7.941  21.076  52.524  1.00  0.00     0.070 C 
ENDBRANCH  22  25
ENDBRANCH   2  19
TORSDOF 7
ENDMDL
MODEL 9
REMARK VINA RESULT:      -7.6      6.451      9.137
REMARK  7 active torsions:
REMARK  status: ('A' for Active; 'I' for Inactive)
REMARK    1  A    between atoms: C_2  and  C_3 
REMARK    2  A    between atoms: C_6  and  O_7 
REMARK    3  A    between atoms: O_7  and  C_8 
REMARK    4  A    between atoms: C_8  and  C_9 
REMARK       I    between atoms: C_9  and  N_10 
REMARK    5  A    between atoms: N_10  and  N_11 
REMARK       I    between atoms: N_11  and  C_12 
REMARK    6  A    between atoms: C_12  and  C_13 
REMARK    7  A    between atoms: C_16  and  N_17 
ROOT
HETATM    1  N   UNL     1       5.364  32.783  64.285  1.00  0.00    -0.263 N 
HETATM    2  C   UNL     1       6.692  33.061  64.014  1.00  0.00     0.270 C 
HETATM    3  O   UNL     1       7.374  33.827  64.687  1.00  0.00    -0.266 OA
HETATM    4  H   UNL     1       4.762  32.381  63.575  1.00  0.00     0.190 HD
ENDROOT
BRANCH   1   5
HETATM    5  N   UNL     1       4.748  33.490  65.324  1.00  0.00    -0.265 N 
HETATM    6  C   UNL     1       3.674  34.325  65.105  1.00  0.00     0.260 C 
HETATM    7  O   UNL     1       3.029  34.768  66.057  1.00  0.00    -0.269 OA
HETATM    8  H   UNL     1       4.788  33.061  66.247  1.00  0.00     0.190 HD
BRANCH   6   9
HETATM    9  C   UNL     1       3.376  34.734  63.667  1.00  0.00     0.280 C 
BRANCH   9  10
HETATM   10  O   UNL     1       2.857  33.612  62.966  1.00  0.00    -0.342 OA
BRANCH  10  11
HETATM   11  C   UNL     1       3.213  33.462  61.659  1.00  0.00     0.069 A 
HETATM   12  C   UNL     1       3.484  34.660  60.995  1.00  0.00     0.037 A 
HETATM   13  C   UNL     1       3.858  34.661  59.651  1.00  0.00     0.010 A 
HETATM   14  C   UNL     1       3.958  33.457  58.946  1.00  0.00    -0.058 A 
HETATM   15  C   UNL     1       3.693  32.256  59.617  1.00  0.00     0.010 A 
HETATM   16  C   UNL     1       3.321  32.258  60.966  1.00  0.00     0.037 A 
BRANCH  14  17
HETATM   17  C   UNL     1       4.386  33.451  57.501  1.00  0.00     0.034 C 
HETATM   18  C   UNL     1       4.669  34.855  56.989  1.00  0.00     0.010 C 
ENDBRANCH  14  17
ENDBRANCH  10  11
ENDBRANCH   9  10
ENDBRANCH   6   9
ENDBRANCH   1   5
BRANCH   2  19
HETATM   19  C   UNL     1       7.238  32.445  62.775  1.00  0.00     0.033 A 
HETATM   20  C   UNL     1       6.857  32.985  61.545  1.00  0.00     0.019 A 
HETATM   21  C   UNL     1       7.284  32.389  60.356  1.00  0.00     0.032 A 
HETATM   22  C   UNL     1       8.100  31.241  60.370  1.00  0.00     0.058 A 
HETATM   23  C   UNL     1       8.528  30.746  61.607  1.00  0.00     0.032 A 
HETATM   24  C   UNL     1       8.099  31.343  62.804  1.00  0.00     0.019 A 
BRANCH  22  25
HETATM   25  N   UNL     1       8.461  30.647  59.116  1.00  0.00    -0.238 N 
HETATM   26  N   UNL     1       9.784  30.578  58.791  1.00  0.00    -0.172 NA
HETATM   27  C   UNL     1       9.844  29.949  57.620  1.00  0.00     0.053 A 
HETATM   28  C   UNL     1      11.149  29.688  56.969  1.00  0.00     0.072 C 
HETATM   29  C   UNL     1       8.563  29.638  57.140  1.00  0.00     0.055 A 
HETATM   30  C   UNL     1       7.681  30.121  58.086  1.00  0.00     0.035 A 
HETATM   31  C   UNL     1       6.201  30.137  57.994  1.00  0.00     0.070 C 
ENDBRANCH  22  25
ENDBRANCH   2  19
TORSDOF 7
ENDMDL
MODEL 10
REMARK VINA RESULT:      -7.6      3.131      5.112
REMARK  7 active torsions:
REMARK  status: ('A' for Active; 'I' for Inactive)
REMARK    1  A    between atoms: C_2  and  C_3 
REMARK    2  A    between atoms: C_6  and  O_7 
REMARK    3  A    between atoms: O_7  and  C_8 
REMARK    4  A    between atoms: C_8  and  C_9 
REMARK       I    between atoms: C_9  and  N_10 
REMARK    5  A    between atoms: N_10  and  N_11 
REMARK       I    between atoms: N_11  and  C_12 
REMARK    6  A    between atoms: C_12  and  C_13 
REMARK    7  A    between atoms: C_16  and  N_17 
ROOT
HETATM    1  N   UNL     1       5.974  27.333  50.158  1.00  0.00    -0.263 N 
HETATM    2  C   UNL     1       5.311  26.186  50.556  1.00  0.00     0.270 C 
HETATM    3  O   UNL     1       4.311  25.753  49.992  1.00  0.00    -0.266 OA
HETATM    4  H   UNL     1       6.609  27.812  50.787  1.00  0.00     0.190 HD
ENDROOT
BRANCH   1   5
HETATM    5  N   UNL     1       5.412  28.085  49.119  1.00  0.00    -0.265 N 
HETATM    6  C   UNL     1       5.244  29.449  49.211  1.00  0.00     0.260 C 
HETATM    7  O   UNL     1       4.941  30.105  48.212  1.00  0.00    -0.269 OA
HETATM    8  H   UNL     1       5.546  27.723  48.176  1.00  0.00     0.190 HD
BRANCH   6   9
HETATM    9  C   UNL     1       5.365  30.087  50.589  1.00  0.00     0.280 C 
BRANCH   9  10
HETATM   10  O   UNL     1       4.324  29.593  51.420  1.00  0.00    -0.342 OA
BRANCH  10  11
HETATM   11  C   UNL     1       4.598  29.420  52.744  1.00  0.00     0.069 A 
HETATM   12  C   UNL     1       3.682  30.025  53.606  1.00  0.00     0.037 A 
HETATM   13  C   UNL     1       3.837  29.934  54.990  1.00  0.00     0.010 A 
HETATM   14  C   UNL     1       4.922  29.239  55.533  1.00  0.00    -0.058 A 
HETATM   15  C   UNL     1       5.836  28.626  54.666  1.00  0.00     0.010 A 
HETATM   16  C   UNL     1       5.676  28.717  53.278  1.00  0.00     0.037 A 
BRANCH  14  17
HETATM   17  C   UNL     1       5.080  29.116  57.026  1.00  0.00     0.034 C 
HETATM   18  C   UNL     1       6.539  29.190  57.449  1.00  0.00     0.010 C 
ENDBRANCH  14  17
ENDBRANCH  10  11
ENDBRANCH   9  10
ENDBRANCH   6   9
ENDBRANCH   1   5
BRANCH   2  19
HETATM   19  C   UNL     1       5.827  25.542  51.793  1.00  0.00     0.033 A 
HETATM   20  C   UNL     1       7.183  25.218  51.852  1.00  0.00     0.019 A 
HETATM   21  C   UNL     1       7.694  24.542  52.964  1.00  0.00     0.032 A 
HETATM   22  C   UNL     1       6.860  24.177  54.039  1.00  0.00     0.058 A 
HETATM   23  C   UNL     1       5.516  24.563  53.998  1.00  0.00     0.032 A 
HETATM   24  C   UNL     1       5.001  25.242  52.881  1.00  0.00     0.019 A 
BRANCH  22  25
HETATM   25  N   UNL     1       7.434  23.440  55.126  1.00  0.00    -0.238 N 
HETATM   26  N   UNL     1       7.675  22.109  54.948  1.00  0.00    -0.172 NA
HETATM   27  C   UNL     1       8.244  21.683  56.074  1.00  0.00     0.053 A 
HETATM   28  C   UNL     1       8.656  20.268  56.222  1.00  0.00     0.072 C 
HETATM   29  C   UNL     1       8.343  22.714  57.019  1.00  0.00     0.055 A 
HETATM   30  C   UNL     1       7.787  23.828  56.419  1.00  0.00     0.035 A 
HETATM   31  C   UNL     1       7.554  25.151  57.047  1.00  0.00     0.070 C 
ENDBRANCH  22  25
ENDBRANCH   2  19
TORSDOF 7
ENDMDL
