MODEL 1
REMARK VINA RESULT:      -9.7      0.000      0.000
REMARK  8 active torsions:
REMARK  status: ('A' for Active; 'I' for Inactive)
REMARK    1  A    between atoms: C_2  and  O_3 
REMARK    2  A    between atoms: O_3  and  C_4 
REMARK    3  A    between atoms: C_5  and  N_6 
REMARK       I    between atoms: N_6  and  C_7 
REMARK    4  A    between atoms: C_7  and  C_8 
REMARK    5  A    between atoms: N_11  and  C_12 
REMARK    6  A    between atoms: C_12  and  C_13 
REMARK       I    between atoms: C_13  and  N_14 
REMARK    7  A    between atoms: N_14  and  C_15 
REMARK    8  A    between atoms: C_24  and  N_25 
ROOT
HETATM    1  C   UNL     1       8.541  28.957  57.228  1.00  0.00     0.187 C 
HETATM    2  N   UNL     1       8.063  28.164  58.250  1.00  0.00    -0.150 NA
HETATM    3  N   UNL     1       7.056  27.442  57.780  1.00  0.00     0.007 NA
HETATM    4  N   UNL     1       6.863  27.813  56.499  1.00  0.00    -0.248 N 
HETATM    5  C   UNL     1       7.841  28.672  56.067  1.00  0.00     0.151 C 
ENDROOT
BRANCH   1   6
HETATM    6  C   UNL     1       9.623  29.909  57.383  1.00  0.00     0.280 C 
HETATM    7  N   UNL     1       9.821  30.548  58.588  1.00  0.00    -0.319 N 
HETATM    8  H   UNL     1      10.770  30.881  58.677  1.00  0.00     0.169 HD
HETATM    9  O   UNL     1      10.438  30.112  56.478  1.00  0.00    -0.265 OA
BRANCH   7  10
HETATM   10  C   UNL     1       8.934  30.892  59.631  1.00  0.00     0.068 A 
HETATM   11  C   UNL     1       7.716  31.575  59.497  1.00  0.00     0.095 A 
HETATM   12  C   UNL     1       6.922  31.854  60.618  1.00  0.00     0.039 A 
HETATM   13  C   UNL     1       7.364  31.518  61.894  1.00  0.00     0.003 A 
HETATM   14  C   UNL     1       8.598  30.896  62.051  1.00  0.00     0.002 A 
HETATM   15  C   UNL     1       9.377  30.590  60.929  1.00  0.00     0.032 A 
BRANCH  11  16
HETATM   16  O   UNL     1       7.238  32.030  58.300  1.00  0.00    -0.349 OA
BRANCH  16  17
HETATM   17  C   UNL     1       5.810  31.959  58.236  1.00  0.00     0.171 C 
HETATM   18  C   UNL     1       5.444  31.254  56.942  1.00  0.00     0.034 C 
ENDBRANCH  16  17
ENDBRANCH  11  16
ENDBRANCH   7  10
ENDBRANCH   1   6
BRANCH   5  19
HETATM   19  N   UNL     1       7.935  29.131  54.794  1.00  0.00    -0.382 N 
HETATM   20  H   UNL     1       7.594  28.593  53.992  1.00  0.00     0.157 HD
HETATM   21  H   UNL     1       8.745  29.703  54.546  1.00  0.00     0.157 HD
ENDBRANCH   5  19
BRANCH   4  22
HETATM   22  C   UNL     1       5.645  27.430  55.834  1.00  0.00     0.251 C 
BRANCH  22  23
HETATM   23  C   UNL     1       5.861  26.277  54.887  1.00  0.00     0.241 C 
HETATM   24  N   UNL     1       6.989  25.528  55.174  1.00  0.00    -0.326 N 
HETATM   25  H   UNL     1       7.707  25.967  55.742  1.00  0.00     0.169 HD
HETATM   26  O   UNL     1       5.075  26.067  53.966  1.00  0.00    -0.271 OA
BRANCH  24  27
HETATM   27  C   UNL     1       7.282  24.239  54.680  1.00  0.00     0.037 A 
HETATM   28  C   UNL     1       7.275  23.094  55.477  1.00  0.00     0.072 A 
HETATM   29  C   UNL     1       7.658  21.868  54.936  1.00  0.00     0.124 A 
HETATM   30  F   UNL     1       7.683  20.792  55.736  1.00  0.00    -0.205 F 
HETATM   31  C   UNL     1       8.035  21.745  53.597  1.00  0.00    -0.023 A 
HETATM   32  C   UNL     1       8.495  20.430  53.050  1.00  0.00     0.051 C 
HETATM   33  C   UNL     1       8.040  22.893  52.800  1.00  0.00     0.012 A 
HETATM   34  C   UNL     1       7.669  24.131  53.338  1.00  0.00     0.030 A 
ENDBRANCH  24  27
ENDBRANCH  22  23
ENDBRANCH   4  22
TORSDOF 8
ENDMDL
MODEL 2
REMARK VINA RESULT:      -9.7      3.134      9.007
REMARK  8 active torsions:
REMARK  status: ('A' for Active; 'I' for Inactive)
REMARK    1  A    between atoms: C_2  and  O_3 
REMARK    2  A    between atoms: O_3  and  C_4 
REMARK    3  A    between atoms: C_5  and  N_6 
REMARK       I    between atoms: N_6  and  C_7 
REMARK    4  A    between atoms: C_7  and  C_8 
REMARK    5  A    between atoms: N_11  and  C_12 
REMARK    6  A    between atoms: C_12  and  C_13 
REMARK       I    between atoms: C_13  and  N_14 
REMARK    7  A    between atoms: N_14  and  C_15 
REMARK    8  A    between atoms: C_24  and  N_25 
ROOT
HETATM    1  C   UNL     1       6.475  27.501  56.301  1.00  0.00     0.187 C 
HETATM    2  N   UNL     1       7.121  26.637  57.159  1.00  0.00    -0.150 NA
HETATM    3  N   UNL     1       8.199  27.248  57.630  1.00  0.00     0.007 NA
HETATM    4  N   UNL     1       8.264  28.456  57.037  1.00  0.00    -0.248 N 
HETATM    5  C   UNL     1       7.145  28.713  56.286  1.00  0.00     0.151 C 
ENDROOT
BRANCH   1   6
HETATM    6  C   UNL     1       5.271  27.162  55.568  1.00  0.00     0.280 C 
HETATM    7  N   UNL     1       5.222  26.017  54.802  1.00  0.00    -0.319 N 
HETATM    8  H   UNL     1       4.271  25.714  54.652  1.00  0.00     0.169 HD
HETATM    9  O   UNL     1       4.241  27.835  55.671  1.00  0.00    -0.265 OA
BRANCH   7  10
HETATM   10  C   UNL     1       6.227  25.285  54.133  1.00  0.00     0.068 A 
HETATM   11  C   UNL     1       6.759  25.566  52.865  1.00  0.00     0.095 A 
HETATM   12  C   UNL     1       7.761  24.758  52.312  1.00  0.00     0.039 A 
HETATM   13  C   UNL     1       8.199  23.621  52.983  1.00  0.00     0.003 A 
HETATM   14  C   UNL     1       7.639  23.292  54.212  1.00  0.00     0.002 A 
HETATM   15  C   UNL     1       6.659  24.116  54.780  1.00  0.00     0.032 A 
BRANCH  11  16
HETATM   16  O   UNL     1       6.331  26.604  52.085  1.00  0.00    -0.349 OA
BRANCH  16  17
HETATM   17  C   UNL     1       5.397  26.171  51.090  1.00  0.00     0.171 C 
HETATM   18  C   UNL     1       5.087  27.365  50.203  1.00  0.00     0.034 C 
ENDBRANCH  16  17
ENDBRANCH  11  16
ENDBRANCH   7  10
ENDBRANCH   1   6
BRANCH   5  19
HETATM   19  N   UNL     1       6.914  29.891  55.654  1.00  0.00    -0.382 N 
HETATM   20  H   UNL     1       5.999  30.351  55.673  1.00  0.00     0.157 HD
HETATM   21  H   UNL     1       7.408  30.073  54.778  1.00  0.00     0.157 HD
ENDBRANCH   5  19
BRANCH   4  22
HETATM   22  C   UNL     1       9.488  29.210  57.114  1.00  0.00     0.251 C 
BRANCH  22  23
HETATM   23  C   UNL     1       9.402  30.317  58.133  1.00  0.00     0.241 C 
HETATM   24  N   UNL     1       8.305  30.216  58.971  1.00  0.00    -0.326 N 
HETATM   25  H   UNL     1       7.527  29.646  58.652  1.00  0.00     0.169 HD
HETATM   26  O   UNL     1      10.256  31.201  58.173  1.00  0.00    -0.271 OA
BRANCH  24  27
HETATM   27  C   UNL     1       8.122  30.899  60.192  1.00  0.00     0.037 A 
HETATM   28  C   UNL     1       7.285  32.006  60.332  1.00  0.00     0.072 A 
HETATM   29  C   UNL     1       7.222  32.682  61.550  1.00  0.00     0.124 A 
HETATM   30  F   UNL     1       6.442  33.769  61.643  1.00  0.00    -0.205 F 
HETATM   31  C   UNL     1       7.965  32.265  62.655  1.00  0.00    -0.023 A 
HETATM   32  C   UNL     1       7.925  33.036  63.939  1.00  0.00     0.051 C 
HETATM   33  C   UNL     1       8.802  31.154  62.514  1.00  0.00     0.012 A 
HETATM   34  C   UNL     1       8.882  30.479  61.291  1.00  0.00     0.030 A 
ENDBRANCH  24  27
ENDBRANCH  22  23
ENDBRANCH   4  22
TORSDOF 8
ENDMDL
MODEL 3
REMARK VINA RESULT:      -9.6      3.076      9.111
REMARK  8 active torsions:
REMARK  status: ('A' for Active; 'I' for Inactive)
REMARK    1  A    between atoms: C_2  and  O_3 
REMARK    2  A    between atoms: O_3  and  C_4 
REMARK    3  A    between atoms: C_5  and  N_6 
REMARK       I    between atoms: N_6  and  C_7 
REMARK    4  A    between atoms: C_7  and  C_8 
REMARK    5  A    between atoms: N_11  and  C_12 
REMARK    6  A    between atoms: C_12  and  C_13 
REMARK       I    between atoms: C_13  and  N_14 
REMARK    7  A    between atoms: N_14  and  C_15 
REMARK    8  A    between atoms: C_24  and  N_25 
ROOT
HETATM    1  C   UNL     1       6.498  27.338  56.436  1.00  0.00     0.187 C 
HETATM    2  N   UNL     1       7.244  26.523  57.261  1.00  0.00    -0.150 NA
HETATM    3  N   UNL     1       8.323  27.194  57.643  1.00  0.00     0.007 NA
HETATM    4  N   UNL     1       8.287  28.390  57.024  1.00  0.00    -0.248 N 
HETATM    5  C   UNL     1       7.107  28.579  56.352  1.00  0.00     0.151 C 
ENDROOT
BRANCH   1   6
HETATM    6  C   UNL     1       5.263  26.928  55.799  1.00  0.00     0.280 C 
HETATM    7  N   UNL     1       5.232  25.803  55.002  1.00  0.00    -0.319 N 
HETATM    8  H   UNL     1       4.295  25.432  54.925  1.00  0.00     0.169 HD
HETATM    9  O   UNL     1       4.199  27.517  56.012  1.00  0.00    -0.265 OA
BRANCH   7  10
HETATM   10  C   UNL     1       6.225  25.168  54.225  1.00  0.00     0.068 A 
HETATM   11  C   UNL     1       7.029  24.088  54.622  1.00  0.00     0.095 A 
HETATM   12  C   UNL     1       7.981  23.543  53.750  1.00  0.00     0.039 A 
HETATM   13  C   UNL     1       8.193  24.110  52.497  1.00  0.00     0.003 A 
HETATM   14  C   UNL     1       7.448  25.219  52.111  1.00  0.00     0.002 A 
HETATM   15  C   UNL     1       6.476  25.745  52.970  1.00  0.00     0.032 A 
BRANCH  11  16
HETATM   16  O   UNL     1       6.963  23.521  55.864  1.00  0.00    -0.349 OA
BRANCH  16  17
HETATM   17  C   UNL     1       8.259  23.151  56.349  1.00  0.00     0.171 C 
HETATM   18  C   UNL     1       8.261  21.645  56.545  1.00  0.00     0.034 C 
ENDBRANCH  16  17
ENDBRANCH  11  16
ENDBRANCH   7  10
ENDBRANCH   1   6
BRANCH   5  19
HETATM   19  N   UNL     1       6.776  29.731  55.716  1.00  0.00    -0.382 N 
HETATM   20  H   UNL     1       6.105  29.754  54.941  1.00  0.00     0.157 HD
HETATM   21  H   UNL     1       7.495  30.449  55.612  1.00  0.00     0.157 HD
ENDBRANCH   5  19
BRANCH   4  22
HETATM   22  C   UNL     1       9.477  29.203  56.999  1.00  0.00     0.251 C 
BRANCH  22  23
HETATM   23  C   UNL     1       9.443  30.280  58.052  1.00  0.00     0.241 C 
HETATM   24  N   UNL     1       8.307  30.248  58.843  1.00  0.00    -0.326 N 
HETATM   25  H   UNL     1       7.497  29.758  58.474  1.00  0.00     0.169 HD
HETATM   26  O   UNL     1      10.367  31.084  58.156  1.00  0.00    -0.271 OA
BRANCH  24  27
HETATM   27  C   UNL     1       8.132  30.906  60.078  1.00  0.00     0.037 A 
HETATM   28  C   UNL     1       7.307  32.018  60.244  1.00  0.00     0.072 A 
HETATM   29  C   UNL     1       7.252  32.667  61.477  1.00  0.00     0.124 A 
HETATM   30  F   UNL     1       6.482  33.759  61.595  1.00  0.00    -0.205 F 
HETATM   31  C   UNL     1       7.992  32.218  62.572  1.00  0.00    -0.023 A 
HETATM   32  C   UNL     1       7.961  32.961  63.872  1.00  0.00     0.051 C 
HETATM   33  C   UNL     1       8.818  31.103  62.405  1.00  0.00     0.012 A 
HETATM   34  C   UNL     1       8.889  30.454  61.167  1.00  0.00     0.030 A 
ENDBRANCH  24  27
ENDBRANCH  22  23
ENDBRANCH   4  22
TORSDOF 8
ENDMDL
MODEL 4
REMARK VINA RESULT:      -9.3      1.839      2.603
REMARK  8 active torsions:
REMARK  status: ('A' for Active; 'I' for Inactive)
REMARK    1  A    between atoms: C_2  and  O_3 
REMARK    2  A    between atoms: O_3  and  C_4 
REMARK    3  A    between atoms: C_5  and  N_6 
REMARK       I    between atoms: N_6  and  C_7 
REMARK    4  A    between atoms: C_7  and  C_8 
REMARK    5  A    between atoms: N_11  and  C_12 
REMARK    6  A    between atoms: C_12  and  C_13 
REMARK       I    between atoms: C_13  and  N_14 
REMARK    7  A    between atoms: N_14  and  C_15 
REMARK    8  A    between atoms: C_24  and  N_25 
ROOT
HETATM    1  C   UNL     1       6.945  29.825  57.619  1.00  0.00     0.187 C 
HETATM    2  N   UNL     1       8.308  29.619  57.583  1.00  0.00    -0.150 NA
HETATM    3  N   UNL     1       8.532  28.312  57.591  1.00  0.00     0.007 NA
HETATM    4  N   UNL     1       7.333  27.704  57.688  1.00  0.00    -0.248 N 
HETATM    5  C   UNL     1       6.299  28.600  57.589  1.00  0.00     0.151 C 
ENDROOT
BRANCH   1   6
HETATM    6  C   UNL     1       6.328  31.135  57.657  1.00  0.00     0.280 C 
HETATM    7  N   UNL     1       6.788  32.097  58.532  1.00  0.00    -0.319 N 
HETATM    8  H   UNL     1       6.542  33.026  58.221  1.00  0.00     0.169 HD
HETATM    9  O   UNL     1       5.437  31.454  56.863  1.00  0.00    -0.265 OA
BRANCH   7  10
HETATM   10  C   UNL     1       7.429  32.003  59.786  1.00  0.00     0.068 A 
HETATM   11  C   UNL     1       6.802  31.966  61.041  1.00  0.00     0.095 A 
HETATM   12  C   UNL     1       7.557  31.867  62.218  1.00  0.00     0.039 A 
HETATM   13  C   UNL     1       8.947  31.874  62.165  1.00  0.00     0.003 A 
HETATM   14  C   UNL     1       9.586  31.973  60.934  1.00  0.00     0.002 A 
HETATM   15  C   UNL     1       8.832  32.041  59.756  1.00  0.00     0.032 A 
BRANCH  11  16
HETATM   16  O   UNL     1       5.448  32.048  61.206  1.00  0.00    -0.349 OA
BRANCH  16  17
HETATM   17  C   UNL     1       5.088  32.209  62.582  1.00  0.00     0.171 C 
HETATM   18  C   UNL     1       4.127  33.381  62.670  1.00  0.00     0.034 C 
ENDBRANCH  16  17
ENDBRANCH  11  16
ENDBRANCH   7  10
ENDBRANCH   1   6
BRANCH   5  19
HETATM   19  N   UNL     1       4.991  28.245  57.568  1.00  0.00    -0.382 N 
HETATM   20  H   UNL     1       4.664  27.339  57.919  1.00  0.00     0.157 HD
HETATM   21  H   UNL     1       4.412  28.579  56.795  1.00  0.00     0.157 HD
ENDBRANCH   5  19
BRANCH   4  22
HETATM   22  C   UNL     1       7.281  26.307  58.034  1.00  0.00     0.251 C 
BRANCH  22  23
HETATM   23  C   UNL     1       6.964  25.444  56.839  1.00  0.00     0.241 C 
HETATM   24  N   UNL     1       8.054  24.740  56.359  1.00  0.00    -0.326 N 
HETATM   25  H   UNL     1       8.977  25.081  56.611  1.00  0.00     0.169 HD
HETATM   26  O   UNL     1       5.825  25.406  56.378  1.00  0.00    -0.271 OA
BRANCH  24  27
HETATM   27  C   UNL     1       8.013  23.640  55.476  1.00  0.00     0.037 A 
HETATM   28  C   UNL     1       7.939  22.315  55.906  1.00  0.00     0.072 A 
HETATM   29  C   UNL     1       7.988  21.278  54.976  1.00  0.00     0.124 A 
HETATM   30  F   UNL     1       7.959  20.013  55.421  1.00  0.00    -0.205 F 
HETATM   31  C   UNL     1       8.090  21.529  53.606  1.00  0.00    -0.023 A 
HETATM   32  C   UNL     1       8.196  20.399  52.628  1.00  0.00     0.051 C 
HETATM   33  C   UNL     1       8.162  22.857  53.177  1.00  0.00     0.012 A 
HETATM   34  C   UNL     1       8.127  23.904  54.105  1.00  0.00     0.030 A 
ENDBRANCH  24  27
ENDBRANCH  22  23
ENDBRANCH   4  22
TORSDOF 8
ENDMDL
MODEL 5
REMARK VINA RESULT:      -9.3      3.038      8.949
REMARK  8 active torsions:
REMARK  status: ('A' for Active; 'I' for Inactive)
REMARK    1  A    between atoms: C_2  and  O_3 
REMARK    2  A    between atoms: O_3  and  C_4 
REMARK    3  A    between atoms: C_5  and  N_6 
REMARK       I    between atoms: N_6  and  C_7 
REMARK    4  A    between atoms: C_7  and  C_8 
REMARK    5  A    between atoms: N_11  and  C_12 
REMARK    6  A    between atoms: C_12  and  C_13 
REMARK       I    between atoms: C_13  and  N_14 
REMARK    7  A    between atoms: N_14  and  C_15 
REMARK    8  A    between atoms: C_24  and  N_25 
ROOT
HETATM    1  C   UNL     1       6.754  27.678  56.100  1.00  0.00     0.187 C 
HETATM    2  N   UNL     1       6.803  28.893  55.449  1.00  0.00    -0.150 NA
HETATM    3  N   UNL     1       8.002  29.423  55.646  1.00  0.00     0.007 NA
HETATM    4  N   UNL     1       8.679  28.584  56.456  1.00  0.00    -0.248 N 
HETATM    5  C   UNL     1       7.988  27.420  56.673  1.00  0.00     0.151 C 
ENDROOT
BRANCH   1   6
HETATM    6  C   UNL     1       5.581  26.828  56.134  1.00  0.00     0.280 C 
HETATM    7  N   UNL     1       5.629  25.556  55.603  1.00  0.00    -0.319 N 
HETATM    8  H   UNL     1       4.911  24.965  55.998  1.00  0.00     0.169 HD
HETATM    9  O   UNL     1       4.544  27.180  56.703  1.00  0.00    -0.265 OA
BRANCH   7  10
HETATM   10  C   UNL     1       6.410  24.991  54.572  1.00  0.00     0.068 A 
HETATM   11  C   UNL     1       6.379  25.345  53.214  1.00  0.00     0.095 A 
HETATM   12  C   UNL     1       7.213  24.706  52.287  1.00  0.00     0.039 A 
HETATM   13  C   UNL     1       8.040  23.661  52.687  1.00  0.00     0.003 A 
HETATM   14  C   UNL     1       8.039  23.256  54.017  1.00  0.00     0.002 A 
HETATM   15  C   UNL     1       7.228  23.914  54.950  1.00  0.00     0.032 A 
BRANCH  11  16
HETATM   16  O   UNL     1       5.535  26.292  52.705  1.00  0.00    -0.349 OA
BRANCH  16  17
HETATM   17  C   UNL     1       5.228  26.046  51.329  1.00  0.00     0.171 C 
HETATM   18  C   UNL     1       5.256  27.381  50.607  1.00  0.00     0.034 C 
ENDBRANCH  16  17
ENDBRANCH  11  16
ENDBRANCH   7  10
ENDBRANCH   1   6
BRANCH   5  19
HETATM   19  N   UNL     1       8.478  26.371  57.380  1.00  0.00    -0.382 N 
HETATM   20  H   UNL     1       7.895  25.824  58.021  1.00  0.00     0.157 HD
HETATM   21  H   UNL     1       9.447  26.414  57.699  1.00  0.00     0.157 HD
ENDBRANCH   5  19
BRANCH   4  22
HETATM   22  C   UNL     1       9.885  29.046  57.093  1.00  0.00     0.251 C 
BRANCH  22  23
HETATM   23  C   UNL     1       9.621  30.197  58.029  1.00  0.00     0.241 C 
HETATM   24  N   UNL     1       8.571  29.972  58.903  1.00  0.00    -0.326 N 
HETATM   25  H   UNL     1       7.901  29.252  58.648  1.00  0.00     0.169 HD
HETATM   26  O   UNL     1      10.307  31.216  57.980  1.00  0.00    -0.271 OA
BRANCH  24  27
HETATM   27  C   UNL     1       8.288  30.705  60.074  1.00  0.00     0.037 A 
HETATM   28  C   UNL     1       7.330  31.718  60.131  1.00  0.00     0.072 A 
HETATM   29  C   UNL     1       7.168  32.457  61.302  1.00  0.00     0.124 A 
HETATM   30  F   UNL     1       6.269  33.452  61.314  1.00  0.00    -0.205 F 
HETATM   31  C   UNL     1       7.931  32.197  62.441  1.00  0.00    -0.023 A 
HETATM   32  C   UNL     1       7.778  33.038  63.671  1.00  0.00     0.051 C 
HETATM   33  C   UNL     1       8.889  31.182  62.383  1.00  0.00     0.012 A 
HETATM   34  C   UNL     1       9.068  30.444  61.208  1.00  0.00     0.030 A 
ENDBRANCH  24  27
ENDBRANCH  22  23
ENDBRANCH   4  22
TORSDOF 8
ENDMDL
MODEL 6
REMARK VINA RESULT:      -9.1      3.061      4.576
REMARK  8 active torsions:
REMARK  status: ('A' for Active; 'I' for Inactive)
REMARK    1  A    between atoms: C_2  and  O_3 
REMARK    2  A    between atoms: O_3  and  C_4 
REMARK    3  A    between atoms: C_5  and  N_6 
REMARK       I    between atoms: N_6  and  C_7 
REMARK    4  A    between atoms: C_7  and  C_8 
REMARK    5  A    between atoms: N_11  and  C_12 
REMARK    6  A    between atoms: C_12  and  C_13 
REMARK       I    between atoms: C_13  and  N_14 
REMARK    7  A    between atoms: N_14  and  C_15 
REMARK    8  A    between atoms: C_24  and  N_25 
ROOT
HETATM    1  C   UNL     1       5.044  28.782  54.027  1.00  0.00     0.187 C 
HETATM    2  N   UNL     1       6.360  28.918  53.638  1.00  0.00    -0.150 NA
HETATM    3  N   UNL     1       6.525  28.268  52.494  1.00  0.00     0.007 NA
HETATM    4  N   UNL     1       5.348  27.684  52.195  1.00  0.00    -0.248 N 
HETATM    5  C   UNL     1       4.355  28.071  53.058  1.00  0.00     0.151 C 
ENDROOT
BRANCH   1   6
HETATM    6  C   UNL     1       4.503  29.332  55.253  1.00  0.00     0.280 C 
HETATM    7  N   UNL     1       5.153  29.132  56.452  1.00  0.00    -0.319 N 
HETATM    8  H   UNL     1       4.898  29.835  57.132  1.00  0.00     0.169 HD
HETATM    9  O   UNL     1       3.503  30.056  55.250  1.00  0.00    -0.265 OA
BRANCH   7  10
HETATM   10  C   UNL     1       5.998  28.097  56.907  1.00  0.00     0.068 A 
HETATM   11  C   UNL     1       7.371  28.202  57.181  1.00  0.00     0.095 A 
HETATM   12  C   UNL     1       8.099  27.094  57.633  1.00  0.00     0.039 A 
HETATM   13  C   UNL     1       7.487  25.850  57.752  1.00  0.00     0.003 A 
HETATM   14  C   UNL     1       6.143  25.713  57.425  1.00  0.00     0.002 A 
HETATM   15  C   UNL     1       5.407  26.827  57.002  1.00  0.00     0.032 A 
BRANCH  11  16
HETATM   16  O   UNL     1       8.084  29.355  57.007  1.00  0.00    -0.349 OA
BRANCH  16  17
HETATM   17  C   UNL     1       9.002  29.251  55.914  1.00  0.00     0.171 C 
HETATM   18  C   UNL     1      10.342  29.786  56.388  1.00  0.00     0.034 C 
ENDBRANCH  16  17
ENDBRANCH  11  16
ENDBRANCH   7  10
ENDBRANCH   1   6
BRANCH   5  19
HETATM   19  N   UNL     1       3.057  27.699  52.931  1.00  0.00    -0.382 N 
HETATM   20  H   UNL     1       2.409  27.698  53.725  1.00  0.00     0.157 HD
HETATM   21  H   UNL     1       2.828  26.965  52.259  1.00  0.00     0.157 HD
ENDBRANCH   5  19
BRANCH   4  22
HETATM   22  C   UNL     1       5.311  26.661  51.182  1.00  0.00     0.251 C 
BRANCH  22  23
HETATM   23  C   UNL     1       5.494  25.284  51.767  1.00  0.00     0.241 C 
HETATM   24  N   UNL     1       6.787  25.030  52.192  1.00  0.00    -0.326 N 
HETATM   25  H   UNL     1       7.526  25.610  51.807  1.00  0.00     0.169 HD
HETATM   26  O   UNL     1       4.549  24.502  51.837  1.00  0.00    -0.271 OA
BRANCH  24  27
HETATM   27  C   UNL     1       7.193  23.982  53.044  1.00  0.00     0.037 A 
HETATM   28  C   UNL     1       7.759  22.794  52.582  1.00  0.00     0.072 A 
HETATM   29  C   UNL     1       8.056  21.769  53.479  1.00  0.00     0.124 A 
HETATM   30  F   UNL     1       8.560  20.621  53.000  1.00  0.00    -0.205 F 
HETATM   31  C   UNL     1       7.820  21.905  54.848  1.00  0.00    -0.023 A 
HETATM   32  C   UNL     1       8.095  20.772  55.787  1.00  0.00     0.051 C 
HETATM   33  C   UNL     1       7.254  23.096  55.310  1.00  0.00     0.012 A 
HETATM   34  C   UNL     1       6.941  24.125  54.415  1.00  0.00     0.030 A 
ENDBRANCH  24  27
ENDBRANCH  22  23
ENDBRANCH   4  22
TORSDOF 8
ENDMDL
MODEL 7
REMARK VINA RESULT:      -9.1      1.610      2.579
REMARK  8 active torsions:
REMARK  status: ('A' for Active; 'I' for Inactive)
REMARK    1  A    between atoms: C_2  and  O_3 
REMARK    2  A    between atoms: O_3  and  C_4 
REMARK    3  A    between atoms: C_5  and  N_6 
REMARK       I    between atoms: N_6  and  C_7 
REMARK    4  A    between atoms: C_7  and  C_8 
REMARK    5  A    between atoms: N_11  and  C_12 
REMARK    6  A    between atoms: C_12  and  C_13 
REMARK       I    between atoms: C_13  and  N_14 
REMARK    7  A    between atoms: N_14  and  C_15 
REMARK    8  A    between atoms: C_24  and  N_25 
ROOT
HETATM    1  C   UNL     1       6.615  29.647  57.655  1.00  0.00     0.187 C 
HETATM    2  N   UNL     1       7.956  29.388  57.848  1.00  0.00    -0.150 NA
HETATM    3  N   UNL     1       8.133  28.073  57.828  1.00  0.00     0.007 NA
HETATM    4  N   UNL     1       6.917  27.511  57.683  1.00  0.00    -0.248 N 
HETATM    5  C   UNL     1       5.946  28.451  57.449  1.00  0.00     0.151 C 
ENDROOT
BRANCH   1   6
HETATM    6  C   UNL     1       6.043  30.978  57.652  1.00  0.00     0.280 C 
HETATM    7  N   UNL     1       6.610  31.982  58.408  1.00  0.00    -0.319 N 
HETATM    8  H   UNL     1       6.364  32.894  58.053  1.00  0.00     0.169 HD
HETATM    9  O   UNL     1       5.093  31.271  56.919  1.00  0.00    -0.265 OA
BRANCH   7  10
HETATM   10  C   UNL     1       7.360  31.954  59.604  1.00  0.00     0.068 A 
HETATM   11  C   UNL     1       8.753  32.085  59.717  1.00  0.00     0.095 A 
HETATM   12  C   UNL     1       9.378  32.044  60.970  1.00  0.00     0.039 A 
HETATM   13  C   UNL     1       8.633  31.803  62.120  1.00  0.00     0.003 A 
HETATM   14  C   UNL     1       7.260  31.609  62.021  1.00  0.00     0.002 A 
HETATM   15  C   UNL     1       6.631  31.681  60.772  1.00  0.00     0.032 A 
BRANCH  11  16
HETATM   16  O   UNL     1       9.582  32.230  58.640  1.00  0.00    -0.349 OA
BRANCH  16  17
HETATM   17  C   UNL     1      10.714  31.357  58.720  1.00  0.00     0.171 C 
HETATM   18  C   UNL     1      10.868  30.683  57.368  1.00  0.00     0.034 C 
ENDBRANCH  16  17
ENDBRANCH  11  16
ENDBRANCH   7  10
ENDBRANCH   1   6
BRANCH   5  19
HETATM   19  N   UNL     1       4.651  28.151  57.182  1.00  0.00    -0.382 N 
HETATM   20  H   UNL     1       3.883  28.449  57.791  1.00  0.00     0.157 HD
HETATM   21  H   UNL     1       4.447  27.257  56.730  1.00  0.00     0.157 HD
ENDBRANCH   5  19
BRANCH   4  22
HETATM   22  C   UNL     1       6.760  26.103  57.942  1.00  0.00     0.251 C 
BRANCH  22  23
HETATM   23  C   UNL     1       6.662  25.304  56.668  1.00  0.00     0.241 C 
HETATM   24  N   UNL     1       7.774  24.518  56.418  1.00  0.00    -0.326 N 
HETATM   25  H   UNL     1       8.636  24.769  56.892  1.00  0.00     0.169 HD
HETATM   26  O   UNL     1       5.663  25.381  55.956  1.00  0.00    -0.271 OA
BRANCH  24  27
HETATM   27  C   UNL     1       7.851  23.451  55.499  1.00  0.00     0.037 A 
HETATM   28  C   UNL     1       7.881  22.110  55.882  1.00  0.00     0.072 A 
HETATM   29  C   UNL     1       8.044  21.115  54.921  1.00  0.00     0.124 A 
HETATM   30  F   UNL     1       8.112  19.837  55.323  1.00  0.00    -0.205 F 
HETATM   31  C   UNL     1       8.159  21.422  53.564  1.00  0.00    -0.023 A 
HETATM   32  C   UNL     1       8.389  20.341  52.552  1.00  0.00     0.051 C 
HETATM   33  C   UNL     1       8.127  22.765  53.181  1.00  0.00     0.012 A 
HETATM   34  C   UNL     1       7.977  23.772  54.141  1.00  0.00     0.030 A 
ENDBRANCH  24  27
ENDBRANCH  22  23
ENDBRANCH   4  22
TORSDOF 8
ENDMDL
MODEL 8
REMARK VINA RESULT:      -8.9      3.192      8.839
REMARK  8 active torsions:
REMARK  status: ('A' for Active; 'I' for Inactive)
REMARK    1  A    between atoms: C_2  and  O_3 
REMARK    2  A    between atoms: O_3  and  C_4 
REMARK    3  A    between atoms: C_5  and  N_6 
REMARK       I    between atoms: N_6  and  C_7 
REMARK    4  A    between atoms: C_7  and  C_8 
REMARK    5  A    between atoms: N_11  and  C_12 
REMARK    6  A    between atoms: C_12  and  C_13 
REMARK       I    between atoms: C_13  and  N_14 
REMARK    7  A    between atoms: N_14  and  C_15 
REMARK    8  A    between atoms: C_24  and  N_25 
ROOT
HETATM    1  C   UNL     1       5.095  28.212  54.725  1.00  0.00     0.187 C 
HETATM    2  N   UNL     1       4.732  28.536  56.016  1.00  0.00    -0.150 NA
HETATM    3  N   UNL     1       5.787  29.058  56.626  1.00  0.00     0.007 NA
HETATM    4  N   UNL     1       6.814  29.013  55.755  1.00  0.00    -0.248 N 
HETATM    5  C   UNL     1       6.407  28.604  54.511  1.00  0.00     0.151 C 
ENDROOT
BRANCH   1   6
HETATM    6  C   UNL     1       4.205  27.585  53.769  1.00  0.00     0.280 C 
HETATM    7  N   UNL     1       4.420  26.284  53.367  1.00  0.00    -0.319 N 
HETATM    8  H   UNL     1       3.574  25.864  53.011  1.00  0.00     0.169 HD
HETATM    9  O   UNL     1       3.195  28.160  53.354  1.00  0.00    -0.265 OA
BRANCH   7  10
HETATM   10  C   UNL     1       5.595  25.506  53.276  1.00  0.00     0.068 A 
HETATM   11  C   UNL     1       6.224  24.821  54.327  1.00  0.00     0.095 A 
HETATM   12  C   UNL     1       7.389  24.076  54.102  1.00  0.00     0.039 A 
HETATM   13  C   UNL     1       7.982  24.060  52.844  1.00  0.00     0.003 A 
HETATM   14  C   UNL     1       7.407  24.783  51.805  1.00  0.00     0.002 A 
HETATM   15  C   UNL     1       6.226  25.503  52.022  1.00  0.00     0.032 A 
BRANCH  11  16
HETATM   16  O   UNL     1       5.774  24.851  55.617  1.00  0.00    -0.349 OA
BRANCH  16  17
HETATM   17  C   UNL     1       6.693  25.523  56.485  1.00  0.00     0.171 C 
HETATM   18  C   UNL     1       7.540  24.462  57.165  1.00  0.00     0.034 C 
ENDBRANCH  16  17
ENDBRANCH  11  16
ENDBRANCH   7  10
ENDBRANCH   1   6
BRANCH   5  19
HETATM   19  N   UNL     1       7.221  28.553  53.427  1.00  0.00    -0.382 N 
HETATM   20  H   UNL     1       6.920  28.149  52.535  1.00  0.00     0.157 HD
HETATM   21  H   UNL     1       8.222  28.417  53.582  1.00  0.00     0.157 HD
ENDBRANCH   5  19
BRANCH   4  22
HETATM   22  C   UNL     1       8.155  29.219  56.239  1.00  0.00     0.251 C 
BRANCH  22  23
HETATM   23  C   UNL     1       8.200  29.315  57.742  1.00  0.00     0.241 C 
HETATM   24  N   UNL     1       8.437  30.597  58.209  1.00  0.00    -0.326 N 
HETATM   25  H   UNL     1       8.859  31.257  57.563  1.00  0.00     0.169 HD
HETATM   26  O   UNL     1       8.033  28.317  58.440  1.00  0.00    -0.271 OA
BRANCH  24  27
HETATM   27  C   UNL     1       8.230  31.055  59.527  1.00  0.00     0.037 A 
HETATM   28  C   UNL     1       7.130  31.825  59.906  1.00  0.00     0.072 A 
HETATM   29  C   UNL     1       7.038  32.313  61.209  1.00  0.00     0.124 A 
HETATM   30  F   UNL     1       5.991  33.086  61.533  1.00  0.00    -0.205 F 
HETATM   31  C   UNL     1       8.016  32.034  62.164  1.00  0.00    -0.023 A 
HETATM   32  C   UNL     1       7.926  32.613  63.543  1.00  0.00     0.051 C 
HETATM   33  C   UNL     1       9.117  31.261  61.783  1.00  0.00     0.012 A 
HETATM   34  C   UNL     1       9.224  30.778  60.474  1.00  0.00     0.030 A 
ENDBRANCH  24  27
ENDBRANCH  22  23
ENDBRANCH   4  22
TORSDOF 8
ENDMDL
MODEL 9
REMARK VINA RESULT:      -8.8      3.388      9.251
REMARK  8 active torsions:
REMARK  status: ('A' for Active; 'I' for Inactive)
REMARK    1  A    between atoms: C_2  and  O_3 
REMARK    2  A    between atoms: O_3  and  C_4 
REMARK    3  A    between atoms: C_5  and  N_6 
REMARK       I    between atoms: N_6  and  C_7 
REMARK    4  A    between atoms: C_7  and  C_8 
REMARK    5  A    between atoms: N_11  and  C_12 
REMARK    6  A    between atoms: C_12  and  C_13 
REMARK       I    between atoms: C_13  and  N_14 
REMARK    7  A    between atoms: N_14  and  C_15 
REMARK    8  A    between atoms: C_24  and  N_25 
ROOT
HETATM    1  C   UNL     1       7.097  28.766  55.805  1.00  0.00     0.187 C 
HETATM    2  N   UNL     1       6.164  29.061  56.777  1.00  0.00    -0.150 NA
HETATM    3  N   UNL     1       6.774  29.718  57.754  1.00  0.00     0.007 NA
HETATM    4  N   UNL     1       8.081  29.787  57.432  1.00  0.00    -0.248 N 
HETATM    5  C   UNL     1       8.318  29.312  56.167  1.00  0.00     0.151 C 
ENDROOT
BRANCH   1   6
HETATM    6  C   UNL     1       6.799  28.020  54.600  1.00  0.00     0.280 C 
HETATM    7  N   UNL     1       6.789  26.641  54.618  1.00  0.00    -0.319 N 
HETATM    8  H   UNL     1       6.235  26.267  53.861  1.00  0.00     0.169 HD
HETATM    9  O   UNL     1       6.470  28.587  53.554  1.00  0.00    -0.265 OA
BRANCH   7  10
HETATM   10  C   UNL     1       7.474  25.703  55.420  1.00  0.00     0.068 A 
HETATM   11  C   UNL     1       8.150  24.558  54.969  1.00  0.00     0.095 A 
HETATM   12  C   UNL     1       8.797  23.705  55.872  1.00  0.00     0.039 A 
HETATM   13  C   UNL     1       8.723  23.941  57.241  1.00  0.00     0.003 A 
HETATM   14  C   UNL     1       8.005  25.036  57.710  1.00  0.00     0.002 A 
HETATM   15  C   UNL     1       7.384  25.907  56.806  1.00  0.00     0.032 A 
BRANCH  11  16
HETATM   16  O   UNL     1       8.202  24.187  53.655  1.00  0.00    -0.349 OA
BRANCH  16  17
HETATM   17  C   UNL     1       7.183  23.234  53.331  1.00  0.00     0.171 C 
HETATM   18  C   UNL     1       7.872  21.920  53.007  1.00  0.00     0.034 C 
ENDBRANCH  16  17
ENDBRANCH  11  16
ENDBRANCH   7  10
ENDBRANCH   1   6
BRANCH   5  19
HETATM   19  N   UNL     1       9.531  29.347  55.562  1.00  0.00    -0.382 N 
HETATM   20  H   UNL     1      10.394  29.087  56.051  1.00  0.00     0.157 HD
HETATM   21  H   UNL     1       9.701  30.070  54.861  1.00  0.00     0.157 HD
ENDBRANCH   5  19
BRANCH   4  22
HETATM   22  C   UNL     1       9.034  30.164  58.444  1.00  0.00     0.251 C 
BRANCH  22  23
HETATM   23  C   UNL     1       8.516  31.278  59.316  1.00  0.00     0.241 C 
HETATM   24  N   UNL     1       7.750  30.838  60.382  1.00  0.00    -0.326 N 
HETATM   25  H   UNL     1       7.350  29.908  60.315  1.00  0.00     0.169 HD
HETATM   26  O   UNL     1       8.781  32.451  59.058  1.00  0.00    -0.271 OA
BRANCH  24  27
HETATM   27  C   UNL     1       7.397  31.592  61.521  1.00  0.00     0.037 A 
HETATM   28  C   UNL     1       6.168  32.236  61.663  1.00  0.00     0.072 A 
HETATM   29  C   UNL     1       5.924  33.033  62.780  1.00  0.00     0.124 A 
HETATM   30  F   UNL     1       4.750  33.674  62.869  1.00  0.00    -0.205 F 
HETATM   31  C   UNL     1       6.879  33.192  63.787  1.00  0.00    -0.023 A 
HETATM   32  C   UNL     1       6.618  34.096  64.952  1.00  0.00     0.051 C 
HETATM   33  C   UNL     1       8.109  32.545  63.644  1.00  0.00     0.012 A 
HETATM   34  C   UNL     1       8.368  31.753  62.519  1.00  0.00     0.030 A 
ENDBRANCH  24  27
ENDBRANCH  22  23
ENDBRANCH   4  22
TORSDOF 8
ENDMDL
MODEL 10
REMARK VINA RESULT:      -8.7      2.892      8.752
REMARK  8 active torsions:
REMARK  status: ('A' for Active; 'I' for Inactive)
REMARK    1  A    between atoms: C_2  and  O_3 
REMARK    2  A    between atoms: O_3  and  C_4 
REMARK    3  A    between atoms: C_5  and  N_6 
REMARK       I    between atoms: N_6  and  C_7 
REMARK    4  A    between atoms: C_7  and  C_8 
REMARK    5  A    between atoms: N_11  and  C_12 
REMARK    6  A    between atoms: C_12  and  C_13 
REMARK       I    between atoms: C_13  and  N_14 
REMARK    7  A    between atoms: N_14  and  C_15 
REMARK    8  A    between atoms: C_24  and  N_25 
ROOT
HETATM    1  C   UNL     1       6.307  27.216  54.036  1.00  0.00     0.187 C 
HETATM    2  N   UNL     1       7.571  27.756  54.149  1.00  0.00    -0.150 NA
HETATM    3  N   UNL     1       7.497  28.828  54.926  1.00  0.00     0.007 NA
HETATM    4  N   UNL     1       6.200  28.995  55.252  1.00  0.00    -0.248 N 
HETATM    5  C   UNL     1       5.429  27.947  54.820  1.00  0.00     0.151 C 
ENDROOT
BRANCH   1   6
HETATM    6  C   UNL     1       5.995  26.052  53.231  1.00  0.00     0.280 C 
HETATM    7  N   UNL     1       6.167  24.785  53.745  1.00  0.00    -0.319 N 
HETATM    8  H   UNL     1       5.598  24.108  53.257  1.00  0.00     0.169 HD
HETATM    9  O   UNL     1       5.497  26.159  52.107  1.00  0.00    -0.265 OA
BRANCH   7  10
HETATM   10  C   UNL     1       7.043  24.275  54.729  1.00  0.00     0.068 A 
HETATM   11  C   UNL     1       8.119  23.401  54.513  1.00  0.00     0.095 A 
HETATM   12  C   UNL     1       8.919  22.971  55.581  1.00  0.00     0.039 A 
HETATM   13  C   UNL     1       8.615  23.349  56.885  1.00  0.00     0.003 A 
HETATM   14  C   UNL     1       7.515  24.165  57.124  1.00  0.00     0.002 A 
HETATM   15  C   UNL     1       6.734  24.620  56.054  1.00  0.00     0.032 A 
BRANCH  11  16
HETATM   16  O   UNL     1       8.443  22.898  53.285  1.00  0.00    -0.349 OA
BRANCH  16  17
HETATM   17  C   UNL     1       8.991  21.579  53.378  1.00  0.00     0.171 C 
HETATM   18  C   UNL     1       7.881  20.596  53.048  1.00  0.00     0.034 C 
ENDBRANCH  16  17
ENDBRANCH  11  16
ENDBRANCH   7  10
ENDBRANCH   1   6
BRANCH   5  19
HETATM   19  N   UNL     1       4.106  27.821  55.089  1.00  0.00    -0.382 N 
HETATM   20  H   UNL     1       3.390  28.336  54.567  1.00  0.00     0.157 HD
HETATM   21  H   UNL     1       3.823  27.664  56.058  1.00  0.00     0.157 HD
ENDBRANCH   5  19
BRANCH   4  22
HETATM   22  C   UNL     1       5.776  30.248  55.823  1.00  0.00     0.251 C 
BRANCH  22  23
HETATM   23  C   UNL     1       5.927  30.261  57.322  1.00  0.00     0.241 C 
HETATM   24  N   UNL     1       7.176  30.677  57.751  1.00  0.00    -0.326 N 
HETATM   25  H   UNL     1       7.938  30.626  57.081  1.00  0.00     0.169 HD
HETATM   26  O   UNL     1       4.994  29.925  58.049  1.00  0.00    -0.271 OA
BRANCH  24  27
HETATM   27  C   UNL     1       7.516  31.086  59.057  1.00  0.00     0.037 A 
HETATM   28  C   UNL     1       8.429  30.403  59.861  1.00  0.00     0.072 A 
HETATM   29  C   UNL     1       8.649  30.818  61.173  1.00  0.00     0.124 A 
HETATM   30  F   UNL     1       9.501  30.117  61.936  1.00  0.00    -0.205 F 
HETATM   31  C   UNL     1       7.989  31.926  61.709  1.00  0.00    -0.023 A 
HETATM   32  C   UNL     1       8.199  32.323  63.138  1.00  0.00     0.051 C 
HETATM   33  C   UNL     1       7.075  32.610  60.902  1.00  0.00     0.012 A 
HETATM   34  C   UNL     1       6.838  32.191  59.588  1.00  0.00     0.030 A 
ENDBRANCH  24  27
ENDBRANCH  22  23
ENDBRANCH   4  22
TORSDOF 8
ENDMDL
