MODEL 1
REMARK VINA RESULT:     -11.5      0.000      0.000
REMARK  9 active torsions:
REMARK  status: ('A' for Active; 'I' for Inactive)
REMARK    1  A    between atoms: N_2  and  C_4 
REMARK    2  A    between atoms: N_2  and  C_35 
REMARK    3  A    between atoms: C_4  and  C_5 
REMARK    4  A    between atoms: N_8  and  C_9 
REMARK    5  A    between atoms: C_12  and  N_13 
REMARK       I    between atoms: N_13  and  C_14 
REMARK       I    between atoms: C_14  and  N_15 
REMARK    6  A    between atoms: N_15  and  C_16 
REMARK    7  A    between atoms: C_19  and  O_20 
REMARK    8  A    between atoms: O_20  and  C_21 
REMARK    9  A    between atoms: C_35  and  C_36 
ROOT
HETATM    1  C   UNL     1       6.962  32.278  61.778  1.00  0.00     0.161 C 
HETATM    2  C   UNL     1       8.241  32.435  60.964  1.00  0.00     0.179 C 
HETATM    3  C   UNL     1       7.830  31.955  59.583  1.00  0.00     0.177 C 
HETATM    4  C   UNL     1       8.368  30.530  59.482  1.00  0.00     0.141 C 
HETATM    5  C   UNL     1       9.182  30.315  60.754  1.00  0.00     0.196 C 
HETATM    6  O   UNL     1       9.308  31.587  61.413  1.00  0.00    -0.379 OA
HETATM    7  O   UNL     1       6.393  31.953  59.514  1.00  0.00    -0.379 OA
HETATM    8  C   UNL     1       5.892  32.525  60.729  1.00  0.00     0.198 C 
ENDROOT
BRANCH   4   9
HETATM    9  N   UNL     1       9.059  30.259  58.228  1.00  0.00    -0.334 N 
HETATM   10  C   UNL     1       9.015  29.235  57.339  1.00  0.00     0.321 C 
HETATM   11  N   UNL     1       7.978  28.351  57.444  1.00  0.00    -0.309 N 
HETATM   12  O   UNL     1       9.914  29.209  56.504  1.00  0.00    -0.247 OA
HETATM   13  H   UNL     1       7.190  28.625  58.006  1.00  0.00     0.170 HD
HETATM   14  H   UNL     1       9.901  30.801  58.062  1.00  0.00     0.164 HD
BRANCH  11  15
HETATM   15  C   UNL     1       7.755  27.247  56.582  1.00  0.00     0.036 A 
HETATM   16  C   UNL     1       7.151  27.361  55.328  1.00  0.00     0.032 A 
HETATM   17  C   UNL     1       6.898  26.225  54.554  1.00  0.00     0.039 A 
HETATM   18  C   UNL     1       7.252  24.956  55.013  1.00  0.00     0.076 A 
HETATM   19  C   UNL     1       7.879  24.834  56.254  1.00  0.00     0.039 A 
HETATM   20  C   UNL     1       8.145  25.976  57.025  1.00  0.00     0.032 A 
BRANCH  18  21
HETATM   21  O   UNL     1       6.871  23.920  54.192  1.00  0.00    -0.311 OA
BRANCH  21  22
HETATM   22  C   UNL     1       7.448  22.689  54.354  1.00  0.00     0.076 A 
HETATM   23  C   UNL     1       8.178  22.168  53.286  1.00  0.00     0.037 A 
HETATM   24  C   UNL     1       8.862  20.961  53.436  1.00  0.00     0.003 A 
HETATM   25  C   UNL     1       8.825  20.288  54.658  1.00  0.00     0.000 A 
HETATM   26  C   UNL     1       8.110  20.823  55.732  1.00  0.00     0.003 A 
HETATM   27  C   UNL     1       7.429  22.032  55.585  1.00  0.00     0.037 A 
ENDBRANCH  21  22
ENDBRANCH  18  21
ENDBRANCH  11  15
ENDBRANCH   4   9
BRANCH   1  28
HETATM   28  N   UNL     1       6.858  33.136  62.932  1.00  0.00    -0.274 N 
HETATM   29  N   UNL     1       6.299  34.357  62.854  1.00  0.00     0.005 NA
HETATM   30  N   UNL     1       6.258  34.869  64.073  1.00  0.00    -0.161 NA
HETATM   31  C   UNL     1       6.794  33.952  64.938  1.00  0.00     0.095 A 
HETATM   32  C   UNL     1       7.179  32.836  64.228  1.00  0.00     0.139 A 
BRANCH  31  33
HETATM   33  C   UNL     1       6.857  34.253  66.390  1.00  0.00     0.296 C 
BRANCH  33  34
HETATM   34  N   UNL     1       5.577  33.924  67.133  1.00  0.00    -0.066 N 
HETATM   35  C   UNL     1       4.378  33.997  66.236  1.00  0.00     0.270 C 
HETATM   36  H   UNL     1       5.683  32.944  67.432  1.00  0.00     0.280 HD
BRANCH  34  37
HETATM   37  C   UNL     1       5.430  34.730  68.405  1.00  0.00     0.273 C 
BRANCH  37  38
HETATM   38  C   UNL     1       6.450  34.398  69.461  1.00  0.00    -0.033 A 
HETATM   39  C   UNL     1       7.594  35.194  69.629  1.00  0.00     0.009 A 
HETATM   40  C   UNL     1       8.551  34.859  70.589  1.00  0.00     0.001 A 
HETATM   41  C   UNL     1       8.374  33.734  71.391  1.00  0.00     0.000 A 
HETATM   42  C   UNL     1       7.239  32.942  71.241  1.00  0.00     0.001 A 
HETATM   43  C   UNL     1       6.280  33.271  70.281  1.00  0.00     0.009 A 
ENDBRANCH  37  38
ENDBRANCH  34  37
ENDBRANCH  33  34
ENDBRANCH  31  33
ENDBRANCH   1  28
TORSDOF 9
ENDMDL
MODEL 2
REMARK VINA RESULT:     -11.4      2.145     14.122
REMARK  9 active torsions:
REMARK  status: ('A' for Active; 'I' for Inactive)
REMARK    1  A    between atoms: N_2  and  C_4 
REMARK    2  A    between atoms: N_2  and  C_35 
REMARK    3  A    between atoms: C_4  and  C_5 
REMARK    4  A    between atoms: N_8  and  C_9 
REMARK    5  A    between atoms: C_12  and  N_13 
REMARK       I    between atoms: N_13  and  C_14 
REMARK       I    between atoms: C_14  and  N_15 
REMARK    6  A    between atoms: N_15  and  C_16 
REMARK    7  A    between atoms: C_19  and  O_20 
REMARK    8  A    between atoms: O_20  and  C_21 
REMARK    9  A    between atoms: C_35  and  C_36 
ROOT
HETATM    1  C   UNL     1       6.511  29.912  58.060  1.00  0.00     0.161 C 
HETATM    2  C   UNL     1       6.099  31.365  57.853  1.00  0.00     0.179 C 
HETATM    3  C   UNL     1       6.706  32.068  59.055  1.00  0.00     0.177 C 
HETATM    4  C   UNL     1       5.547  32.255  60.031  1.00  0.00     0.141 C 
HETATM    5  C   UNL     1       4.307  31.779  59.280  1.00  0.00     0.196 C 
HETATM    6  O   UNL     1       4.680  31.567  57.908  1.00  0.00    -0.379 OA
HETATM    7  O   UNL     1       7.706  31.206  59.627  1.00  0.00    -0.379 OA
HETATM    8  C   UNL     1       7.844  30.063  58.773  1.00  0.00     0.198 C 
ENDROOT
BRANCH   4   9
HETATM    9  N   UNL     1       5.474  33.597  60.594  1.00  0.00    -0.334 N 
HETATM   10  C   UNL     1       5.384  34.074  61.862  1.00  0.00     0.321 C 
HETATM   11  N   UNL     1       5.637  33.204  62.885  1.00  0.00    -0.309 N 
HETATM   12  O   UNL     1       5.097  35.263  61.969  1.00  0.00    -0.247 OA
HETATM   13  H   UNL     1       6.095  32.339  62.655  1.00  0.00     0.170 HD
HETATM   14  H   UNL     1       5.216  34.335  59.947  1.00  0.00     0.164 HD
BRANCH  11  15
HETATM   15  C   UNL     1       5.623  33.538  64.263  1.00  0.00     0.036 A 
HETATM   16  C   UNL     1       4.451  33.732  64.996  1.00  0.00     0.032 A 
HETATM   17  C   UNL     1       4.505  34.127  66.335  1.00  0.00     0.039 A 
HETATM   18  C   UNL     1       5.731  34.326  66.970  1.00  0.00     0.076 A 
HETATM   19  C   UNL     1       6.909  34.112  66.254  1.00  0.00     0.039 A 
HETATM   20  C   UNL     1       6.854  33.703  64.913  1.00  0.00     0.032 A 
BRANCH  18  21
HETATM   21  O   UNL     1       5.641  34.794  68.261  1.00  0.00    -0.311 OA
BRANCH  21  22
HETATM   22  C   UNL     1       6.501  34.311  69.211  1.00  0.00     0.076 A 
HETATM   23  C   UNL     1       7.640  35.063  69.499  1.00  0.00     0.037 A 
HETATM   24  C   UNL     1       8.496  34.660  70.524  1.00  0.00     0.003 A 
HETATM   25  C   UNL     1       8.203  33.516  71.265  1.00  0.00     0.000 A 
HETATM   26  C   UNL     1       7.051  32.776  70.988  1.00  0.00     0.003 A 
HETATM   27  C   UNL     1       6.191  33.179  69.966  1.00  0.00     0.037 A 
ENDBRANCH  21  22
ENDBRANCH  18  21
ENDBRANCH  11  15
ENDBRANCH   4   9
BRANCH   1  28
HETATM   28  N   UNL     1       6.577  29.114  56.861  1.00  0.00    -0.274 N 
HETATM   29  N   UNL     1       6.013  29.525  55.711  1.00  0.00     0.005 NA
HETATM   30  N   UNL     1       6.309  28.642  54.770  1.00  0.00    -0.161 NA
HETATM   31  C   UNL     1       7.081  27.662  55.335  1.00  0.00     0.095 A 
HETATM   32  C   UNL     1       7.266  27.947  56.669  1.00  0.00     0.139 A 
BRANCH  31  33
HETATM   33  C   UNL     1       7.583  26.542  54.499  1.00  0.00     0.296 C 
BRANCH  33  34
HETATM   34  N   UNL     1       6.746  25.282  54.610  1.00  0.00    -0.066 N 
HETATM   35  C   UNL     1       5.307  25.592  54.894  1.00  0.00     0.270 C 
HETATM   36  H   UNL     1       6.792  24.845  53.678  1.00  0.00     0.280 HD
BRANCH  34  37
HETATM   37  C   UNL     1       7.349  24.277  55.567  1.00  0.00     0.273 C 
BRANCH  37  38
HETATM   38  C   UNL     1       7.594  22.923  54.958  1.00  0.00    -0.033 A 
HETATM   39  C   UNL     1       7.717  21.783  55.768  1.00  0.00     0.009 A 
HETATM   40  C   UNL     1       7.978  20.537  55.196  1.00  0.00     0.001 A 
HETATM   41  C   UNL     1       8.111  20.414  53.815  1.00  0.00     0.000 A 
HETATM   42  C   UNL     1       7.981  21.536  53.000  1.00  0.00     0.001 A 
HETATM   43  C   UNL     1       7.723  22.785  53.566  1.00  0.00     0.009 A 
ENDBRANCH  37  38
ENDBRANCH  34  37
ENDBRANCH  33  34
ENDBRANCH  31  33
ENDBRANCH   1  28
TORSDOF 9
ENDMDL
MODEL 3
REMARK VINA RESULT:     -11.3      3.654      5.808
REMARK  9 active torsions:
REMARK  status: ('A' for Active; 'I' for Inactive)
REMARK    1  A    between atoms: N_2  and  C_4 
REMARK    2  A    between atoms: N_2  and  C_35 
REMARK    3  A    between atoms: C_4  and  C_5 
REMARK    4  A    between atoms: N_8  and  C_9 
REMARK    5  A    between atoms: C_12  and  N_13 
REMARK       I    between atoms: N_13  and  C_14 
REMARK       I    between atoms: C_14  and  N_15 
REMARK    6  A    between atoms: N_15  and  C_16 
REMARK    7  A    between atoms: C_19  and  O_20 
REMARK    8  A    between atoms: O_20  and  C_21 
REMARK    9  A    between atoms: C_35  and  C_36 
ROOT
HETATM    1  C   UNL     1       4.366  31.517  57.589  1.00  0.00     0.161 C 
HETATM    2  C   UNL     1       3.269  30.706  56.910  1.00  0.00     0.179 C 
HETATM    3  C   UNL     1       4.037  29.864  55.906  1.00  0.00     0.177 C 
HETATM    4  C   UNL     1       3.845  30.571  54.567  1.00  0.00     0.141 C 
HETATM    5  C   UNL     1       2.861  31.702  54.845  1.00  0.00     0.196 C 
HETATM    6  O   UNL     1       2.340  31.512  56.172  1.00  0.00    -0.379 OA
HETATM    7  O   UNL     1       5.427  29.869  56.279  1.00  0.00    -0.379 OA
HETATM    8  C   UNL     1       5.545  30.561  57.529  1.00  0.00     0.198 C 
ENDROOT
BRANCH   4   9
HETATM    9  N   UNL     1       3.488  29.668  53.480  1.00  0.00    -0.334 N 
HETATM   10  C   UNL     1       4.063  28.551  52.966  1.00  0.00     0.321 C 
HETATM   11  N   UNL     1       5.052  27.955  53.697  1.00  0.00    -0.309 N 
HETATM   12  O   UNL     1       3.623  28.169  51.886  1.00  0.00    -0.247 OA
HETATM   13  H   UNL     1       5.141  28.224  54.662  1.00  0.00     0.170 HD
HETATM   14  H   UNL     1       2.811  30.025  52.813  1.00  0.00     0.164 HD
BRANCH  11  15
HETATM   15  C   UNL     1       5.734  26.767  53.331  1.00  0.00     0.036 A 
HETATM   16  C   UNL     1       5.101  25.531  53.182  1.00  0.00     0.032 A 
HETATM   17  C   UNL     1       5.841  24.383  52.886  1.00  0.00     0.039 A 
HETATM   18  C   UNL     1       7.225  24.449  52.725  1.00  0.00     0.076 A 
HETATM   19  C   UNL     1       7.864  25.683  52.848  1.00  0.00     0.039 A 
HETATM   20  C   UNL     1       7.120  26.838  53.132  1.00  0.00     0.032 A 
BRANCH  18  21
HETATM   21  O   UNL     1       7.838  23.235  52.520  1.00  0.00    -0.311 OA
BRANCH  21  22
HETATM   22  C   UNL     1       7.987  22.373  53.574  1.00  0.00     0.076 A 
HETATM   23  C   UNL     1       8.136  21.016  53.286  1.00  0.00     0.037 A 
HETATM   24  C   UNL     1       8.385  20.111  54.319  1.00  0.00     0.003 A 
HETATM   25  C   UNL     1       8.498  20.569  55.632  1.00  0.00     0.000 A 
HETATM   26  C   UNL     1       8.369  21.931  55.913  1.00  0.00     0.003 A 
HETATM   27  C   UNL     1       8.124  22.838  54.882  1.00  0.00     0.037 A 
ENDBRANCH  21  22
ENDBRANCH  18  21
ENDBRANCH  11  15
ENDBRANCH   4   9
BRANCH   1  28
HETATM   28  N   UNL     1       4.056  31.979  58.919  1.00  0.00    -0.274 N 
HETATM   29  N   UNL     1       3.074  31.419  59.648  1.00  0.00     0.005 NA
HETATM   30  N   UNL     1       3.080  31.980  60.847  1.00  0.00    -0.161 NA
HETATM   31  C   UNL     1       4.090  32.905  60.877  1.00  0.00     0.095 A 
HETATM   32  C   UNL     1       4.728  32.916  59.657  1.00  0.00     0.139 A 
BRANCH  31  33
HETATM   33  C   UNL     1       4.346  33.679  62.118  1.00  0.00     0.296 C 
BRANCH  33  34
HETATM   34  N   UNL     1       5.453  33.098  62.976  1.00  0.00    -0.066 N 
HETATM   35  C   UNL     1       5.145  33.216  64.439  1.00  0.00     0.270 C 
HETATM   36  H   UNL     1       5.477  32.095  62.743  1.00  0.00     0.280 HD
BRANCH  34  37
HETATM   37  C   UNL     1       6.814  33.642  62.599  1.00  0.00     0.273 C 
BRANCH  37  38
HETATM   38  C   UNL     1       7.746  32.612  62.021  1.00  0.00    -0.033 A 
HETATM   39  C   UNL     1       8.267  32.762  60.726  1.00  0.00     0.009 A 
HETATM   40  C   UNL     1       9.104  31.783  60.186  1.00  0.00     0.001 A 
HETATM   41  C   UNL     1       9.434  30.654  60.931  1.00  0.00     0.000 A 
HETATM   42  C   UNL     1       8.931  30.499  62.221  1.00  0.00     0.001 A 
HETATM   43  C   UNL     1       8.092  31.472  62.765  1.00  0.00     0.009 A 
ENDBRANCH  37  38
ENDBRANCH  34  37
ENDBRANCH  33  34
ENDBRANCH  31  33
ENDBRANCH   1  28
TORSDOF 9
ENDMDL
MODEL 4
REMARK VINA RESULT:     -11.1      1.740      2.629
REMARK  9 active torsions:
REMARK  status: ('A' for Active; 'I' for Inactive)
REMARK    1  A    between atoms: N_2  and  C_4 
REMARK    2  A    between atoms: N_2  and  C_35 
REMARK    3  A    between atoms: C_4  and  C_5 
REMARK    4  A    between atoms: N_8  and  C_9 
REMARK    5  A    between atoms: C_12  and  N_13 
REMARK       I    between atoms: N_13  and  C_14 
REMARK       I    between atoms: C_14  and  N_15 
REMARK    6  A    between atoms: N_15  and  C_16 
REMARK    7  A    between atoms: C_19  and  O_20 
REMARK    8  A    between atoms: O_20  and  C_21 
REMARK    9  A    between atoms: C_35  and  C_36 
ROOT
HETATM    1  C   UNL     1       5.870  32.472  63.401  1.00  0.00     0.161 C 
HETATM    2  C   UNL     1       7.075  32.998  62.629  1.00  0.00     0.179 C 
HETATM    3  C   UNL     1       6.826  32.490  61.219  1.00  0.00     0.177 C 
HETATM    4  C   UNL     1       7.724  31.264  61.076  1.00  0.00     0.141 C 
HETATM    5  C   UNL     1       8.547  31.214  62.359  1.00  0.00     0.196 C 
HETATM    6  O   UNL     1       8.321  32.443  63.072  1.00  0.00    -0.379 OA
HETATM    7  O   UNL     1       5.443  32.111  61.112  1.00  0.00    -0.379 OA
HETATM    8  C   UNL     1       4.789  32.474  62.335  1.00  0.00     0.198 C 
ENDROOT
BRANCH   4   9
HETATM    9  N   UNL     1       8.482  31.243  59.832  1.00  0.00    -0.334 N 
HETATM   10  C   UNL     1       8.391  30.509  58.694  1.00  0.00     0.321 C 
HETATM   11  N   UNL     1       7.249  29.782  58.501  1.00  0.00    -0.309 N 
HETATM   12  O   UNL     1       9.348  30.581  57.928  1.00  0.00    -0.247 OA
HETATM   13  H   UNL     1       6.455  30.003  59.077  1.00  0.00     0.170 HD
HETATM   14  H   UNL     1       9.395  31.687  59.862  1.00  0.00     0.164 HD
BRANCH  11  15
HETATM   15  C   UNL     1       6.970  28.990  57.358  1.00  0.00     0.036 A 
HETATM   16  C   UNL     1       7.941  28.608  56.431  1.00  0.00     0.032 A 
HETATM   17  C   UNL     1       7.589  27.884  55.289  1.00  0.00     0.039 A 
HETATM   18  C   UNL     1       6.263  27.519  55.057  1.00  0.00     0.076 A 
HETATM   19  C   UNL     1       5.288  27.874  55.989  1.00  0.00     0.039 A 
HETATM   20  C   UNL     1       5.644  28.589  57.143  1.00  0.00     0.032 A 
BRANCH  18  21
HETATM   21  O   UNL     1       6.043  26.883  53.856  1.00  0.00    -0.311 OA
BRANCH  21  22
HETATM   22  C   UNL     1       6.596  25.648  53.641  1.00  0.00     0.076 A 
HETATM   23  C   UNL     1       7.322  25.458  52.465  1.00  0.00     0.037 A 
HETATM   24  C   UNL     1       7.982  24.249  52.244  1.00  0.00     0.003 A 
HETATM   25  C   UNL     1       7.925  23.241  53.207  1.00  0.00     0.000 A 
HETATM   26  C   UNL     1       7.215  23.442  54.393  1.00  0.00     0.003 A 
HETATM   27  C   UNL     1       6.557  24.652  54.616  1.00  0.00     0.037 A 
ENDBRANCH  21  22
ENDBRANCH  18  21
ENDBRANCH  11  15
ENDBRANCH   4   9
BRANCH   1  28
HETATM   28  N   UNL     1       5.525  33.218  64.586  1.00  0.00    -0.274 N 
HETATM   29  N   UNL     1       4.244  33.398  64.955  1.00  0.00     0.005 NA
HETATM   30  N   UNL     1       4.237  34.033  66.116  1.00  0.00    -0.161 NA
HETATM   31  C   UNL     1       5.536  34.249  66.490  1.00  0.00     0.095 A 
HETATM   32  C   UNL     1       6.374  33.731  65.528  1.00  0.00     0.139 A 
BRANCH  31  33
HETATM   33  C   UNL     1       5.832  34.930  67.777  1.00  0.00     0.296 C 
BRANCH  33  34
HETATM   34  N   UNL     1       6.626  34.074  68.745  1.00  0.00    -0.066 N 
HETATM   35  C   UNL     1       5.863  33.810  70.008  1.00  0.00     0.270 C 
HETATM   36  H   UNL     1       6.754  33.172  68.264  1.00  0.00     0.280 HD
BRANCH  34  37
HETATM   37  C   UNL     1       8.018  34.619  68.982  1.00  0.00     0.273 C 
BRANCH  37  38
HETATM   38  C   UNL     1       8.168  35.369  70.278  1.00  0.00    -0.033 A 
HETATM   39  C   UNL     1       7.824  36.727  70.364  1.00  0.00     0.009 A 
HETATM   40  C   UNL     1       7.998  37.423  71.563  1.00  0.00     0.001 A 
HETATM   41  C   UNL     1       8.509  36.772  72.683  1.00  0.00     0.000 A 
HETATM   42  C   UNL     1       8.845  35.423  72.612  1.00  0.00     0.001 A 
HETATM   43  C   UNL     1       8.676  34.723  71.416  1.00  0.00     0.009 A 
ENDBRANCH  37  38
ENDBRANCH  34  37
ENDBRANCH  33  34
ENDBRANCH  31  33
ENDBRANCH   1  28
TORSDOF 9
ENDMDL
MODEL 5
REMARK VINA RESULT:     -11.1      3.362      5.139
REMARK  9 active torsions:
REMARK  status: ('A' for Active; 'I' for Inactive)
REMARK    1  A    between atoms: N_2  and  C_4 
REMARK    2  A    between atoms: N_2  and  C_35 
REMARK    3  A    between atoms: C_4  and  C_5 
REMARK    4  A    between atoms: N_8  and  C_9 
REMARK    5  A    between atoms: C_12  and  N_13 
REMARK       I    between atoms: N_13  and  C_14 
REMARK       I    between atoms: C_14  and  N_15 
REMARK    6  A    between atoms: N_15  and  C_16 
REMARK    7  A    between atoms: C_19  and  O_20 
REMARK    8  A    between atoms: O_20  and  C_21 
REMARK    9  A    between atoms: C_35  and  C_36 
ROOT
HETATM    1  C   UNL     1       3.929  32.766  57.866  1.00  0.00     0.161 C 
HETATM    2  C   UNL     1       4.766  31.504  57.693  1.00  0.00     0.179 C 
HETATM    3  C   UNL     1       5.226  31.593  56.248  1.00  0.00     0.177 C 
HETATM    4  C   UNL     1       4.302  30.652  55.479  1.00  0.00     0.141 C 
HETATM    5  C   UNL     1       3.451  29.964  56.542  1.00  0.00     0.196 C 
HETATM    6  O   UNL     1       4.005  30.295  57.828  1.00  0.00    -0.379 OA
HETATM    7  O   UNL     1       5.046  32.948  55.799  1.00  0.00    -0.379 OA
HETATM    8  C   UNL     1       4.621  33.732  56.920  1.00  0.00     0.198 C 
ENDROOT
BRANCH   4   9
HETATM    9  N   UNL     1       5.007  29.771  54.558  1.00  0.00    -0.334 N 
HETATM   10  C   UNL     1       5.767  28.659  54.726  1.00  0.00     0.321 C 
HETATM   11  N   UNL     1       5.725  28.042  55.945  1.00  0.00    -0.309 N 
HETATM   12  O   UNL     1       6.416  28.298  53.748  1.00  0.00    -0.247 OA
HETATM   13  H   UNL     1       4.975  28.295  56.566  1.00  0.00     0.170 HD
HETATM   14  H   UNL     1       5.174  30.145  53.629  1.00  0.00     0.164 HD
BRANCH  11  15
HETATM   15  C   UNL     1       6.423  26.856  56.284  1.00  0.00     0.036 A 
HETATM   16  C   UNL     1       7.701  26.850  56.847  1.00  0.00     0.032 A 
HETATM   17  C   UNL     1       8.364  25.646  57.096  1.00  0.00     0.039 A 
HETATM   18  C   UNL     1       7.760  24.425  56.797  1.00  0.00     0.076 A 
HETATM   19  C   UNL     1       6.473  24.418  56.257  1.00  0.00     0.039 A 
HETATM   20  C   UNL     1       5.803  25.627  56.020  1.00  0.00     0.032 A 
BRANCH  18  21
HETATM   21  O   UNL     1       8.554  23.322  57.013  1.00  0.00    -0.311 OA
BRANCH  21  22
HETATM   22  C   UNL     1       8.649  22.362  56.039  1.00  0.00     0.076 A 
HETATM   23  C   UNL     1       8.403  21.039  56.406  1.00  0.00     0.037 A 
HETATM   24  C   UNL     1       8.395  20.040  55.432  1.00  0.00     0.003 A 
HETATM   25  C   UNL     1       8.618  20.370  54.095  1.00  0.00     0.000 A 
HETATM   26  C   UNL     1       8.843  21.699  53.729  1.00  0.00     0.003 A 
HETATM   27  C   UNL     1       8.848  22.700  54.700  1.00  0.00     0.037 A 
ENDBRANCH  21  22
ENDBRANCH  18  21
ENDBRANCH  11  15
ENDBRANCH   4   9
BRANCH   1  28
HETATM   28  N   UNL     1       3.819  33.251  59.219  1.00  0.00    -0.274 N 
HETATM   29  N   UNL     1       2.699  33.069  59.942  1.00  0.00     0.005 NA
HETATM   30  N   UNL     1       2.919  33.531  61.163  1.00  0.00    -0.161 NA
HETATM   31  C   UNL     1       4.203  34.006  61.213  1.00  0.00     0.095 A 
HETATM   32  C   UNL     1       4.796  33.831  59.982  1.00  0.00     0.139 A 
BRANCH  31  33
HETATM   33  C   UNL     1       4.734  34.569  62.480  1.00  0.00     0.296 C 
BRANCH  33  34
HETATM   34  N   UNL     1       5.377  33.532  63.381  1.00  0.00    -0.066 N 
HETATM   35  C   UNL     1       4.717  33.478  64.726  1.00  0.00     0.270 C 
HETATM   36  H   UNL     1       5.209  32.629  62.915  1.00  0.00     0.280 HD
BRANCH  34  37
HETATM   37  C   UNL     1       6.880  33.688  63.451  1.00  0.00     0.273 C 
BRANCH  37  38
HETATM   38  C   UNL     1       7.638  32.689  62.618  1.00  0.00    -0.033 A 
HETATM   39  C   UNL     1       8.026  31.453  63.159  1.00  0.00     0.009 A 
HETATM   40  C   UNL     1       8.757  30.546  62.389  1.00  0.00     0.001 A 
HETATM   41  C   UNL     1       9.101  30.858  61.076  1.00  0.00     0.000 A 
HETATM   42  C   UNL     1       8.712  32.077  60.526  1.00  0.00     0.001 A 
HETATM   43  C   UNL     1       7.984  32.989  61.291  1.00  0.00     0.009 A 
ENDBRANCH  37  38
ENDBRANCH  34  37
ENDBRANCH  33  34
ENDBRANCH  31  33
ENDBRANCH   1  28
TORSDOF 9
ENDMDL
MODEL 6
REMARK VINA RESULT:     -10.5      3.277     13.959
REMARK  9 active torsions:
REMARK  status: ('A' for Active; 'I' for Inactive)
REMARK    1  A    between atoms: N_2  and  C_4 
REMARK    2  A    between atoms: N_2  and  C_35 
REMARK    3  A    between atoms: C_4  and  C_5 
REMARK    4  A    between atoms: N_8  and  C_9 
REMARK    5  A    between atoms: C_12  and  N_13 
REMARK       I    between atoms: N_13  and  C_14 
REMARK       I    between atoms: C_14  and  N_15 
REMARK    6  A    between atoms: N_15  and  C_16 
REMARK    7  A    between atoms: C_19  and  O_20 
REMARK    8  A    between atoms: O_20  and  C_21 
REMARK    9  A    between atoms: C_35  and  C_36 
ROOT
HETATM    1  C   UNL     1       4.723  29.725  54.474  1.00  0.00     0.161 C 
HETATM    2  C   UNL     1       4.130  29.187  55.771  1.00  0.00     0.179 C 
HETATM    3  C   UNL     1       3.367  30.380  56.320  1.00  0.00     0.177 C 
HETATM    4  C   UNL     1       4.273  30.967  57.400  1.00  0.00     0.141 C 
HETATM    5  C   UNL     1       5.445  29.997  57.514  1.00  0.00     0.196 C 
HETATM    6  O   UNL     1       5.121  28.826  56.744  1.00  0.00    -0.379 OA
HETATM    7  O   UNL     1       3.182  31.328  55.254  1.00  0.00    -0.379 OA
HETATM    8  C   UNL     1       3.673  30.735  54.046  1.00  0.00     0.198 C 
ENDROOT
BRANCH   4   9
HETATM    9  N   UNL     1       3.573  31.270  58.642  1.00  0.00    -0.334 N 
HETATM   10  C   UNL     1       3.982  31.693  59.865  1.00  0.00     0.321 C 
HETATM   11  N   UNL     1       5.256  32.174  59.975  1.00  0.00    -0.309 N 
HETATM   12  O   UNL     1       3.150  31.617  60.765  1.00  0.00    -0.247 OA
HETATM   13  H   UNL     1       5.738  32.407  59.123  1.00  0.00     0.170 HD
HETATM   14  H   UNL     1       2.632  30.898  58.721  1.00  0.00     0.164 HD
BRANCH  11  15
HETATM   15  C   UNL     1       5.835  32.688  61.163  1.00  0.00     0.036 A 
HETATM   16  C   UNL     1       6.604  31.919  62.039  1.00  0.00     0.032 A 
HETATM   17  C   UNL     1       7.090  32.467  63.228  1.00  0.00     0.039 A 
HETATM   18  C   UNL     1       6.826  33.796  63.561  1.00  0.00     0.076 A 
HETATM   19  C   UNL     1       6.080  34.580  62.681  1.00  0.00     0.039 A 
HETATM   20  C   UNL     1       5.603  34.033  61.480  1.00  0.00     0.032 A 
BRANCH  18  21
HETATM   21  O   UNL     1       7.292  34.183  64.797  1.00  0.00    -0.311 OA
BRANCH  21  22
HETATM   22  C   UNL     1       6.462  34.094  65.884  1.00  0.00     0.076 A 
HETATM   23  C   UNL     1       7.038  34.204  67.150  1.00  0.00     0.037 A 
HETATM   24  C   UNL     1       6.224  34.213  68.283  1.00  0.00     0.003 A 
HETATM   25  C   UNL     1       4.838  34.128  68.144  1.00  0.00     0.000 A 
HETATM   26  C   UNL     1       4.264  34.039  66.874  1.00  0.00     0.003 A 
HETATM   27  C   UNL     1       5.076  34.033  65.740  1.00  0.00     0.037 A 
ENDBRANCH  21  22
ENDBRANCH  18  21
ENDBRANCH  11  15
ENDBRANCH   4   9
BRANCH   1  28
HETATM   28  N   UNL     1       5.020  28.730  53.474  1.00  0.00    -0.274 N 
HETATM   29  N   UNL     1       4.618  28.873  52.198  1.00  0.00     0.005 NA
HETATM   30  N   UNL     1       5.108  27.863  51.497  1.00  0.00    -0.161 NA
HETATM   31  C   UNL     1       5.839  27.073  52.344  1.00  0.00     0.095 A 
HETATM   32  C   UNL     1       5.799  27.613  53.611  1.00  0.00     0.139 A 
BRANCH  31  33
HETATM   33  C   UNL     1       6.530  25.868  51.820  1.00  0.00     0.296 C 
BRANCH  33  34
HETATM   34  N   UNL     1       6.186  24.597  52.574  1.00  0.00    -0.066 N 
HETATM   35  C   UNL     1       4.716  24.498  52.854  1.00  0.00     0.270 C 
HETATM   36  H   UNL     1       6.433  23.829  51.934  1.00  0.00     0.280 HD
BRANCH  34  37
HETATM   37  C   UNL     1       7.050  24.408  53.801  1.00  0.00     0.273 C 
BRANCH  37  38
HETATM   38  C   UNL     1       7.490  22.986  54.025  1.00  0.00    -0.033 A 
HETATM   39  C   UNL     1       7.873  22.176  52.945  1.00  0.00     0.009 A 
HETATM   40  C   UNL     1       8.249  20.848  53.160  1.00  0.00     0.001 A 
HETATM   41  C   UNL     1       8.252  20.320  54.448  1.00  0.00     0.000 A 
HETATM   42  C   UNL     1       7.883  21.117  55.529  1.00  0.00     0.001 A 
HETATM   43  C   UNL     1       7.504  22.444  55.321  1.00  0.00     0.009 A 
ENDBRANCH  37  38
ENDBRANCH  34  37
ENDBRANCH  33  34
ENDBRANCH  31  33
ENDBRANCH   1  28
TORSDOF 9
ENDMDL
MODEL 7
REMARK VINA RESULT:     -10.5      4.831      7.290
REMARK  9 active torsions:
REMARK  status: ('A' for Active; 'I' for Inactive)
REMARK    1  A    between atoms: N_2  and  C_4 
REMARK    2  A    between atoms: N_2  and  C_35 
REMARK    3  A    between atoms: C_4  and  C_5 
REMARK    4  A    between atoms: N_8  and  C_9 
REMARK    5  A    between atoms: C_12  and  N_13 
REMARK       I    between atoms: N_13  and  C_14 
REMARK       I    between atoms: C_14  and  N_15 
REMARK    6  A    between atoms: N_15  and  C_16 
REMARK    7  A    between atoms: C_19  and  O_20 
REMARK    8  A    between atoms: O_20  and  C_21 
REMARK    9  A    between atoms: C_35  and  C_36 
ROOT
HETATM    1  C   UNL     1       4.487  32.056  56.565  1.00  0.00     0.161 C 
HETATM    2  C   UNL     1       5.054  30.852  55.822  1.00  0.00     0.179 C 
HETATM    3  C   UNL     1       4.646  31.114  54.383  1.00  0.00     0.177 C 
HETATM    4  C   UNL     1       3.425  30.229  54.149  1.00  0.00     0.141 C 
HETATM    5  C   UNL     1       3.281  29.398  55.420  1.00  0.00     0.196 C 
HETATM    6  O   UNL     1       4.460  29.608  56.217  1.00  0.00    -0.379 OA
HETATM    7  O   UNL     1       4.287  32.502  54.260  1.00  0.00    -0.379 OA
HETATM    8  C   UNL     1       4.572  33.144  55.509  1.00  0.00     0.198 C 
ENDROOT
BRANCH   4   9
HETATM    9  N   UNL     1       3.482  29.479  52.901  1.00  0.00    -0.334 N 
HETATM   10  C   UNL     1       4.212  28.414  52.483  1.00  0.00     0.321 C 
HETATM   11  N   UNL     1       4.884  27.696  53.433  1.00  0.00    -0.309 N 
HETATM   12  O   UNL     1       4.185  28.183  51.278  1.00  0.00    -0.247 OA
HETATM   13  H   UNL     1       4.625  27.842  54.394  1.00  0.00     0.170 HD
HETATM   14  H   UNL     1       3.081  29.940  52.090  1.00  0.00     0.164 HD
BRANCH  11  15
HETATM   15  C   UNL     1       5.662  26.538  53.181  1.00  0.00     0.036 A 
HETATM   16  C   UNL     1       5.120  25.257  53.067  1.00  0.00     0.032 A 
HETATM   17  C   UNL     1       5.948  24.146  52.887  1.00  0.00     0.039 A 
HETATM   18  C   UNL     1       7.333  24.295  52.808  1.00  0.00     0.076 A 
HETATM   19  C   UNL     1       7.884  25.573  52.896  1.00  0.00     0.039 A 
HETATM   20  C   UNL     1       7.051  26.690  53.064  1.00  0.00     0.032 A 
BRANCH  18  21
HETATM   21  O   UNL     1       8.033  23.114  52.714  1.00  0.00    -0.311 OA
BRANCH  21  22
HETATM   22  C   UNL     1       8.132  22.304  53.814  1.00  0.00     0.076 A 
HETATM   23  C   UNL     1       8.245  20.930  53.600  1.00  0.00     0.037 A 
HETATM   24  C   UNL     1       8.441  20.073  54.683  1.00  0.00     0.003 A 
HETATM   25  C   UNL     1       8.539  20.595  55.974  1.00  0.00     0.000 A 
HETATM   26  C   UNL     1       8.446  21.973  56.182  1.00  0.00     0.003 A 
HETATM   27  C   UNL     1       8.253  22.832  55.100  1.00  0.00     0.037 A 
ENDBRANCH  21  22
ENDBRANCH  18  21
ENDBRANCH  11  15
ENDBRANCH   4   9
BRANCH   1  28
HETATM   28  N   UNL     1       5.153  32.387  57.800  1.00  0.00    -0.274 N 
HETATM   29  N   UNL     1       5.213  33.653  58.251  1.00  0.00     0.005 NA
HETATM   30  N   UNL     1       5.797  33.640  59.438  1.00  0.00    -0.161 NA
HETATM   31  C   UNL     1       6.104  32.341  59.746  1.00  0.00     0.095 A 
HETATM   32  C   UNL     1       5.696  31.525  58.714  1.00  0.00     0.139 A 
BRANCH  31  33
HETATM   33  C   UNL     1       6.753  32.022  61.043  1.00  0.00     0.296 C 
BRANCH  33  34
HETATM   34  N   UNL     1       7.900  31.037  60.920  1.00  0.00    -0.066 N 
HETATM   35  C   UNL     1       8.361  30.548  62.260  1.00  0.00     0.270 C 
HETATM   36  H   UNL     1       7.508  30.231  60.412  1.00  0.00     0.280 HD
BRANCH  34  37
HETATM   37  C   UNL     1       9.020  31.568  60.052  1.00  0.00     0.273 C 
BRANCH  37  38
HETATM   38  C   UNL     1       9.311  30.720  58.843  1.00  0.00    -0.033 A 
HETATM   39  C   UNL     1       8.482  29.637  58.510  1.00  0.00     0.009 A 
HETATM   40  C   UNL     1       8.779  28.837  57.405  1.00  0.00     0.001 A 
HETATM   41  C   UNL     1       9.897  29.111  56.621  1.00  0.00     0.000 A 
HETATM   42  C   UNL     1      10.721  30.189  56.935  1.00  0.00     0.001 A 
HETATM   43  C   UNL     1      10.431  30.991  58.040  1.00  0.00     0.009 A 
ENDBRANCH  37  38
ENDBRANCH  34  37
ENDBRANCH  33  34
ENDBRANCH  31  33
ENDBRANCH   1  28
TORSDOF 9
ENDMDL
MODEL 8
REMARK VINA RESULT:     -10.5      3.343      4.471
REMARK  9 active torsions:
REMARK  status: ('A' for Active; 'I' for Inactive)
REMARK    1  A    between atoms: N_2  and  C_4 
REMARK    2  A    between atoms: N_2  and  C_35 
REMARK    3  A    between atoms: C_4  and  C_5 
REMARK    4  A    between atoms: N_8  and  C_9 
REMARK    5  A    between atoms: C_12  and  N_13 
REMARK       I    between atoms: N_13  and  C_14 
REMARK       I    between atoms: C_14  and  N_15 
REMARK    6  A    between atoms: N_15  and  C_16 
REMARK    7  A    between atoms: C_19  and  O_20 
REMARK    8  A    between atoms: O_20  and  C_21 
REMARK    9  A    between atoms: C_35  and  C_36 
ROOT
HETATM    1  C   UNL     1       6.185  32.513  61.370  1.00  0.00     0.161 C 
HETATM    2  C   UNL     1       7.488  32.685  60.599  1.00  0.00     0.179 C 
HETATM    3  C   UNL     1       7.252  31.869  59.339  1.00  0.00     0.177 C 
HETATM    4  C   UNL     1       7.987  30.552  59.577  1.00  0.00     0.141 C 
HETATM    5  C   UNL     1       8.725  30.735  60.899  1.00  0.00     0.196 C 
HETATM    6  O   UNL     1       8.624  32.121  61.269  1.00  0.00    -0.379 OA
HETATM    7  O   UNL     1       5.838  31.636  59.210  1.00  0.00    -0.379 OA
HETATM    8  C   UNL     1       5.173  32.369  60.246  1.00  0.00     0.198 C 
ENDROOT
BRANCH   4   9
HETATM    9  N   UNL     1       8.801  30.130  58.445  1.00  0.00    -0.334 N 
HETATM   10  C   UNL     1       8.788  29.038  57.640  1.00  0.00     0.321 C 
HETATM   11  N   UNL     1       7.684  28.234  57.682  1.00  0.00    -0.309 N 
HETATM   12  O   UNL     1       9.777  28.883  56.928  1.00  0.00    -0.247 OA
HETATM   13  H   UNL     1       6.857  28.606  58.118  1.00  0.00     0.170 HD
HETATM   14  H   UNL     1       9.695  30.602  58.344  1.00  0.00     0.164 HD
BRANCH  11  15
HETATM   15  C   UNL     1       7.485  27.077  56.888  1.00  0.00     0.036 A 
HETATM   16  C   UNL     1       6.866  27.100  55.636  1.00  0.00     0.032 A 
HETATM   17  C   UNL     1       6.639  25.915  54.932  1.00  0.00     0.039 A 
HETATM   18  C   UNL     1       7.035  24.686  55.459  1.00  0.00     0.076 A 
HETATM   19  C   UNL     1       7.676  24.653  56.697  1.00  0.00     0.039 A 
HETATM   20  C   UNL     1       7.916  25.845  57.399  1.00  0.00     0.032 A 
BRANCH  18  21
HETATM   21  O   UNL     1       6.676  23.593  54.703  1.00  0.00    -0.311 OA
BRANCH  21  22
HETATM   22  C   UNL     1       7.520  22.516  54.639  1.00  0.00     0.076 A 
HETATM   23  C   UNL     1       7.451  21.576  55.668  1.00  0.00     0.037 A 
HETATM   24  C   UNL     1       8.223  20.415  55.599  1.00  0.00     0.003 A 
HETATM   25  C   UNL     1       9.048  20.194  54.496  1.00  0.00     0.000 A 
HETATM   26  C   UNL     1       9.098  21.127  53.458  1.00  0.00     0.003 A 
HETATM   27  C   UNL     1       8.325  22.286  53.523  1.00  0.00     0.037 A 
ENDBRANCH  21  22
ENDBRANCH  18  21
ENDBRANCH  11  15
ENDBRANCH   4   9
BRANCH   1  28
HETATM   28  N   UNL     1       5.877  33.568  62.302  1.00  0.00    -0.274 N 
HETATM   29  N   UNL     1       6.693  33.857  63.332  1.00  0.00     0.005 NA
HETATM   30  N   UNL     1       6.207  34.918  63.956  1.00  0.00    -0.161 NA
HETATM   31  C   UNL     1       5.070  35.312  63.303  1.00  0.00     0.095 A 
HETATM   32  C   UNL     1       4.844  34.464  62.240  1.00  0.00     0.139 A 
BRANCH  31  33
HETATM   33  C   UNL     1       4.319  36.503  63.775  1.00  0.00     0.296 C 
BRANCH  33  34
HETATM   34  N   UNL     1       4.596  37.754  62.963  1.00  0.00    -0.066 N 
HETATM   35  C   UNL     1       3.662  37.879  61.797  1.00  0.00     0.270 C 
HETATM   36  H   UNL     1       4.403  38.538  63.602  1.00  0.00     0.280 HD
BRANCH  34  37
HETATM   37  C   UNL     1       6.056  37.878  62.584  1.00  0.00     0.273 C 
BRANCH  37  38
HETATM   38  C   UNL     1       6.621  39.260  62.777  1.00  0.00    -0.033 A 
HETATM   39  C   UNL     1       6.850  39.768  64.065  1.00  0.00     0.009 A 
HETATM   40  C   UNL     1       7.344  41.063  64.234  1.00  0.00     0.001 A 
HETATM   41  C   UNL     1       7.619  41.859  63.124  1.00  0.00     0.000 A 
HETATM   42  C   UNL     1       7.406  41.361  61.840  1.00  0.00     0.001 A 
HETATM   43  C   UNL     1       6.910  40.069  61.665  1.00  0.00     0.009 A 
ENDBRANCH  37  38
ENDBRANCH  34  37
ENDBRANCH  33  34
ENDBRANCH  31  33
ENDBRANCH   1  28
TORSDOF 9
ENDMDL
MODEL 9
REMARK VINA RESULT:     -10.5      3.596      5.312
REMARK  9 active torsions:
REMARK  status: ('A' for Active; 'I' for Inactive)
REMARK    1  A    between atoms: N_2  and  C_4 
REMARK    2  A    between atoms: N_2  and  C_35 
REMARK    3  A    between atoms: C_4  and  C_5 
REMARK    4  A    between atoms: N_8  and  C_9 
REMARK    5  A    between atoms: C_12  and  N_13 
REMARK       I    between atoms: N_13  and  C_14 
REMARK       I    between atoms: C_14  and  N_15 
REMARK    6  A    between atoms: N_15  and  C_16 
REMARK    7  A    between atoms: C_19  and  O_20 
REMARK    8  A    between atoms: O_20  and  C_21 
REMARK    9  A    between atoms: C_35  and  C_36 
ROOT
HETATM    1  C   UNL     1       5.470  31.750  58.327  1.00  0.00     0.161 C 
HETATM    2  C   UNL     1       4.207  30.985  57.949  1.00  0.00     0.179 C 
HETATM    3  C   UNL     1       4.700  30.014  56.890  1.00  0.00     0.177 C 
HETATM    4  C   UNL     1       4.288  30.637  55.558  1.00  0.00     0.141 C 
HETATM    5  C   UNL     1       3.456  31.861  55.926  1.00  0.00     0.196 C 
HETATM    6  O   UNL     1       3.203  31.810  57.341  1.00  0.00    -0.379 OA
HETATM    7  O   UNL     1       6.133  29.933  56.981  1.00  0.00    -0.379 OA
HETATM    8  C   UNL     1       6.547  30.700  58.119  1.00  0.00     0.198 C 
ENDROOT
BRANCH   4   9
HETATM    9  N   UNL     1       3.660  29.691  54.645  1.00  0.00    -0.334 N 
HETATM   10  C   UNL     1       4.103  28.584  53.997  1.00  0.00     0.321 C 
HETATM   11  N   UNL     1       5.293  28.047  54.402  1.00  0.00    -0.309 N 
HETATM   12  O   UNL     1       3.374  28.154  53.107  1.00  0.00    -0.247 OA
HETATM   13  H   UNL     1       5.658  28.347  55.290  1.00  0.00     0.170 HD
HETATM   14  H   UNL     1       2.797  30.003  54.210  1.00  0.00     0.164 HD
BRANCH  11  15
HETATM   15  C   UNL     1       5.886  26.877  53.863  1.00  0.00     0.036 A 
HETATM   16  C   UNL     1       5.227  25.649  53.780  1.00  0.00     0.032 A 
HETATM   17  C   UNL     1       5.890  24.516  53.301  1.00  0.00     0.039 A 
HETATM   18  C   UNL     1       7.220  24.590  52.888  1.00  0.00     0.076 A 
HETATM   19  C   UNL     1       7.881  25.818  52.944  1.00  0.00     0.039 A 
HETATM   20  C   UNL     1       7.211  26.958  53.412  1.00  0.00     0.032 A 
BRANCH  18  21
HETATM   21  O   UNL     1       7.775  23.387  52.519  1.00  0.00    -0.311 OA
BRANCH  21  22
HETATM   22  C   UNL     1       8.044  22.449  53.481  1.00  0.00     0.076 A 
HETATM   23  C   UNL     1       8.163  21.120  53.076  1.00  0.00     0.037 A 
HETATM   24  C   UNL     1       8.529  20.143  54.003  1.00  0.00     0.003 A 
HETATM   25  C   UNL     1       8.788  20.502  55.326  1.00  0.00     0.000 A 
HETATM   26  C   UNL     1       8.689  21.838  55.722  1.00  0.00     0.003 A 
HETATM   27  C   UNL     1       8.327  22.816  54.797  1.00  0.00     0.037 A 
ENDBRANCH  21  22
ENDBRANCH  18  21
ENDBRANCH  11  15
ENDBRANCH   4   9
BRANCH   1  28
HETATM   28  N   UNL     1       5.466  32.330  59.647  1.00  0.00    -0.274 N 
HETATM   29  N   UNL     1       6.533  32.236  60.460  1.00  0.00     0.005 NA
HETATM   30  N   UNL     1       6.278  32.933  61.556  1.00  0.00    -0.161 NA
HETATM   31  C   UNL     1       5.030  33.483  61.428  1.00  0.00     0.095 A 
HETATM   32  C   UNL     1       4.497  33.114  60.214  1.00  0.00     0.139 A 
BRANCH  31  33
HETATM   33  C   UNL     1       4.487  34.343  62.510  1.00  0.00     0.296 C 
BRANCH  33  34
HETATM   34  N   UNL     1       5.447  35.426  62.963  1.00  0.00    -0.066 N 
HETATM   35  C   UNL     1       6.156  35.048  64.229  1.00  0.00     0.270 C 
HETATM   36  H   UNL     1       6.155  35.487  62.217  1.00  0.00     0.280 HD
BRANCH  34  37
HETATM   37  C   UNL     1       4.788  36.787  63.022  1.00  0.00     0.273 C 
BRANCH  37  38
HETATM   38  C   UNL     1       5.745  37.937  62.852  1.00  0.00    -0.033 A 
HETATM   39  C   UNL     1       6.343  38.194  61.608  1.00  0.00     0.009 A 
HETATM   40  C   UNL     1       7.254  39.243  61.469  1.00  0.00     0.001 A 
HETATM   41  C   UNL     1       7.572  40.046  62.562  1.00  0.00     0.000 A 
HETATM   42  C   UNL     1       6.977  39.806  63.798  1.00  0.00     0.001 A 
HETATM   43  C   UNL     1       6.067  38.758  63.945  1.00  0.00     0.009 A 
ENDBRANCH  37  38
ENDBRANCH  34  37
ENDBRANCH  33  34
ENDBRANCH  31  33
ENDBRANCH   1  28
TORSDOF 9
ENDMDL
MODEL 10
REMARK VINA RESULT:     -10.4      5.056      7.899
REMARK  9 active torsions:
REMARK  status: ('A' for Active; 'I' for Inactive)
REMARK    1  A    between atoms: N_2  and  C_4 
REMARK    2  A    between atoms: N_2  and  C_35 
REMARK    3  A    between atoms: C_4  and  C_5 
REMARK    4  A    between atoms: N_8  and  C_9 
REMARK    5  A    between atoms: C_12  and  N_13 
REMARK       I    between atoms: N_13  and  C_14 
REMARK       I    between atoms: C_14  and  N_15 
REMARK    6  A    between atoms: N_15  and  C_16 
REMARK    7  A    between atoms: C_19  and  O_20 
REMARK    8  A    between atoms: O_20  and  C_21 
REMARK    9  A    between atoms: C_35  and  C_36 
ROOT
HETATM    1  C   UNL     1       6.946  28.871  57.265  1.00  0.00     0.161 C 
HETATM    2  C   UNL     1       7.666  27.792  56.464  1.00  0.00     0.179 C 
HETATM    3  C   UNL     1       6.769  27.610  55.251  1.00  0.00     0.177 C 
HETATM    4  C   UNL     1       5.961  26.348  55.542  1.00  0.00     0.141 C 
HETATM    5  C   UNL     1       6.537  25.791  56.840  1.00  0.00     0.196 C 
HETATM    6  O   UNL     1       7.734  26.530  57.141  1.00  0.00    -0.379 OA
HETATM    7  O   UNL     1       5.896  28.751  55.159  1.00  0.00    -0.379 OA
HETATM    8  C   UNL     1       6.288  29.689  56.169  1.00  0.00     0.198 C 
ENDROOT
BRANCH   4   9
HETATM    9  N   UNL     1       5.909  25.422  54.419  1.00  0.00    -0.334 N 
HETATM   10  C   UNL     1       5.452  25.522  53.145  1.00  0.00     0.321 C 
HETATM   11  N   UNL     1       5.181  26.774  52.667  1.00  0.00    -0.309 N 
HETATM   12  O   UNL     1       5.340  24.466  52.529  1.00  0.00    -0.247 OA
HETATM   13  H   UNL     1       5.546  27.556  53.184  1.00  0.00     0.170 HD
HETATM   14  H   UNL     1       6.021  24.439  54.650  1.00  0.00     0.164 HD
BRANCH  11  15
HETATM   15  C   UNL     1       4.732  27.067  51.355  1.00  0.00     0.036 A 
HETATM   16  C   UNL     1       4.960  26.232  50.260  1.00  0.00     0.032 A 
HETATM   17  C   UNL     1       4.550  26.610  48.978  1.00  0.00     0.039 A 
HETATM   18  C   UNL     1       3.898  27.825  48.768  1.00  0.00     0.076 A 
HETATM   19  C   UNL     1       3.644  28.656  49.859  1.00  0.00     0.039 A 
HETATM   20  C   UNL     1       4.042  28.270  51.148  1.00  0.00     0.032 A 
BRANCH  18  21
HETATM   21  O   UNL     1       3.626  28.111  47.450  1.00  0.00    -0.311 OA
BRANCH  21  22
HETATM   22  C   UNL     1       2.328  28.313  47.062  1.00  0.00     0.076 A 
HETATM   23  C   UNL     1       1.957  29.605  46.686  1.00  0.00     0.037 A 
HETATM   24  C   UNL     1       0.672  29.841  46.194  1.00  0.00     0.003 A 
HETATM   25  C   UNL     1      -0.229  28.784  46.067  1.00  0.00     0.000 A 
HETATM   26  C   UNL     1       0.153  27.489  46.425  1.00  0.00     0.003 A 
HETATM   27  C   UNL     1       1.437  27.250  46.913  1.00  0.00     0.037 A 
ENDBRANCH  21  22
ENDBRANCH  18  21
ENDBRANCH  11  15
ENDBRANCH   4   9
BRANCH   1  28
HETATM   28  N   UNL     1       7.784  29.643  58.149  1.00  0.00    -0.274 N 
HETATM   29  N   UNL     1       9.120  29.485  58.168  1.00  0.00     0.005 NA
HETATM   30  N   UNL     1       9.627  30.381  59.000  1.00  0.00    -0.161 NA
HETATM   31  C   UNL     1       8.594  31.123  59.507  1.00  0.00     0.095 A 
HETATM   32  C   UNL     1       7.409  30.670  58.972  1.00  0.00     0.139 A 
BRANCH  31  33
HETATM   33  C   UNL     1       8.874  32.228  60.459  1.00  0.00     0.296 C 
BRANCH  33  34
HETATM   34  N   UNL     1       8.408  31.941  61.873  1.00  0.00    -0.066 N 
HETATM   35  C   UNL     1       8.829  30.577  62.332  1.00  0.00     0.270 C 
HETATM   36  H   UNL     1       8.895  32.631  62.462  1.00  0.00     0.280 HD
BRANCH  34  37
HETATM   37  C   UNL     1       6.930  32.210  62.054  1.00  0.00     0.273 C 
BRANCH  37  38
HETATM   38  C   UNL     1       6.577  32.805  63.391  1.00  0.00    -0.033 A 
HETATM   39  C   UNL     1       5.235  32.956  63.777  1.00  0.00     0.009 A 
HETATM   40  C   UNL     1       4.917  33.539  65.005  1.00  0.00     0.001 A 
HETATM   41  C   UNL     1       5.929  33.971  65.859  1.00  0.00     0.000 A 
HETATM   42  C   UNL     1       7.263  33.818  65.491  1.00  0.00     0.001 A 
HETATM   43  C   UNL     1       7.588  33.238  64.264  1.00  0.00     0.009 A 
ENDBRANCH  37  38
ENDBRANCH  34  37
ENDBRANCH  33  34
ENDBRANCH  31  33
ENDBRANCH   1  28
TORSDOF 9
ENDMDL
