MODEL 1
REMARK VINA RESULT:      -8.0      0.000      0.000
REMARK  4 active torsions:
REMARK  status: ('A' for Active; 'I' for Inactive)
REMARK    1  A    between atoms: C_9  and  C_10 
REMARK    2  A    between atoms: C_19  and  C_20 
REMARK    3  A    between atoms: C_20  and  C_21 
REMARK    4  A    between atoms: C_21  and  O_22 
ROOT
HETATM    1  C   UNL     1       3.831  25.416  48.716  1.00  0.00     0.069 C 
HETATM    2  C   UNL     1       4.420  26.419  49.677  1.00  0.00     0.018 A 
HETATM    3  N   UNL     1       5.186  25.889  50.707  1.00  0.00    -0.343 N 
HETATM    4  C   UNL     1       5.780  26.669  51.639  1.00  0.00     0.146 A 
HETATM    5  N   UNL     1       5.624  28.035  51.541  1.00  0.00    -0.179 N 
HETATM    6  N   UNL     1       6.299  28.701  52.515  1.00  0.00    -0.167 NA
HETATM    7  C   UNL     1       6.864  27.731  53.247  1.00  0.00     0.066 A 
HETATM    8  C   UNL     1       7.678  28.091  54.436  1.00  0.00     0.073 C 
HETATM    9  C   UNL     1       6.567  26.433  52.743  1.00  0.00     0.046 A 
HETATM   10  C   UNL     1       4.875  28.681  50.545  1.00  0.00     0.278 A 
HETATM   11  O   UNL     1       4.772  29.901  50.504  1.00  0.00    -0.265 OA
HETATM   12  C   UNL     1       4.230  27.756  49.546  1.00  0.00     0.036 A 
HETATM   13  H   UNL     1       5.304  24.876  50.718  1.00  0.00     0.167 HD
ENDROOT
BRANCH   9  14
HETATM   14  C   UNL     1       6.964  25.121  53.214  1.00  0.00    -0.020 A 
HETATM   15  C   UNL     1       7.730  24.275  52.398  1.00  0.00     0.014 A 
HETATM   16  C   UNL     1       8.101  23.006  52.848  1.00  0.00     0.020 A 
HETATM   17  C   UNL     1       7.705  22.579  54.114  1.00  0.00     0.011 A 
HETATM   18 BR   UNL     1       8.204  20.861  54.721  1.00  0.00    -0.051 Br
HETATM   19  C   UNL     1       6.942  23.408  54.933  1.00  0.00     0.020 A 
HETATM   20  C   UNL     1       6.571  24.678  54.483  1.00  0.00     0.014 A 
ENDBRANCH   9  14
BRANCH  12  21
HETATM   21  C   UNL     1       3.378  28.443  48.506  1.00  0.00     0.072 C 
BRANCH  21  22
HETATM   22  C   UNL     1       1.953  28.721  48.985  1.00  0.00     0.169 C 
BRANCH  22  23
HETATM   23  O   UNL     1       1.215  27.506  49.096  1.00  0.00    -0.401 OA
HETATM   24  H   UNL     1       0.535  27.645  49.778  1.00  0.00     0.209 HD
ENDBRANCH  22  23
ENDBRANCH  21  22
ENDBRANCH  12  21
TORSDOF 4
ENDMDL
MODEL 2
REMARK VINA RESULT:      -7.9     10.601     13.471
REMARK  4 active torsions:
REMARK  status: ('A' for Active; 'I' for Inactive)
REMARK    1  A    between atoms: C_9  and  C_10 
REMARK    2  A    between atoms: C_19  and  C_20 
REMARK    3  A    between atoms: C_20  and  C_21 
REMARK    4  A    between atoms: C_21  and  O_22 
ROOT
HETATM    1  C   UNL     1       9.484  30.187  62.033  1.00  0.00     0.069 C 
HETATM    2  C   UNL     1       8.393  31.062  61.467  1.00  0.00     0.018 A 
HETATM    3  N   UNL     1       7.695  31.829  62.392  1.00  0.00    -0.343 N 
HETATM    4  C   UNL     1       6.694  32.663  62.027  1.00  0.00     0.146 A 
HETATM    5  N   UNL     1       6.378  32.757  60.690  1.00  0.00    -0.179 N 
HETATM    6  N   UNL     1       5.383  33.653  60.457  1.00  0.00    -0.167 NA
HETATM    7  C   UNL     1       5.056  34.106  61.675  1.00  0.00     0.066 A 
HETATM    8  C   UNL     1       3.967  35.106  61.817  1.00  0.00     0.073 C 
HETATM    9  C   UNL     1       5.847  33.513  62.700  1.00  0.00     0.046 A 
HETATM   10  C   UNL     1       7.014  32.033  59.669  1.00  0.00     0.278 A 
HETATM   11  O   UNL     1       6.695  32.158  58.492  1.00  0.00    -0.265 OA
HETATM   12  C   UNL     1       8.111  31.114  60.142  1.00  0.00     0.036 A 
HETATM   13  H   UNL     1       7.987  31.754  63.366  1.00  0.00     0.167 HD
ENDROOT
BRANCH   9  14
HETATM   14  C   UNL     1       5.835  33.708  64.137  1.00  0.00    -0.020 A 
HETATM   15  C   UNL     1       4.623  33.732  64.841  1.00  0.00     0.014 A 
HETATM   16  C   UNL     1       4.613  33.932  66.223  1.00  0.00     0.020 A 
HETATM   17  C   UNL     1       5.815  34.110  66.904  1.00  0.00     0.011 A 
HETATM   18 BR   UNL     1       5.801  34.385  68.774  1.00  0.00    -0.051 Br
HETATM   19  C   UNL     1       7.026  34.091  66.216  1.00  0.00     0.020 A 
HETATM   20  C   UNL     1       7.036  33.891  64.834  1.00  0.00     0.014 A 
ENDBRANCH   9  14
BRANCH  12  21
HETATM   21  C   UNL     1       8.761  30.291  59.054  1.00  0.00     0.072 C 
BRANCH  21  22
HETATM   22  C   UNL     1      10.015  30.946  58.475  1.00  0.00     0.169 C 
BRANCH  22  23
HETATM   23  O   UNL     1       9.964  32.361  58.638  1.00  0.00    -0.401 OA
HETATM   24  H   UNL     1      10.532  32.750  57.952  1.00  0.00     0.209 HD
ENDBRANCH  22  23
ENDBRANCH  21  22
ENDBRANCH  12  21
TORSDOF 4
ENDMDL
MODEL 3
REMARK VINA RESULT:      -7.8      4.498      7.300
REMARK  4 active torsions:
REMARK  status: ('A' for Active; 'I' for Inactive)
REMARK    1  A    between atoms: C_9  and  C_10 
REMARK    2  A    between atoms: C_19  and  C_20 
REMARK    3  A    between atoms: C_20  and  C_21 
REMARK    4  A    between atoms: C_21  and  O_22 
ROOT
HETATM    1  C   UNL     1       8.386  22.388  57.370  1.00  0.00     0.069 C 
HETATM    2  C   UNL     1       7.945  23.140  56.138  1.00  0.00     0.018 A 
HETATM    3  N   UNL     1       7.846  24.518  56.276  1.00  0.00    -0.343 N 
HETATM    4  C   UNL     1       7.468  25.320  55.254  1.00  0.00     0.146 A 
HETATM    5  N   UNL     1       7.191  24.737  54.037  1.00  0.00    -0.179 N 
HETATM    6  N   UNL     1       6.860  25.655  53.090  1.00  0.00    -0.167 NA
HETATM    7  C   UNL     1       6.906  26.827  53.737  1.00  0.00     0.066 A 
HETATM    8  C   UNL     1       6.574  28.079  53.010  1.00  0.00     0.073 C 
HETATM    9  C   UNL     1       7.281  26.675  55.103  1.00  0.00     0.046 A 
HETATM   10  C   UNL     1       7.258  23.358  53.781  1.00  0.00     0.278 A 
HETATM   11  O   UNL     1       7.003  22.894  52.676  1.00  0.00    -0.265 OA
HETATM   12  C   UNL     1       7.673  22.521  54.962  1.00  0.00     0.036 A 
HETATM   13  H   UNL     1       8.097  24.909  57.184  1.00  0.00     0.167 HD
ENDROOT
BRANCH   9  14
HETATM   14  C   UNL     1       7.454  27.659  56.152  1.00  0.00    -0.020 A 
HETATM   15  C   UNL     1       6.340  28.265  56.750  1.00  0.00     0.014 A 
HETATM   16  C   UNL     1       6.509  29.222  57.753  1.00  0.00     0.020 A 
HETATM   17  C   UNL     1       7.794  29.578  58.159  1.00  0.00     0.011 A 
HETATM   18 BR   UNL     1       8.023  30.876  59.513  1.00  0.00    -0.051 Br
HETATM   19  C   UNL     1       8.910  28.985  57.571  1.00  0.00     0.020 A 
HETATM   20  C   UNL     1       8.740  28.027  56.569  1.00  0.00     0.014 A 
ENDBRANCH   9  14
BRANCH  12  21
HETATM   21  C   UNL     1       7.692  21.032  54.707  1.00  0.00     0.072 C 
BRANCH  21  22
HETATM   22  C   UNL     1       8.803  20.601  53.750  1.00  0.00     0.169 C 
BRANCH  22  23
HETATM   23  O   UNL     1       8.252  20.040  52.561  1.00  0.00    -0.401 OA
HETATM   24  H   UNL     1       8.900  20.179  51.850  1.00  0.00     0.209 HD
ENDBRANCH  22  23
ENDBRANCH  21  22
ENDBRANCH  12  21
TORSDOF 4
ENDMDL
MODEL 4
REMARK VINA RESULT:      -7.7      2.990      5.219
REMARK  4 active torsions:
REMARK  status: ('A' for Active; 'I' for Inactive)
REMARK    1  A    between atoms: C_9  and  C_10 
REMARK    2  A    between atoms: C_19  and  C_20 
REMARK    3  A    between atoms: C_20  and  C_21 
REMARK    4  A    between atoms: C_21  and  O_22 
ROOT
HETATM    1  C   UNL     1       7.919  28.153  57.717  1.00  0.00     0.069 C 
HETATM    2  C   UNL     1       7.051  27.999  56.493  1.00  0.00     0.018 A 
HETATM    3  N   UNL     1       7.084  26.751  55.884  1.00  0.00    -0.343 N 
HETATM    4  C   UNL     1       6.352  26.467  54.783  1.00  0.00     0.146 A 
HETATM    5  N   UNL     1       5.540  27.454  54.267  1.00  0.00    -0.179 N 
HETATM    6  N   UNL     1       4.835  27.028  53.185  1.00  0.00    -0.167 NA
HETATM    7  C   UNL     1       5.235  25.761  53.009  1.00  0.00     0.066 A 
HETATM    8  C   UNL     1       4.681  24.968  51.882  1.00  0.00     0.073 C 
HETATM    9  C   UNL     1       6.192  25.358  53.984  1.00  0.00     0.046 A 
HETATM   10  C   UNL     1       5.426  28.749  54.797  1.00  0.00     0.278 A 
HETATM   11  O   UNL     1       4.684  29.587  54.300  1.00  0.00    -0.265 OA
HETATM   12  C   UNL     1       6.274  29.004  56.016  1.00  0.00     0.036 A 
HETATM   13  H   UNL     1       7.670  26.041  56.322  1.00  0.00     0.167 HD
ENDROOT
BRANCH   9  14
HETATM   14  C   UNL     1       6.880  24.096  54.169  1.00  0.00    -0.020 A 
HETATM   15  C   UNL     1       7.493  23.454  53.084  1.00  0.00     0.014 A 
HETATM   16  C   UNL     1       8.145  22.232  53.262  1.00  0.00     0.020 A 
HETATM   17  C   UNL     1       8.183  21.647  54.526  1.00  0.00     0.011 A 
HETATM   18 BR   UNL     1       9.061  19.991  54.766  1.00  0.00    -0.051 Br
HETATM   19  C   UNL     1       7.575  22.272  55.612  1.00  0.00     0.020 A 
HETATM   20  C   UNL     1       6.924  23.496  55.434  1.00  0.00     0.014 A 
ENDBRANCH   9  14
BRANCH  12  21
HETATM   21  C   UNL     1       6.198  30.412  56.557  1.00  0.00     0.072 C 
BRANCH  21  22
HETATM   22  C   UNL     1       4.987  30.642  57.462  1.00  0.00     0.169 C 
BRANCH  22  23
HETATM   23  O   UNL     1       4.584  29.424  58.080  1.00  0.00    -0.401 OA
HETATM   24  H   UNL     1       4.823  29.485  59.021  1.00  0.00     0.209 HD
ENDBRANCH  22  23
ENDBRANCH  21  22
ENDBRANCH  12  21
TORSDOF 4
ENDMDL
MODEL 5
REMARK VINA RESULT:      -7.6      4.401      6.996
REMARK  4 active torsions:
REMARK  status: ('A' for Active; 'I' for Inactive)
REMARK    1  A    between atoms: C_9  and  C_10 
REMARK    2  A    between atoms: C_19  and  C_20 
REMARK    3  A    between atoms: C_20  and  C_21 
REMARK    4  A    between atoms: C_21  and  O_22 
ROOT
HETATM    1  C   UNL     1       8.248  22.001  52.856  1.00  0.00     0.069 C 
HETATM    2  C   UNL     1       7.669  23.076  53.743  1.00  0.00     0.018 A 
HETATM    3  N   UNL     1       6.989  24.096  53.088  1.00  0.00    -0.343 N 
HETATM    4  C   UNL     1       6.414  25.122  53.755  1.00  0.00     0.146 A 
HETATM    5  N   UNL     1       6.499  25.136  55.130  1.00  0.00    -0.179 N 
HETATM    6  N   UNL     1       5.852  26.199  55.676  1.00  0.00    -0.167 NA
HETATM    7  C   UNL     1       5.377  26.873  54.619  1.00  0.00     0.066 A 
HETATM    8  C   UNL     1       4.616  28.131  54.835  1.00  0.00     0.073 C 
HETATM    9  C   UNL     1       5.705  26.242  53.386  1.00  0.00     0.046 A 
HETATM   10  C   UNL     1       7.158  24.161  55.896  1.00  0.00     0.278 A 
HETATM   11  O   UNL     1       7.201  24.221  57.119  1.00  0.00    -0.265 OA
HETATM   12  C   UNL     1       7.787  23.052  55.093  1.00  0.00     0.036 A 
HETATM   13  H   UNL     1       6.920  24.025  52.073  1.00  0.00     0.167 HD
ENDROOT
BRANCH   9  14
HETATM   14  C   UNL     1       5.398  26.617  52.020  1.00  0.00    -0.020 A 
HETATM   15  C   UNL     1       4.895  25.669  51.118  1.00  0.00     0.014 A 
HETATM   16  C   UNL     1       4.611  26.028  49.799  1.00  0.00     0.020 A 
HETATM   17  C   UNL     1       4.834  27.338  49.377  1.00  0.00     0.011 A 
HETATM   18 BR   UNL     1       4.454  27.824  47.591  1.00  0.00    -0.051 Br
HETATM   19  C   UNL     1       5.336  28.289  50.261  1.00  0.00     0.020 A 
HETATM   20  C   UNL     1       5.619  27.929  51.582  1.00  0.00     0.014 A 
ENDBRANCH   9  14
BRANCH  12  21
HETATM   21  C   UNL     1       8.544  22.031  55.909  1.00  0.00     0.072 C 
BRANCH  21  22
HETATM   22  C   UNL     1       7.794  20.708  56.062  1.00  0.00     0.169 C 
BRANCH  22  23
HETATM   23  O   UNL     1       8.630  19.612  55.698  1.00  0.00    -0.401 OA
HETATM   24  H   UNL     1       8.304  19.271  54.848  1.00  0.00     0.209 HD
ENDBRANCH  22  23
ENDBRANCH  21  22
ENDBRANCH  12  21
TORSDOF 4
ENDMDL
MODEL 6
REMARK VINA RESULT:      -7.5      5.226      7.814
REMARK  4 active torsions:
REMARK  status: ('A' for Active; 'I' for Inactive)
REMARK    1  A    between atoms: C_9  and  C_10 
REMARK    2  A    between atoms: C_19  and  C_20 
REMARK    3  A    between atoms: C_20  and  C_21 
REMARK    4  A    between atoms: C_21  and  O_22 
ROOT
HETATM    1  C   UNL     1      11.348  29.706  57.391  1.00  0.00     0.069 C 
HETATM    2  C   UNL     1       9.844  29.774  57.493  1.00  0.00     0.018 A 
HETATM    3  N   UNL     1       9.150  28.751  56.860  1.00  0.00    -0.343 N 
HETATM    4  C   UNL     1       7.799  28.681  56.873  1.00  0.00     0.146 A 
HETATM    5  N   UNL     1       7.102  29.654  57.555  1.00  0.00    -0.179 N 
HETATM    6  N   UNL     1       5.759  29.447  57.520  1.00  0.00    -0.167 NA
HETATM    7  C   UNL     1       5.616  28.338  56.781  1.00  0.00     0.066 A 
HETATM    8  C   UNL     1       4.255  27.811  56.505  1.00  0.00     0.073 C 
HETATM    9  C   UNL     1       6.868  27.816  56.345  1.00  0.00     0.046 A 
HETATM   10  C   UNL     1       7.695  30.733  58.230  1.00  0.00     0.278 A 
HETATM   11  O   UNL     1       7.026  31.570  58.824  1.00  0.00    -0.265 OA
HETATM   12  C   UNL     1       9.200  30.759  58.168  1.00  0.00     0.036 A 
HETATM   13  H   UNL     1       9.708  28.033  56.400  1.00  0.00     0.167 HD
ENDROOT
BRANCH   9  14
HETATM   14  C   UNL     1       7.179  26.652  55.540  1.00  0.00    -0.020 A 
HETATM   15  C   UNL     1       7.315  26.765  54.149  1.00  0.00     0.014 A 
HETATM   16  C   UNL     1       7.604  25.640  53.373  1.00  0.00     0.020 A 
HETATM   17  C   UNL     1       7.753  24.398  53.986  1.00  0.00     0.011 A 
HETATM   18 BR   UNL     1       8.139  22.875  52.936  1.00  0.00    -0.051 Br
HETATM   19  C   UNL     1       7.618  24.271  55.367  1.00  0.00     0.020 A 
HETATM   20  C   UNL     1       7.331  25.397  56.143  1.00  0.00     0.014 A 
ENDBRANCH   9  14
BRANCH  12  21
HETATM   21  C   UNL     1       9.841  31.948  58.846  1.00  0.00     0.072 C 
BRANCH  21  22
HETATM   22  C   UNL     1       9.862  31.830  60.370  1.00  0.00     0.169 C 
BRANCH  22  23
HETATM   23  O   UNL     1       8.748  32.512  60.941  1.00  0.00    -0.401 OA
HETATM   24  H   UNL     1       9.098  33.129  61.606  1.00  0.00     0.209 HD
ENDBRANCH  22  23
ENDBRANCH  21  22
ENDBRANCH  12  21
TORSDOF 4
ENDMDL
MODEL 7
REMARK VINA RESULT:      -7.3      4.566      7.320
REMARK  4 active torsions:
REMARK  status: ('A' for Active; 'I' for Inactive)
REMARK    1  A    between atoms: C_9  and  C_10 
REMARK    2  A    between atoms: C_19  and  C_20 
REMARK    3  A    between atoms: C_20  and  C_21 
REMARK    4  A    between atoms: C_21  and  O_22 
ROOT
HETATM    1  C   UNL     1       8.709  23.780  57.235  1.00  0.00     0.069 C 
HETATM    2  C   UNL     1       8.224  24.122  55.847  1.00  0.00     0.018 A 
HETATM    3  N   UNL     1       7.540  25.325  55.727  1.00  0.00    -0.343 N 
HETATM    4  C   UNL     1       7.053  25.762  54.543  1.00  0.00     0.146 A 
HETATM    5  N   UNL     1       7.264  24.986  53.425  1.00  0.00    -0.179 N 
HETATM    6  N   UNL     1       6.757  25.555  52.299  1.00  0.00    -0.167 NA
HETATM    7  C   UNL     1       6.198  26.694  52.729  1.00  0.00     0.066 A 
HETATM    8  C   UNL     1       5.513  27.586  51.759  1.00  0.00     0.073 C 
HETATM    9  C   UNL     1       6.352  26.874  54.134  1.00  0.00     0.046 A 
HETATM   10  C   UNL     1       7.939  23.755  53.426  1.00  0.00     0.278 A 
HETATM   11  O   UNL     1       8.101  23.106  52.400  1.00  0.00    -0.265 OA
HETATM   12  C   UNL     1       8.446  23.320  54.777  1.00  0.00     0.036 A 
HETATM   13  H   UNL     1       7.441  25.884  56.574  1.00  0.00     0.167 HD
ENDROOT
BRANCH   9  14
HETATM   14  C   UNL     1       5.913  27.945  55.005  1.00  0.00    -0.020 A 
HETATM   15  C   UNL     1       6.837  28.865  55.522  1.00  0.00     0.014 A 
HETATM   16  C   UNL     1       6.414  29.889  56.372  1.00  0.00     0.020 A 
HETATM   17  C   UNL     1       5.066  29.995  56.709  1.00  0.00     0.011 A 
HETATM   18 BR   UNL     1       4.494  31.379  57.862  1.00  0.00    -0.051 Br
HETATM   19  C   UNL     1       4.138  29.086  56.205  1.00  0.00     0.020 A 
HETATM   20  C   UNL     1       4.561  28.062  55.354  1.00  0.00     0.014 A 
ENDBRANCH   9  14
BRANCH  12  21
HETATM   21  C   UNL     1       9.125  21.970  54.793  1.00  0.00     0.072 C 
BRANCH  21  22
HETATM   22  C   UNL     1       8.144  20.806  54.933  1.00  0.00     0.169 C 
BRANCH  22  23
HETATM   23  O   UNL     1       8.805  19.563  54.710  1.00  0.00    -0.401 OA
HETATM   24  H   UNL     1       9.761  19.735  54.748  1.00  0.00     0.209 HD
ENDBRANCH  22  23
ENDBRANCH  21  22
ENDBRANCH  12  21
TORSDOF 4
ENDMDL
MODEL 8
REMARK VINA RESULT:      -7.2      5.894      8.226
REMARK  4 active torsions:
REMARK  status: ('A' for Active; 'I' for Inactive)
REMARK    1  A    between atoms: C_9  and  C_10 
REMARK    2  A    between atoms: C_19  and  C_20 
REMARK    3  A    between atoms: C_20  and  C_21 
REMARK    4  A    between atoms: C_21  and  O_22 
ROOT
HETATM    1  C   UNL     1       4.150  28.693  56.622  1.00  0.00     0.069 C 
HETATM    2  C   UNL     1       5.623  28.847  56.335  1.00  0.00     0.018 A 
HETATM    3  N   UNL     1       6.372  29.453  57.336  1.00  0.00    -0.343 N 
HETATM    4  C   UNL     1       7.705  29.651  57.219  1.00  0.00     0.146 A 
HETATM    5  N   UNL     1       8.330  29.218  56.070  1.00  0.00    -0.179 N 
HETATM    6  N   UNL     1       9.670  29.446  56.095  1.00  0.00    -0.167 NA
HETATM    7  C   UNL     1       9.878  30.055  57.271  1.00  0.00     0.066 A 
HETATM    8  C   UNL     1      11.252  30.482  57.641  1.00  0.00     0.073 C 
HETATM    9  C   UNL     1       8.676  30.213  58.016  1.00  0.00     0.046 A 
HETATM   10  C   UNL     1       7.677  28.595  54.995  1.00  0.00     0.278 A 
HETATM   11  O   UNL     1       8.284  28.226  53.996  1.00  0.00    -0.265 OA
HETATM   12  C   UNL     1       6.193  28.414  55.183  1.00  0.00     0.036 A 
HETATM   13  H   UNL     1       5.874  29.723  58.183  1.00  0.00     0.167 HD
ENDROOT
BRANCH   9  14
HETATM   14  C   UNL     1       8.439  30.806  59.318  1.00  0.00    -0.020 A 
HETATM   15  C   UNL     1       7.457  31.792  59.482  1.00  0.00     0.014 A 
HETATM   16  C   UNL     1       7.239  32.372  60.734  1.00  0.00     0.020 A 
HETATM   17  C   UNL     1       8.005  31.967  61.825  1.00  0.00     0.011 A 
HETATM   18 BR   UNL     1       7.713  32.753  63.518  1.00  0.00    -0.051 Br
HETATM   19  C   UNL     1       8.986  30.989  61.675  1.00  0.00     0.020 A 
HETATM   20  C   UNL     1       9.203  30.409  60.423  1.00  0.00     0.014 A 
ENDBRANCH   9  14
BRANCH  12  21
HETATM   21  C   UNL     1       5.477  27.793  54.007  1.00  0.00     0.072 C 
BRANCH  21  22
HETATM   22  C   UNL     1       5.591  26.269  53.970  1.00  0.00     0.169 C 
BRANCH  22  23
HETATM   23  O   UNL     1       4.969  25.692  55.115  1.00  0.00    -0.401 OA
HETATM   24  H   UNL     1       4.492  26.405  55.573  1.00  0.00     0.209 HD
ENDBRANCH  22  23
ENDBRANCH  21  22
ENDBRANCH  12  21
TORSDOF 4
ENDMDL
MODEL 9
REMARK VINA RESULT:      -7.2      4.939      7.515
REMARK  4 active torsions:
REMARK  status: ('A' for Active; 'I' for Inactive)
REMARK    1  A    between atoms: C_9  and  C_10 
REMARK    2  A    between atoms: C_19  and  C_20 
REMARK    3  A    between atoms: C_20  and  C_21 
REMARK    4  A    between atoms: C_21  and  O_22 
ROOT
HETATM    1  C   UNL     1       9.010  24.078  57.438  1.00  0.00     0.069 C 
HETATM    2  C   UNL     1       8.020  24.817  56.571  1.00  0.00     0.018 A 
HETATM    3  N   UNL     1       7.871  26.171  56.846  1.00  0.00    -0.343 N 
HETATM    4  C   UNL     1       7.024  26.960  56.146  1.00  0.00     0.146 A 
HETATM    5  N   UNL     1       6.304  26.392  55.118  1.00  0.00    -0.179 N 
HETATM    6  N   UNL     1       5.520  27.298  54.476  1.00  0.00    -0.167 NA
HETATM    7  C   UNL     1       5.738  28.446  55.133  1.00  0.00     0.066 A 
HETATM    8  C   UNL     1       5.019  29.677  54.715  1.00  0.00     0.073 C 
HETATM    9  C   UNL     1       6.673  28.290  56.196  1.00  0.00     0.046 A 
HETATM   10  C   UNL     1       6.373  25.039  54.750  1.00  0.00     0.278 A 
HETATM   11  O   UNL     1       5.711  24.587  53.824  1.00  0.00    -0.265 OA
HETATM   12  C   UNL     1       7.325  24.213  55.576  1.00  0.00     0.036 A 
HETATM   13  H   UNL     1       8.452  26.556  57.591  1.00  0.00     0.167 HD
ENDROOT
BRANCH   9  14
HETATM   14  C   UNL     1       7.194  29.250  57.148  1.00  0.00    -0.020 A 
HETATM   15  C   UNL     1       8.561  29.276  57.455  1.00  0.00     0.014 A 
HETATM   16  C   UNL     1       9.060  30.194  58.382  1.00  0.00     0.020 A 
HETATM   17  C   UNL     1       8.191  31.087  59.006  1.00  0.00     0.011 A 
HETATM   18 BR   UNL     1       8.864  32.327  60.263  1.00  0.00    -0.051 Br
HETATM   19  C   UNL     1       6.829  31.070  58.712  1.00  0.00     0.020 A 
HETATM   20  C   UNL     1       6.331  30.152  57.784  1.00  0.00     0.014 A 
ENDBRANCH   9  14
BRANCH  12  21
HETATM   21  C   UNL     1       7.363  22.745  55.220  1.00  0.00     0.072 C 
BRANCH  21  22
HETATM   22  C   UNL     1       8.358  22.423  54.105  1.00  0.00     0.169 C 
BRANCH  22  23
HETATM   23  O   UNL     1       7.693  22.341  52.847  1.00  0.00    -0.401 OA
HETATM   24  H   UNL     1       8.214  21.744  52.284  1.00  0.00     0.209 HD
ENDBRANCH  22  23
ENDBRANCH  21  22
ENDBRANCH  12  21
TORSDOF 4
ENDMDL
MODEL 10
REMARK VINA RESULT:      -7.1      4.159      6.896
REMARK  4 active torsions:
REMARK  status: ('A' for Active; 'I' for Inactive)
REMARK    1  A    between atoms: C_9  and  C_10 
REMARK    2  A    between atoms: C_19  and  C_20 
REMARK    3  A    between atoms: C_20  and  C_21 
REMARK    4  A    between atoms: C_21  and  O_22 
ROOT
HETATM    1  C   UNL     1       7.795  23.109  52.926  1.00  0.00     0.069 C 
HETATM    2  C   UNL     1       7.083  24.164  53.735  1.00  0.00     0.018 A 
HETATM    3  N   UNL     1       6.533  25.213  53.008  1.00  0.00    -0.343 N 
HETATM    4  C   UNL     1       5.861  26.226  53.600  1.00  0.00     0.146 A 
HETATM    5  N   UNL     1       5.711  26.197  54.969  1.00  0.00    -0.179 N 
HETATM    6  N   UNL     1       4.989  27.253  55.430  1.00  0.00    -0.167 NA
HETATM    7  C   UNL     1       4.706  27.964  54.331  1.00  0.00     0.066 A 
HETATM    8  C   UNL     1       3.931  29.225  54.454  1.00  0.00     0.073 C 
HETATM    9  C   UNL     1       5.234  27.367  53.151  1.00  0.00     0.046 A 
HETATM   10  C   UNL     1       6.222  25.192  55.805  1.00  0.00     0.278 A 
HETATM   11  O   UNL     1       6.056  25.214  57.018  1.00  0.00    -0.265 OA
HETATM   12  C   UNL     1       6.969  24.099  55.085  1.00  0.00     0.036 A 
HETATM   13  H   UNL     1       6.637  25.173  51.994  1.00  0.00     0.167 HD
ENDROOT
BRANCH   9  14
HETATM   14  C   UNL     1       5.168  27.786  51.766  1.00  0.00    -0.020 A 
HETATM   15  C   UNL     1       5.571  29.077  51.394  1.00  0.00     0.014 A 
HETATM   16  C   UNL     1       5.494  29.485  50.060  1.00  0.00     0.020 A 
HETATM   17  C   UNL     1       5.012  28.603  49.095  1.00  0.00     0.011 A 
HETATM   18 BR   UNL     1       4.905  29.155  47.291  1.00  0.00    -0.051 Br
HETATM   19  C   UNL     1       4.606  27.319  49.451  1.00  0.00     0.020 A 
HETATM   20  C   UNL     1       4.683  26.911  50.786  1.00  0.00     0.014 A 
ENDBRANCH   9  14
BRANCH  12  21
HETATM   21  C   UNL     1       7.568  23.043  55.985  1.00  0.00     0.072 C 
BRANCH  21  22
HETATM   22  C   UNL     1       8.875  23.487  56.643  1.00  0.00     0.169 C 
BRANCH  22  23
HETATM   23  O   UNL     1       8.629  24.002  57.949  1.00  0.00    -0.401 OA
HETATM   24  H   UNL     1       8.771  23.274  58.578  1.00  0.00     0.209 HD
ENDBRANCH  22  23
ENDBRANCH  21  22
ENDBRANCH  12  21
TORSDOF 4
ENDMDL
