MODEL 1
REMARK VINA RESULT:     -10.4      0.000      0.000
REMARK  9 active torsions:
REMARK  status: ('A' for Active; 'I' for Inactive)
REMARK    1  A    between atoms: C_4  and  C_5 
REMARK    2  A    between atoms: N_10  and  C_11 
REMARK    3  A    between atoms: C_11  and  C_12 
REMARK    4  A    between atoms: C_12  and  C_13 
REMARK    5  A    between atoms: C_13  and  C_14 
REMARK    6  A    between atoms: C_14  and  C_15 
REMARK    7  A    between atoms: C_15  and  C_16 
REMARK       I    between atoms: C_16  and  N_17 
REMARK    8  A    between atoms: N_17  and  C_18 
REMARK    9  A    between atoms: C_26  and  C_27 
REMARK       I    between atoms: C_27  and  N_28 
ROOT
HETATM    1  C   UNL     1       7.573  27.761  53.984  1.00  0.00     0.103 C 
ENDROOT
BRANCH   1   2
HETATM    2  C   UNL     1       8.124  28.480  55.219  1.00  0.00     0.009 C 
BRANCH   2   3
HETATM    3  C   UNL     1       7.259  28.265  56.467  1.00  0.00     0.002 C 
BRANCH   3   4
HETATM    4  C   UNL     1       8.029  28.573  57.751  1.00  0.00     0.020 C 
BRANCH   4   5
HETATM    5  C   UNL     1       8.473  30.038  57.857  1.00  0.00     0.134 C 
BRANCH   5   6
HETATM    6  N   UNL     1       7.716  30.732  58.899  1.00  0.00    -0.298 N 
HETATM    7  C   UNL     1       6.553  31.444  58.688  1.00  0.00     0.148 C 
HETATM    8  S   UNL     1       6.055  32.226  60.183  1.00  0.00    -0.055 SA
HETATM    9  S   UNL     1       5.683  31.612  57.274  1.00  0.00    -0.052 SA
HETATM   10  C   UNL     1       7.466  31.728  61.021  1.00  0.00     0.076 C 
HETATM   11  C   UNL     1       7.914  32.105  62.227  1.00  0.00     0.036 C 
HETATM   12  C   UNL     1       8.253  30.792  60.174  1.00  0.00     0.266 C 
HETATM   13  O   UNL     1       9.253  30.204  60.561  1.00  0.00    -0.266 OA
BRANCH  11  14
HETATM   14  C   UNL     1       7.330  33.081  63.158  1.00  0.00    -0.035 A 
HETATM   15  C   UNL     1       6.441  34.040  62.654  1.00  0.00     0.011 A 
HETATM   16  C   UNL     1       5.803  34.939  63.512  1.00  0.00     0.001 A 
HETATM   17  C   UNL     1       6.043  34.886  64.883  1.00  0.00     0.000 A 
HETATM   18  C   UNL     1       6.912  33.926  65.398  1.00  0.00     0.001 A 
HETATM   19  C   UNL     1       7.543  33.021  64.541  1.00  0.00     0.011 A 
ENDBRANCH  11  14
ENDBRANCH   5   6
ENDBRANCH   4   5
ENDBRANCH   3   4
ENDBRANCH   2   3
ENDBRANCH   1   2
BRANCH   1  20
HETATM   20  C   UNL     1       6.131  27.312  54.124  1.00  0.00     0.222 C 
HETATM   21  N   UNL     1       5.784  26.003  54.282  1.00  0.00    -0.320 N 
HETATM   22  H   UNL     1       4.770  25.898  54.353  1.00  0.00     0.169 HD
HETATM   23  O   UNL     1       5.209  28.137  54.118  1.00  0.00    -0.273 OA
BRANCH  21  24
HETATM   24  C   UNL     1       6.491  24.813  54.355  1.00  0.00     0.093 A 
HETATM   25  S   UNL     1       6.982  23.959  52.979  1.00  0.00    -0.075 SA
HETATM   26  C   UNL     1       7.643  22.700  53.891  1.00  0.00    -0.008 A 
HETATM   27  C   UNL     1       7.553  22.920  55.253  1.00  0.00    -0.026 A 
HETATM   28  C   UNL     1       8.249  21.498  53.233  1.00  0.00     0.047 C 
HETATM   29  C   UNL     1       8.020  21.875  56.231  1.00  0.00     0.041 C 
HETATM   30  C   UNL     1       6.883  24.179  55.534  1.00  0.00     0.072 A 
HETATM   31  C   UNL     1       8.905  20.803  55.573  1.00  0.00     0.005 C 
HETATM   32  C   UNL     1       8.337  20.337  54.228  1.00  0.00     0.005 C 
BRANCH  30  33
HETATM   33  C   UNL     1       6.576  24.765  56.841  1.00  0.00     0.252 C 
HETATM   34  N   UNL     1       7.620  24.918  57.705  1.00  0.00    -0.366 N 
HETATM   35  H   UNL     1       8.566  24.947  57.352  1.00  0.00     0.159 HD
HETATM   36  H   UNL     1       7.419  25.474  58.527  1.00  0.00     0.159 HD
HETATM   37  O   UNL     1       5.464  25.189  57.142  1.00  0.00    -0.268 OA
ENDBRANCH  30  33
ENDBRANCH  21  24
ENDBRANCH   1  20
TORSDOF 9
ENDMDL
MODEL 2
REMARK VINA RESULT:     -10.3      1.602      2.600
REMARK  9 active torsions:
REMARK  status: ('A' for Active; 'I' for Inactive)
REMARK    1  A    between atoms: C_4  and  C_5 
REMARK    2  A    between atoms: N_10  and  C_11 
REMARK    3  A    between atoms: C_11  and  C_12 
REMARK    4  A    between atoms: C_12  and  C_13 
REMARK    5  A    between atoms: C_13  and  C_14 
REMARK    6  A    between atoms: C_14  and  C_15 
REMARK    7  A    between atoms: C_15  and  C_16 
REMARK       I    between atoms: C_16  and  N_17 
REMARK    8  A    between atoms: N_17  and  C_18 
REMARK    9  A    between atoms: C_26  and  C_27 
REMARK       I    between atoms: C_27  and  N_28 
ROOT
HETATM    1  C   UNL     1       7.593  28.394  56.139  1.00  0.00     0.103 C 
ENDROOT
BRANCH   1   2
HETATM    2  C   UNL     1       8.740  28.179  57.130  1.00  0.00     0.009 C 
BRANCH   2   3
HETATM    3  C   UNL     1       9.286  29.493  57.701  1.00  0.00     0.002 C 
BRANCH   3   4
HETATM    4  C   UNL     1       8.456  29.984  58.887  1.00  0.00     0.020 C 
BRANCH   4   5
HETATM    5  C   UNL     1       8.603  31.489  59.148  1.00  0.00     0.134 C 
BRANCH   5   6
HETATM    6  N   UNL     1       7.533  31.966  60.027  1.00  0.00    -0.298 N 
HETATM    7  C   UNL     1       6.259  32.294  59.612  1.00  0.00     0.148 C 
HETATM    8  S   UNL     1       5.344  32.947  60.965  1.00  0.00    -0.055 SA
HETATM    9  S   UNL     1       5.595  32.145  58.089  1.00  0.00    -0.052 SA
HETATM   10  C   UNL     1       6.700  32.920  62.014  1.00  0.00     0.076 C 
HETATM   11  C   UNL     1       6.838  33.457  63.235  1.00  0.00     0.036 C 
HETATM   12  C   UNL     1       7.838  32.229  61.352  1.00  0.00     0.266 C 
HETATM   13  O   UNL     1       8.897  31.978  61.910  1.00  0.00    -0.266 OA
BRANCH  11  14
HETATM   14  C   UNL     1       5.869  34.249  64.004  1.00  0.00    -0.035 A 
HETATM   15  C   UNL     1       5.149  33.619  65.028  1.00  0.00     0.011 A 
HETATM   16  C   UNL     1       4.273  34.349  65.836  1.00  0.00     0.001 A 
HETATM   17  C   UNL     1       4.111  35.717  65.631  1.00  0.00     0.000 A 
HETATM   18  C   UNL     1       4.833  36.358  64.627  1.00  0.00     0.001 A 
HETATM   19  C   UNL     1       5.716  35.631  63.826  1.00  0.00     0.011 A 
ENDBRANCH  11  14
ENDBRANCH   5   6
ENDBRANCH   4   5
ENDBRANCH   3   4
ENDBRANCH   2   3
ENDBRANCH   1   2
BRANCH   1  20
HETATM   20  C   UNL     1       6.254  27.867  56.622  1.00  0.00     0.222 C 
HETATM   21  N   UNL     1       5.875  26.569  56.454  1.00  0.00    -0.320 N 
HETATM   22  H   UNL     1       4.943  26.406  56.839  1.00  0.00     0.169 HD
HETATM   23  O   UNL     1       5.460  28.609  57.212  1.00  0.00    -0.273 OA
BRANCH  21  24
HETATM   24  C   UNL     1       6.461  25.453  55.878  1.00  0.00     0.093 A 
HETATM   25  S   UNL     1       7.513  24.435  56.728  1.00  0.00    -0.075 SA
HETATM   26  C   UNL     1       7.810  23.468  55.376  1.00  0.00    -0.008 A 
HETATM   27  C   UNL     1       7.083  23.861  54.267  1.00  0.00    -0.026 A 
HETATM   28  C   UNL     1       8.769  22.320  55.436  1.00  0.00     0.047 C 
HETATM   29  C   UNL     1       7.269  23.167  52.943  1.00  0.00     0.041 C 
HETATM   30  C   UNL     1       6.271  25.029  54.562  1.00  0.00     0.072 A 
HETATM   31  C   UNL     1       8.004  21.823  53.079  1.00  0.00     0.005 C 
HETATM   32  C   UNL     1       9.207  21.919  54.023  1.00  0.00     0.005 C 
BRANCH  30  33
HETATM   33  C   UNL     1       5.378  25.760  53.660  1.00  0.00     0.252 C 
HETATM   34  N   UNL     1       4.190  25.162  53.357  1.00  0.00    -0.366 N 
HETATM   35  H   UNL     1       3.814  24.451  53.966  1.00  0.00     0.159 HD
HETATM   36  H   UNL     1       3.525  25.752  52.874  1.00  0.00     0.159 HD
HETATM   37  O   UNL     1       5.618  26.892  53.251  1.00  0.00    -0.268 OA
ENDBRANCH  30  33
ENDBRANCH  21  24
ENDBRANCH   1  20
TORSDOF 9
ENDMDL
MODEL 3
REMARK VINA RESULT:     -10.0      2.126     11.132
REMARK  9 active torsions:
REMARK  status: ('A' for Active; 'I' for Inactive)
REMARK    1  A    between atoms: C_4  and  C_5 
REMARK    2  A    between atoms: N_10  and  C_11 
REMARK    3  A    between atoms: C_11  and  C_12 
REMARK    4  A    between atoms: C_12  and  C_13 
REMARK    5  A    between atoms: C_13  and  C_14 
REMARK    6  A    between atoms: C_14  and  C_15 
REMARK    7  A    between atoms: C_15  and  C_16 
REMARK       I    between atoms: C_16  and  N_17 
REMARK    8  A    between atoms: N_17  and  C_18 
REMARK    9  A    between atoms: C_26  and  C_27 
REMARK       I    between atoms: C_27  and  N_28 
ROOT
HETATM    1  C   UNL     1       3.869  31.279  58.323  1.00  0.00     0.103 C 
ENDROOT
BRANCH   1   2
HETATM    2  C   UNL     1       3.528  30.198  57.293  1.00  0.00     0.009 C 
BRANCH   2   3
HETATM    3  C   UNL     1       4.705  29.260  57.004  1.00  0.00     0.002 C 
BRANCH   3   4
HETATM    4  C   UNL     1       4.615  28.651  55.604  1.00  0.00     0.020 C 
BRANCH   4   5
HETATM    5  C   UNL     1       5.985  28.415  54.956  1.00  0.00     0.134 C 
BRANCH   5   6
HETATM    6  N   UNL     1       6.483  27.076  55.275  1.00  0.00    -0.298 N 
HETATM    7  C   UNL     1       7.441  26.797  56.228  1.00  0.00     0.148 C 
HETATM    8  S   UNL     1       7.838  25.084  56.188  1.00  0.00    -0.055 SA
HETATM    9  S   UNL     1       8.179  27.848  57.293  1.00  0.00    -0.052 SA
HETATM   10  C   UNL     1       6.851  24.794  54.817  1.00  0.00     0.076 C 
HETATM   11  C   UNL     1       6.766  23.698  54.049  1.00  0.00     0.036 C 
HETATM   12  C   UNL     1       6.064  26.013  54.492  1.00  0.00     0.266 C 
HETATM   13  O   UNL     1       5.203  26.055  53.624  1.00  0.00    -0.266 OA
BRANCH  11  14
HETATM   14  C   UNL     1       7.525  22.444  54.154  1.00  0.00    -0.035 A 
HETATM   15  C   UNL     1       7.689  21.862  55.418  1.00  0.00     0.011 A 
HETATM   16  C   UNL     1       8.336  20.632  55.558  1.00  0.00     0.001 A 
HETATM   17  C   UNL     1       8.824  19.969  54.434  1.00  0.00     0.000 A 
HETATM   18  C   UNL     1       8.653  20.529  53.170  1.00  0.00     0.001 A 
HETATM   19  C   UNL     1       7.997  21.753  53.030  1.00  0.00     0.011 A 
ENDBRANCH  11  14
ENDBRANCH   5   6
ENDBRANCH   4   5
ENDBRANCH   3   4
ENDBRANCH   2   3
ENDBRANCH   1   2
BRANCH   1  20
HETATM   20  C   UNL     1       4.716  32.410  57.773  1.00  0.00     0.222 C 
HETATM   21  N   UNL     1       5.500  33.192  58.569  1.00  0.00    -0.320 N 
HETATM   22  H   UNL     1       5.989  33.901  58.020  1.00  0.00     0.169 HD
HETATM   23  O   UNL     1       4.737  32.652  56.560  1.00  0.00    -0.273 OA
BRANCH  21  24
HETATM   24  C   UNL     1       5.762  33.237  59.929  1.00  0.00     0.093 A 
HETATM   25  S   UNL     1       4.751  34.036  61.026  1.00  0.00    -0.075 SA
HETATM   26  C   UNL     1       5.765  33.705  62.335  1.00  0.00    -0.008 A 
HETATM   27  C   UNL     1       6.862  32.940  61.983  1.00  0.00    -0.026 A 
HETATM   28  C   UNL     1       5.453  34.213  63.709  1.00  0.00     0.047 C 
HETATM   29  C   UNL     1       7.921  32.603  63.001  1.00  0.00     0.041 C 
HETATM   30  C   UNL     1       6.858  32.647  60.560  1.00  0.00     0.072 A 
HETATM   31  C   UNL     1       7.454  32.855  64.444  1.00  0.00     0.005 C 
HETATM   32  C   UNL     1       6.711  34.187  64.583  1.00  0.00     0.005 C 
BRANCH  30  33
HETATM   33  C   UNL     1       7.846  31.886  59.792  1.00  0.00     0.252 C 
HETATM   34  N   UNL     1       7.679  30.533  59.749  1.00  0.00    -0.366 N 
HETATM   35  H   UNL     1       6.772  30.132  59.936  1.00  0.00     0.159 HD
HETATM   36  H   UNL     1       8.267  30.049  59.083  1.00  0.00     0.159 HD
HETATM   37  O   UNL     1       8.740  32.414  59.138  1.00  0.00    -0.268 OA
ENDBRANCH  30  33
ENDBRANCH  21  24
ENDBRANCH   1  20
TORSDOF 9
ENDMDL
MODEL 4
REMARK VINA RESULT:      -9.7      1.782     10.606
REMARK  9 active torsions:
REMARK  status: ('A' for Active; 'I' for Inactive)
REMARK    1  A    between atoms: C_4  and  C_5 
REMARK    2  A    between atoms: N_10  and  C_11 
REMARK    3  A    between atoms: C_11  and  C_12 
REMARK    4  A    between atoms: C_12  and  C_13 
REMARK    5  A    between atoms: C_13  and  C_14 
REMARK    6  A    between atoms: C_14  and  C_15 
REMARK    7  A    between atoms: C_15  and  C_16 
REMARK       I    between atoms: C_16  and  N_17 
REMARK    8  A    between atoms: N_17  and  C_18 
REMARK    9  A    between atoms: C_26  and  C_27 
REMARK       I    between atoms: C_27  and  N_28 
ROOT
HETATM    1  C   UNL     1       8.298  28.997  57.603  1.00  0.00     0.103 C 
ENDROOT
BRANCH   1   2
HETATM    2  C   UNL     1       7.899  28.933  56.125  1.00  0.00     0.009 C 
BRANCH   2   3
HETATM    3  C   UNL     1       6.431  29.305  55.889  1.00  0.00     0.002 C 
BRANCH   3   4
HETATM    4  C   UNL     1       5.503  28.618  56.890  1.00  0.00     0.020 C 
BRANCH   4   5
HETATM    5  C   UNL     1       4.608  27.547  56.251  1.00  0.00     0.134 C 
BRANCH   5   6
HETATM    6  N   UNL     1       5.414  26.586  55.496  1.00  0.00    -0.298 N 
HETATM    7  C   UNL     1       5.410  26.462  54.122  1.00  0.00     0.148 C 
HETATM    8  S   UNL     1       6.416  25.099  53.646  1.00  0.00    -0.055 SA
HETATM    9  S   UNL     1       4.602  27.395  52.999  1.00  0.00    -0.052 SA
HETATM   10  C   UNL     1       6.701  24.625  55.269  1.00  0.00     0.076 C 
HETATM   11  C   UNL     1       7.271  23.506  55.738  1.00  0.00     0.036 C 
HETATM   12  C   UNL     1       6.148  25.645  56.199  1.00  0.00     0.266 C 
HETATM   13  O   UNL     1       6.300  25.612  57.412  1.00  0.00    -0.266 OA
BRANCH  11  14
HETATM   14  C   UNL     1       7.785  22.353  54.985  1.00  0.00    -0.035 A 
HETATM   15  C   UNL     1       8.083  21.175  55.682  1.00  0.00     0.011 A 
HETATM   16  C   UNL     1       8.501  20.030  55.000  1.00  0.00     0.001 A 
HETATM   17  C   UNL     1       8.621  20.049  53.613  1.00  0.00     0.000 A 
HETATM   18  C   UNL     1       8.312  21.209  52.906  1.00  0.00     0.001 A 
HETATM   19  C   UNL     1       7.885  22.351  53.587  1.00  0.00     0.011 A 
ENDBRANCH  11  14
ENDBRANCH   5   6
ENDBRANCH   4   5
ENDBRANCH   3   4
ENDBRANCH   2   3
ENDBRANCH   1   2
BRANCH   1  20
HETATM   20  C   UNL     1       9.338  30.056  57.916  1.00  0.00     0.222 C 
HETATM   21  N   UNL     1       9.093  31.094  58.766  1.00  0.00    -0.320 N 
HETATM   22  H   UNL     1       9.908  31.703  58.846  1.00  0.00     0.169 HD
HETATM   23  O   UNL     1      10.468  30.000  57.415  1.00  0.00    -0.273 OA
BRANCH  21  24
HETATM   24  C   UNL     1       8.000  31.495  59.518  1.00  0.00     0.093 A 
HETATM   25  S   UNL     1       6.544  31.994  58.815  1.00  0.00    -0.075 SA
HETATM   26  C   UNL     1       5.847  32.361  60.309  1.00  0.00    -0.008 A 
HETATM   27  C   UNL     1       6.679  32.067  61.374  1.00  0.00    -0.026 A 
HETATM   28  C   UNL     1       4.469  32.940  60.404  1.00  0.00     0.047 C 
HETATM   29  C   UNL     1       6.263  32.393  62.785  1.00  0.00     0.041 C 
HETATM   30  C   UNL     1       7.952  31.540  60.912  1.00  0.00     0.072 A 
HETATM   31  C   UNL     1       4.760  32.693  62.903  1.00  0.00     0.005 C 
HETATM   32  C   UNL     1       4.264  33.600  61.772  1.00  0.00     0.005 C 
BRANCH  30  33
HETATM   33  C   UNL     1       9.104  31.126  61.716  1.00  0.00     0.252 C 
HETATM   34  N   UNL     1       8.985  29.950  62.397  1.00  0.00    -0.366 N 
HETATM   35  H   UNL     1       8.309  29.263  62.100  1.00  0.00     0.159 HD
HETATM   36  H   UNL     1       9.844  29.604  62.806  1.00  0.00     0.159 HD
HETATM   37  O   UNL     1      10.167  31.738  61.730  1.00  0.00    -0.268 OA
ENDBRANCH  30  33
ENDBRANCH  21  24
ENDBRANCH   1  20
TORSDOF 9
ENDMDL
MODEL 5
REMARK VINA RESULT:      -9.7      3.074     11.653
REMARK  9 active torsions:
REMARK  status: ('A' for Active; 'I' for Inactive)
REMARK    1  A    between atoms: C_4  and  C_5 
REMARK    2  A    between atoms: N_10  and  C_11 
REMARK    3  A    between atoms: C_11  and  C_12 
REMARK    4  A    between atoms: C_12  and  C_13 
REMARK    5  A    between atoms: C_13  and  C_14 
REMARK    6  A    between atoms: C_14  and  C_15 
REMARK    7  A    between atoms: C_15  and  C_16 
REMARK       I    between atoms: C_16  and  N_17 
REMARK    8  A    between atoms: N_17  and  C_18 
REMARK    9  A    between atoms: C_26  and  C_27 
REMARK       I    between atoms: C_27  and  N_28 
ROOT
HETATM    1  C   UNL     1       5.420  32.499  59.035  1.00  0.00     0.103 C 
ENDROOT
BRANCH   1   2
HETATM    2  C   UNL     1       5.854  31.634  57.848  1.00  0.00     0.009 C 
BRANCH   2   3
HETATM    3  C   UNL     1       7.109  30.805  58.144  1.00  0.00     0.002 C 
BRANCH   3   4
HETATM    4  C   UNL     1       7.270  29.646  57.160  1.00  0.00     0.020 C 
BRANCH   4   5
HETATM    5  C   UNL     1       6.367  28.448  57.481  1.00  0.00     0.134 C 
BRANCH   5   6
HETATM    6  N   UNL     1       6.546  27.387  56.488  1.00  0.00    -0.298 N 
HETATM    7  C   UNL     1       5.771  27.226  55.359  1.00  0.00     0.148 C 
HETATM    8  S   UNL     1       6.242  25.752  54.520  1.00  0.00    -0.055 SA
HETATM    9  S   UNL     1       4.545  28.207  54.794  1.00  0.00    -0.052 SA
HETATM   10  C   UNL     1       7.346  25.296  55.751  1.00  0.00     0.076 C 
HETATM   11  C   UNL     1       7.998  24.138  55.918  1.00  0.00     0.036 C 
HETATM   12  C   UNL     1       7.477  26.394  56.745  1.00  0.00     0.266 C 
HETATM   13  O   UNL     1       8.274  26.379  57.673  1.00  0.00    -0.266 OA
BRANCH  11  14
HETATM   14  C   UNL     1       7.923  22.917  55.103  1.00  0.00    -0.035 A 
HETATM   15  C   UNL     1       8.047  23.030  53.712  1.00  0.00     0.011 A 
HETATM   16  C   UNL     1       8.058  21.892  52.902  1.00  0.00     0.001 A 
HETATM   17  C   UNL     1       7.951  20.627  53.476  1.00  0.00     0.000 A 
HETATM   18  C   UNL     1       7.843  20.500  54.859  1.00  0.00     0.001 A 
HETATM   19  C   UNL     1       7.842  21.638  55.669  1.00  0.00     0.011 A 
ENDBRANCH  11  14
ENDBRANCH   5   6
ENDBRANCH   4   5
ENDBRANCH   3   4
ENDBRANCH   2   3
ENDBRANCH   1   2
BRANCH   1  20
HETATM   20  C   UNL     1       4.021  32.198  59.539  1.00  0.00     0.222 C 
HETATM   21  N   UNL     1       3.649  32.409  60.834  1.00  0.00    -0.320 N 
HETATM   22  H   UNL     1       2.674  32.143  60.983  1.00  0.00     0.169 HD
HETATM   23  O   UNL     1       3.154  31.762  58.773  1.00  0.00    -0.273 OA
BRANCH  21  24
HETATM   24  C   UNL     1       4.294  32.885  61.964  1.00  0.00     0.093 A 
HETATM   25  S   UNL     1       5.909  32.519  62.314  1.00  0.00    -0.075 SA
HETATM   26  C   UNL     1       5.870  33.350  63.783  1.00  0.00    -0.008 A 
HETATM   27  C   UNL     1       4.654  33.964  64.019  1.00  0.00    -0.026 A 
HETATM   28  C   UNL     1       7.061  33.382  64.691  1.00  0.00     0.047 C 
HETATM   29  C   UNL     1       4.401  34.693  65.313  1.00  0.00     0.041 C 
HETATM   30  C   UNL     1       3.720  33.704  62.937  1.00  0.00     0.072 A 
HETATM   31  C   UNL     1       5.696  34.983  66.090  1.00  0.00     0.005 C 
HETATM   32  C   UNL     1       6.637  33.775  66.110  1.00  0.00     0.005 C 
BRANCH  30  33
HETATM   33  C   UNL     1       2.332  34.157  62.813  1.00  0.00     0.252 C 
HETATM   34  N   UNL     1       1.462  33.735  63.776  1.00  0.00    -0.366 N 
HETATM   35  H   UNL     1       1.812  33.431  64.672  1.00  0.00     0.159 HD
HETATM   36  H   UNL     1       0.559  34.191  63.766  1.00  0.00     0.159 HD
HETATM   37  O   UNL     1       1.958  34.945  61.951  1.00  0.00    -0.268 OA
ENDBRANCH  30  33
ENDBRANCH  21  24
ENDBRANCH   1  20
TORSDOF 9
ENDMDL
MODEL 6
REMARK VINA RESULT:      -9.6      1.806      2.094
REMARK  9 active torsions:
REMARK  status: ('A' for Active; 'I' for Inactive)
REMARK    1  A    between atoms: C_4  and  C_5 
REMARK    2  A    between atoms: N_10  and  C_11 
REMARK    3  A    between atoms: C_11  and  C_12 
REMARK    4  A    between atoms: C_12  and  C_13 
REMARK    5  A    between atoms: C_13  and  C_14 
REMARK    6  A    between atoms: C_14  and  C_15 
REMARK    7  A    between atoms: C_15  and  C_16 
REMARK       I    between atoms: C_16  and  N_17 
REMARK    8  A    between atoms: N_17  and  C_18 
REMARK    9  A    between atoms: C_26  and  C_27 
REMARK       I    between atoms: C_27  and  N_28 
ROOT
HETATM    1  C   UNL     1       6.232  28.575  54.727  1.00  0.00     0.103 C 
ENDROOT
BRANCH   1   2
HETATM    2  C   UNL     1       6.664  28.806  56.178  1.00  0.00     0.009 C 
BRANCH   2   3
HETATM    3  C   UNL     1       5.496  28.717  57.168  1.00  0.00     0.002 C 
BRANCH   3   4
HETATM    4  C   UNL     1       4.987  30.101  57.571  1.00  0.00     0.020 C 
BRANCH   4   5
HETATM    5  C   UNL     1       6.031  31.210  57.384  1.00  0.00     0.134 C 
BRANCH   5   6
HETATM    6  N   UNL     1       6.499  31.701  58.682  1.00  0.00    -0.298 N 
HETATM    7  C   UNL     1       7.647  31.277  59.318  1.00  0.00     0.148 C 
HETATM    8  S   UNL     1       7.756  32.022  60.908  1.00  0.00    -0.055 SA
HETATM    9  S   UNL     1       8.809  30.217  58.760  1.00  0.00    -0.052 SA
HETATM   10  C   UNL     1       6.213  32.758  60.768  1.00  0.00     0.076 C 
HETATM   11  C   UNL     1       5.486  33.386  61.703  1.00  0.00     0.036 C 
HETATM   12  C   UNL     1       5.682  32.564  59.393  1.00  0.00     0.266 C 
HETATM   13  O   UNL     1       4.646  33.072  58.987  1.00  0.00    -0.266 OA
BRANCH  11  14
HETATM   14  C   UNL     1       5.798  33.590  63.125  1.00  0.00    -0.035 A 
HETATM   15  C   UNL     1       4.739  33.659  64.041  1.00  0.00     0.011 A 
HETATM   16  C   UNL     1       4.989  33.776  65.410  1.00  0.00     0.001 A 
HETATM   17  C   UNL     1       6.300  33.819  65.879  1.00  0.00     0.000 A 
HETATM   18  C   UNL     1       7.361  33.734  64.980  1.00  0.00     0.001 A 
HETATM   19  C   UNL     1       7.111  33.608  63.612  1.00  0.00     0.011 A 
ENDBRANCH  11  14
ENDBRANCH   5   6
ENDBRANCH   4   5
ENDBRANCH   3   4
ENDBRANCH   2   3
ENDBRANCH   1   2
BRANCH   1  20
HETATM   20  C   UNL     1       4.892  27.877  54.587  1.00  0.00     0.222 C 
HETATM   21  N   UNL     1       4.783  26.527  54.431  1.00  0.00    -0.320 N 
HETATM   22  H   UNL     1       3.805  26.244  54.349  1.00  0.00     0.169 HD
HETATM   23  O   UNL     1       3.837  28.521  54.629  1.00  0.00    -0.273 OA
BRANCH  21  24
HETATM   24  C   UNL     1       5.691  25.482  54.353  1.00  0.00     0.093 A 
HETATM   25  S   UNL     1       6.232  24.854  52.878  1.00  0.00    -0.075 SA
HETATM   26  C   UNL     1       7.161  23.660  53.628  1.00  0.00    -0.008 A 
HETATM   27  C   UNL     1       7.123  23.740  55.008  1.00  0.00    -0.026 A 
HETATM   28  C   UNL     1       7.923  22.649  52.828  1.00  0.00     0.047 C 
HETATM   29  C   UNL     1       7.829  22.714  55.856  1.00  0.00     0.041 C 
HETATM   30  C   UNL     1       6.264  24.828  55.444  1.00  0.00     0.072 A 
HETATM   31  C   UNL     1       8.843  21.881  55.053  1.00  0.00     0.005 C 
HETATM   32  C   UNL     1       8.278  21.440  53.699  1.00  0.00     0.005 C 
BRANCH  30  33
HETATM   33  C   UNL     1       5.945  25.233  56.815  1.00  0.00     0.252 C 
HETATM   34  N   UNL     1       4.633  25.171  57.183  1.00  0.00    -0.366 N 
HETATM   35  H   UNL     1       3.996  24.576  56.675  1.00  0.00     0.159 HD
HETATM   36  H   UNL     1       4.460  25.292  58.172  1.00  0.00     0.159 HD
HETATM   37  O   UNL     1       6.800  25.535  57.641  1.00  0.00    -0.268 OA
ENDBRANCH  30  33
ENDBRANCH  21  24
ENDBRANCH   1  20
TORSDOF 9
ENDMDL
MODEL 7
REMARK VINA RESULT:      -9.2      3.103     12.084
REMARK  9 active torsions:
REMARK  status: ('A' for Active; 'I' for Inactive)
REMARK    1  A    between atoms: C_4  and  C_5 
REMARK    2  A    between atoms: N_10  and  C_11 
REMARK    3  A    between atoms: C_11  and  C_12 
REMARK    4  A    between atoms: C_12  and  C_13 
REMARK    5  A    between atoms: C_13  and  C_14 
REMARK    6  A    between atoms: C_14  and  C_15 
REMARK    7  A    between atoms: C_15  and  C_16 
REMARK       I    between atoms: C_16  and  N_17 
REMARK    8  A    between atoms: N_17  and  C_18 
REMARK    9  A    between atoms: C_26  and  C_27 
REMARK       I    between atoms: C_27  and  N_28 
ROOT
HETATM    1  C   UNL     1       5.355  32.762  58.871  1.00  0.00     0.103 C 
ENDROOT
BRANCH   1   2
HETATM    2  C   UNL     1       5.833  31.937  57.673  1.00  0.00     0.009 C 
BRANCH   2   3
HETATM    3  C   UNL     1       6.643  30.702  58.086  1.00  0.00     0.002 C 
BRANCH   3   4
HETATM    4  C   UNL     1       6.694  29.658  56.971  1.00  0.00     0.020 C 
BRANCH   4   5
HETATM    5  C   UNL     1       6.039  28.325  57.358  1.00  0.00     0.134 C 
BRANCH   5   6
HETATM    6  N   UNL     1       6.368  27.286  56.381  1.00  0.00    -0.298 N 
HETATM    7  C   UNL     1       5.736  27.117  55.166  1.00  0.00     0.148 C 
HETATM    8  S   UNL     1       6.352  25.673  54.372  1.00  0.00    -0.055 SA
HETATM    9  S   UNL     1       4.553  28.067  54.473  1.00  0.00    -0.052 SA
HETATM   10  C   UNL     1       7.318  25.234  55.719  1.00  0.00     0.076 C 
HETATM   11  C   UNL     1       7.985  24.094  55.948  1.00  0.00     0.036 C 
HETATM   12  C   UNL     1       7.295  26.320  56.734  1.00  0.00     0.266 C 
HETATM   13  O   UNL     1       7.979  26.316  57.749  1.00  0.00    -0.266 OA
BRANCH  11  14
HETATM   14  C   UNL     1       8.047  22.884  55.115  1.00  0.00    -0.035 A 
HETATM   15  C   UNL     1       7.799  21.642  55.717  1.00  0.00     0.011 A 
HETATM   16  C   UNL     1       7.772  20.474  54.953  1.00  0.00     0.001 A 
HETATM   17  C   UNL     1       7.986  20.534  53.578  1.00  0.00     0.000 A 
HETATM   18  C   UNL     1       8.217  21.764  52.965  1.00  0.00     0.001 A 
HETATM   19  C   UNL     1       8.235  22.933  53.728  1.00  0.00     0.011 A 
ENDBRANCH  11  14
ENDBRANCH   5   6
ENDBRANCH   4   5
ENDBRANCH   3   4
ENDBRANCH   2   3
ENDBRANCH   1   2
BRANCH   1  20
HETATM   20  C   UNL     1       3.849  32.916  58.953  1.00  0.00     0.222 C 
HETATM   21  N   UNL     1       3.250  33.848  59.749  1.00  0.00    -0.320 N 
HETATM   22  H   UNL     1       2.233  33.796  59.674  1.00  0.00     0.169 HD
HETATM   23  O   UNL     1       3.102  32.202  58.272  1.00  0.00    -0.273 OA
BRANCH  21  24
HETATM   24  C   UNL     1       3.713  34.818  60.624  1.00  0.00     0.093 A 
HETATM   25  S   UNL     1       4.234  36.341  60.104  1.00  0.00    -0.075 SA
HETATM   26  C   UNL     1       4.676  36.819  61.662  1.00  0.00    -0.008 A 
HETATM   27  C   UNL     1       4.393  35.859  62.617  1.00  0.00    -0.026 A 
HETATM   28  C   UNL     1       5.302  38.155  61.919  1.00  0.00     0.047 C 
HETATM   29  C   UNL     1       4.783  36.071  64.057  1.00  0.00     0.041 C 
HETATM   30  C   UNL     1       3.809  34.676  62.009  1.00  0.00     0.072 A 
HETATM   31  C   UNL     1       5.135  37.536  64.364  1.00  0.00     0.005 C 
HETATM   32  C   UNL     1       6.017  38.155  63.274  1.00  0.00     0.005 C 
BRANCH  30  33
HETATM   33  C   UNL     1       3.387  33.437  62.668  1.00  0.00     0.252 C 
HETATM   34  N   UNL     1       2.216  33.482  63.365  1.00  0.00    -0.366 N 
HETATM   35  H   UNL     1       1.535  34.197  63.159  1.00  0.00     0.159 HD
HETATM   36  H   UNL     1       1.862  32.583  63.667  1.00  0.00     0.159 HD
HETATM   37  O   UNL     1       3.988  32.374  62.545  1.00  0.00    -0.268 OA
ENDBRANCH  30  33
ENDBRANCH  21  24
ENDBRANCH   1  20
TORSDOF 9
ENDMDL
MODEL 8
REMARK VINA RESULT:      -9.1      2.539     10.800
REMARK  9 active torsions:
REMARK  status: ('A' for Active; 'I' for Inactive)
REMARK    1  A    between atoms: C_4  and  C_5 
REMARK    2  A    between atoms: N_10  and  C_11 
REMARK    3  A    between atoms: C_11  and  C_12 
REMARK    4  A    between atoms: C_12  and  C_13 
REMARK    5  A    between atoms: C_13  and  C_14 
REMARK    6  A    between atoms: C_14  and  C_15 
REMARK    7  A    between atoms: C_15  and  C_16 
REMARK       I    between atoms: C_16  and  N_17 
REMARK    8  A    between atoms: N_17  and  C_18 
REMARK    9  A    between atoms: C_26  and  C_27 
REMARK       I    between atoms: C_27  and  N_28 
ROOT
HETATM    1  C   UNL     1       3.852  30.400  57.799  1.00  0.00     0.103 C 
ENDROOT
BRANCH   1   2
HETATM    2  C   UNL     1       4.948  29.443  57.321  1.00  0.00     0.009 C 
BRANCH   2   3
HETATM    3  C   UNL     1       5.738  29.992  56.127  1.00  0.00     0.002 C 
BRANCH   3   4
HETATM    4  C   UNL     1       5.316  29.331  54.815  1.00  0.00     0.020 C 
BRANCH   4   5
HETATM    5  C   UNL     1       4.611  27.982  55.014  1.00  0.00     0.134 C 
BRANCH   5   6
HETATM    6  N   UNL     1       5.432  26.889  54.492  1.00  0.00    -0.298 N 
HETATM    7  C   UNL     1       5.530  26.543  53.160  1.00  0.00     0.148 C 
HETATM    8  S   UNL     1       6.513  25.093  52.993  1.00  0.00    -0.055 SA
HETATM    9  S   UNL     1       4.851  27.304  51.839  1.00  0.00    -0.052 SA
HETATM   10  C   UNL     1       6.651  24.882  54.689  1.00  0.00     0.076 C 
HETATM   11  C   UNL     1       7.136  23.838  55.377  1.00  0.00     0.036 C 
HETATM   12  C   UNL     1       6.070  26.055  55.395  1.00  0.00     0.266 C 
HETATM   13  O   UNL     1       6.126  26.215  56.606  1.00  0.00    -0.266 OA
BRANCH  11  14
HETATM   14  C   UNL     1       7.659  22.564  54.863  1.00  0.00    -0.035 A 
HETATM   15  C   UNL     1       7.892  21.521  55.769  1.00  0.00     0.011 A 
HETATM   16  C   UNL     1       8.316  20.268  55.319  1.00  0.00     0.001 A 
HETATM   17  C   UNL     1       8.506  20.044  53.957  1.00  0.00     0.000 A 
HETATM   18  C   UNL     1       8.262  21.068  53.045  1.00  0.00     0.001 A 
HETATM   19  C   UNL     1       7.829  22.317  53.495  1.00  0.00     0.011 A 
ENDBRANCH  11  14
ENDBRANCH   5   6
ENDBRANCH   4   5
ENDBRANCH   3   4
ENDBRANCH   2   3
ENDBRANCH   1   2
BRANCH   1  20
HETATM   20  C   UNL     1       4.041  31.833  57.339  1.00  0.00     0.222 C 
HETATM   21  N   UNL     1       4.852  32.711  57.994  1.00  0.00    -0.320 N 
HETATM   22  H   UNL     1       4.846  33.626  57.540  1.00  0.00     0.169 HD
HETATM   23  O   UNL     1       3.470  32.251  56.324  1.00  0.00    -0.273 OA
BRANCH  21  24
HETATM   24  C   UNL     1       5.654  32.636  59.123  1.00  0.00     0.093 A 
HETATM   25  S   UNL     1       7.201  31.951  59.097  1.00  0.00    -0.075 SA
HETATM   26  C   UNL     1       7.418  32.167  60.758  1.00  0.00    -0.008 A 
HETATM   27  C   UNL     1       6.350  32.807  61.359  1.00  0.00    -0.026 A 
HETATM   28  C   UNL     1       8.661  31.695  61.448  1.00  0.00     0.047 C 
HETATM   29  C   UNL     1       6.325  33.023  62.850  1.00  0.00     0.041 C 
HETATM   30  C   UNL     1       5.306  33.100  60.392  1.00  0.00     0.072 A 
HETATM   31  C   UNL     1       7.706  32.823  63.498  1.00  0.00     0.005 C 
HETATM   32  C   UNL     1       8.419  31.580  62.957  1.00  0.00     0.005 C 
BRANCH  30  33
HETATM   33  C   UNL     1       4.014  33.749  60.626  1.00  0.00     0.252 C 
HETATM   34  N   UNL     1       4.044  35.074  60.950  1.00  0.00    -0.366 N 
HETATM   35  H   UNL     1       4.849  35.633  60.711  1.00  0.00     0.159 HD
HETATM   36  H   UNL     1       3.144  35.537  60.942  1.00  0.00     0.159 HD
HETATM   37  O   UNL     1       2.939  33.182  60.462  1.00  0.00    -0.268 OA
ENDBRANCH  30  33
ENDBRANCH  21  24
ENDBRANCH   1  20
TORSDOF 9
ENDMDL
MODEL 9
REMARK VINA RESULT:      -9.1      2.294      2.784
REMARK  9 active torsions:
REMARK  status: ('A' for Active; 'I' for Inactive)
REMARK    1  A    between atoms: C_4  and  C_5 
REMARK    2  A    between atoms: N_10  and  C_11 
REMARK    3  A    between atoms: C_11  and  C_12 
REMARK    4  A    between atoms: C_12  and  C_13 
REMARK    5  A    between atoms: C_13  and  C_14 
REMARK    6  A    between atoms: C_14  and  C_15 
REMARK    7  A    between atoms: C_15  and  C_16 
REMARK       I    between atoms: C_16  and  N_17 
REMARK    8  A    between atoms: N_17  and  C_18 
REMARK    9  A    between atoms: C_26  and  C_27 
REMARK       I    between atoms: C_27  and  N_28 
ROOT
HETATM    1  C   UNL     1       6.165  28.526  54.815  1.00  0.00     0.103 C 
ENDROOT
BRANCH   1   2
HETATM    2  C   UNL     1       6.539  28.984  56.228  1.00  0.00     0.009 C 
BRANCH   2   3
HETATM    3  C   UNL     1       5.913  30.333  56.600  1.00  0.00     0.002 C 
BRANCH   3   4
HETATM    4  C   UNL     1       4.801  30.177  57.637  1.00  0.00     0.020 C 
BRANCH   4   5
HETATM    5  C   UNL     1       3.659  31.185  57.459  1.00  0.00     0.134 C 
BRANCH   5   6
HETATM    6  N   UNL     1       3.721  32.223  58.489  1.00  0.00    -0.298 N 
HETATM    7  C   UNL     1       4.190  33.505  58.290  1.00  0.00     0.148 C 
HETATM    8  S   UNL     1       4.214  34.373  59.820  1.00  0.00    -0.055 SA
HETATM    9  S   UNL     1       4.693  34.215  56.866  1.00  0.00    -0.052 SA
HETATM   10  C   UNL     1       3.752  32.987  60.718  1.00  0.00     0.076 C 
HETATM   11  C   UNL     1       3.728  32.807  62.046  1.00  0.00     0.036 C 
HETATM   12  C   UNL     1       3.405  31.877  59.792  1.00  0.00     0.266 C 
HETATM   13  O   UNL     1       2.944  30.805  60.160  1.00  0.00    -0.266 OA
BRANCH  11  14
HETATM   14  C   UNL     1       4.123  33.745  63.107  1.00  0.00    -0.035 A 
HETATM   15  C   UNL     1       5.459  33.753  63.531  1.00  0.00     0.011 A 
HETATM   16  C   UNL     1       5.899  34.677  64.481  1.00  0.00     0.001 A 
HETATM   17  C   UNL     1       5.009  35.607  65.014  1.00  0.00     0.000 A 
HETATM   18  C   UNL     1       3.683  35.620  64.588  1.00  0.00     0.001 A 
HETATM   19  C   UNL     1       3.246  34.702  63.631  1.00  0.00     0.011 A 
ENDBRANCH  11  14
ENDBRANCH   5   6
ENDBRANCH   4   5
ENDBRANCH   3   4
ENDBRANCH   2   3
ENDBRANCH   1   2
BRANCH   1  20
HETATM   20  C   UNL     1       4.831  27.809  54.732  1.00  0.00     0.222 C 
HETATM   21  N   UNL     1       4.734  26.456  54.590  1.00  0.00    -0.320 N 
HETATM   22  H   UNL     1       3.757  26.161  54.548  1.00  0.00     0.169 HD
HETATM   23  O   UNL     1       3.769  28.439  54.811  1.00  0.00    -0.273 OA
BRANCH  21  24
HETATM   24  C   UNL     1       5.652  25.424  54.484  1.00  0.00     0.093 A 
HETATM   25  S   UNL     1       6.179  24.823  52.992  1.00  0.00    -0.075 SA
HETATM   26  C   UNL     1       7.131  23.628  53.712  1.00  0.00    -0.008 A 
HETATM   27  C   UNL     1       7.113  23.689  55.093  1.00  0.00    -0.026 A 
HETATM   28  C   UNL     1       7.893  22.638  52.885  1.00  0.00     0.047 C 
HETATM   29  C   UNL     1       7.843  22.659  55.915  1.00  0.00     0.041 C 
HETATM   30  C   UNL     1       6.249  24.760  55.557  1.00  0.00     0.072 A 
HETATM   31  C   UNL     1       8.854  21.849  55.086  1.00  0.00     0.005 C 
HETATM   32  C   UNL     1       8.274  21.420  53.734  1.00  0.00     0.005 C 
BRANCH  30  33
HETATM   33  C   UNL     1       5.945  25.142  56.938  1.00  0.00     0.252 C 
HETATM   34  N   UNL     1       7.004  25.494  57.723  1.00  0.00    -0.366 N 
HETATM   35  H   UNL     1       7.868  25.797  57.297  1.00  0.00     0.159 HD
HETATM   36  H   UNL     1       6.758  25.912  58.611  1.00  0.00     0.159 HD
HETATM   37  O   UNL     1       4.802  25.235  57.373  1.00  0.00    -0.268 OA
ENDBRANCH  30  33
ENDBRANCH  21  24
ENDBRANCH   1  20
TORSDOF 9
ENDMDL
MODEL 10
REMARK VINA RESULT:      -9.0      6.472      9.542
REMARK  9 active torsions:
REMARK  status: ('A' for Active; 'I' for Inactive)
REMARK    1  A    between atoms: C_4  and  C_5 
REMARK    2  A    between atoms: N_10  and  C_11 
REMARK    3  A    between atoms: C_11  and  C_12 
REMARK    4  A    between atoms: C_12  and  C_13 
REMARK    5  A    between atoms: C_13  and  C_14 
REMARK    6  A    between atoms: C_14  and  C_15 
REMARK    7  A    between atoms: C_15  and  C_16 
REMARK       I    between atoms: C_16  and  N_17 
REMARK    8  A    between atoms: N_17  and  C_18 
REMARK    9  A    between atoms: C_26  and  C_27 
REMARK       I    between atoms: C_27  and  N_28 
ROOT
HETATM    1  C   UNL     1       5.036  26.642  53.316  1.00  0.00     0.103 C 
ENDROOT
BRANCH   1   2
HETATM    2  C   UNL     1       4.654  27.437  52.064  1.00  0.00     0.009 C 
BRANCH   2   3
HETATM    3  C   UNL     1       5.365  26.937  50.801  1.00  0.00     0.002 C 
BRANCH   3   4
HETATM    4  C   UNL     1       4.881  27.668  49.549  1.00  0.00     0.020 C 
BRANCH   4   5
HETATM    5  C   UNL     1       3.802  28.719  49.840  1.00  0.00     0.134 C 
BRANCH   5   6
HETATM    6  N   UNL     1       4.093  29.967  49.131  1.00  0.00    -0.298 N 
HETATM    7  C   UNL     1       3.514  30.350  47.939  1.00  0.00     0.148 C 
HETATM    8  S   UNL     1       4.248  31.846  47.375  1.00  0.00    -0.055 SA
HETATM    9  S   UNL     1       2.309  29.581  47.078  1.00  0.00    -0.052 SA
HETATM   10  C   UNL     1       5.408  31.859  48.638  1.00  0.00     0.076 C 
HETATM   11  C   UNL     1       6.487  32.640  48.790  1.00  0.00     0.036 C 
HETATM   12  C   UNL     1       5.108  30.776  49.612  1.00  0.00     0.266 C 
HETATM   13  O   UNL     1       5.714  30.621  50.664  1.00  0.00    -0.266 OA
BRANCH  11  14
HETATM   14  C   UNL     1       6.995  33.688  47.894  1.00  0.00    -0.035 A 
HETATM   15  C   UNL     1       7.298  34.945  48.435  1.00  0.00     0.011 A 
HETATM   16  C   UNL     1       7.854  35.948  47.637  1.00  0.00     0.001 A 
HETATM   17  C   UNL     1       8.119  35.703  46.292  1.00  0.00     0.000 A 
HETATM   18  C   UNL     1       7.837  34.453  45.746  1.00  0.00     0.001 A 
HETATM   19  C   UNL     1       7.290  33.447  46.546  1.00  0.00     0.011 A 
ENDBRANCH  11  14
ENDBRANCH   5   6
ENDBRANCH   4   5
ENDBRANCH   3   4
ENDBRANCH   2   3
ENDBRANCH   1   2
BRANCH   1  20
HETATM   20  C   UNL     1       6.217  27.216  54.075  1.00  0.00     0.222 C 
HETATM   21  N   UNL     1       7.254  26.444  54.508  1.00  0.00    -0.320 N 
HETATM   22  H   UNL     1       7.949  27.006  55.002  1.00  0.00     0.169 HD
HETATM   23  O   UNL     1       6.286  28.428  54.313  1.00  0.00    -0.273 OA
BRANCH  21  24
HETATM   24  C   UNL     1       7.556  25.093  54.433  1.00  0.00     0.093 A 
HETATM   25  S   UNL     1       7.946  24.326  52.976  1.00  0.00    -0.075 SA
HETATM   26  C   UNL     1       8.071  22.809  53.708  1.00  0.00    -0.008 A 
HETATM   27  C   UNL     1       7.871  22.856  55.075  1.00  0.00    -0.026 A 
HETATM   28  C   UNL     1       8.370  21.580  52.905  1.00  0.00     0.047 C 
HETATM   29  C   UNL     1       7.869  21.592  55.894  1.00  0.00     0.041 C 
HETATM   30  C   UNL     1       7.579  24.210  55.513  1.00  0.00     0.072 A 
HETATM   31  C   UNL     1       8.470  20.396  55.136  1.00  0.00     0.005 C 
HETATM   32  C   UNL     1       7.973  20.325  53.689  1.00  0.00     0.005 C 
BRANCH  30  33
HETATM   33  C   UNL     1       7.291  24.678  56.871  1.00  0.00     0.252 C 
HETATM   34  N   UNL     1       8.313  24.609  57.772  1.00  0.00    -0.366 N 
HETATM   35  H   UNL     1       9.268  24.567  57.449  1.00  0.00     0.159 HD
HETATM   36  H   UNL     1       8.145  25.088  58.648  1.00  0.00     0.159 HD
HETATM   37  O   UNL     1       6.224  25.192  57.192  1.00  0.00    -0.268 OA
ENDBRANCH  30  33
ENDBRANCH  21  24
ENDBRANCH   1  20
TORSDOF 9
ENDMDL
