MODEL 1
REMARK VINA RESULT:      -9.2      0.000      0.000
REMARK  3 active torsions:
REMARK  status: ('A' for Active; 'I' for Inactive)
REMARK    1  A    between atoms: N_7  and  C_9 
REMARK    2  A    between atoms: C_9  and  C_10 
REMARK    3  A    between atoms: C_13  and  C_14 
ROOT
HETATM    1  C   UNL     1       6.440  24.096  53.075  1.00  0.00     0.269 C 
HETATM    2  N   UNL     1       6.579  24.781  54.420  1.00  0.00    -0.074 N 
HETATM    3  H   UNL     1       5.612  24.886  54.759  1.00  0.00     0.279 HD
HETATM    4  C   UNL     1       7.226  26.139  54.291  1.00  0.00     0.245 C 
HETATM    5  C   UNL     1       7.255  26.901  55.653  1.00  0.00     0.008 C 
HETATM    6  C   UNL     1       8.087  28.203  55.430  1.00  0.00     0.246 C 
HETATM    7  N   UNL     1       7.946  29.243  56.519  1.00  0.00    -0.063 N 
HETATM    8  H   UNL     1       8.305  30.112  56.083  1.00  0.00     0.280 HD
HETATM    9  C   UNL     1       6.523  29.567  56.883  1.00  0.00     0.235 C 
HETATM   10  C   UNL     1       5.769  28.293  57.225  1.00  0.00     0.029 C 
HETATM   11  C   UNL     1       5.814  27.288  56.075  1.00  0.00     0.014 C 
HETATM   12  C   UNL     1       7.924  25.974  56.700  1.00  0.00     0.014 C 
HETATM   13  C   UNL     1       7.331  24.563  56.757  1.00  0.00     0.029 C 
HETATM   14  C   UNL     1       7.302  23.885  55.397  1.00  0.00     0.234 C 
ENDROOT
BRANCH   7  15
HETATM   15  C   UNL     1       8.891  29.134  57.728  1.00  0.00     0.323 C 
BRANCH  15  16
HETATM   16  C   UNL     1       8.808  30.309  58.630  1.00  0.00     0.199 A 
HETATM   17  O   UNL     1       9.582  31.382  58.334  1.00  0.00    -0.194 OA
HETATM   18  N   UNL     1       9.300  32.338  59.300  1.00  0.00    -0.106 NA
HETATM   19  C   UNL     1       8.403  31.746  60.106  1.00  0.00     0.189 A 
HETATM   20  N   UNL     1       8.028  30.482  59.674  1.00  0.00    -0.202 NA
BRANCH  19  21
HETATM   21  C   UNL     1       7.855  32.357  61.313  1.00  0.00     0.016 A 
HETATM   22  C   UNL     1       6.640  33.054  61.261  1.00  0.00     0.039 A 
HETATM   23  C   UNL     1       6.106  33.626  62.416  1.00  0.00     0.035 A 
HETATM   24 CL   UNL     1       4.614  34.479  62.323  1.00  0.00    -0.084 Cl
HETATM   25  C   UNL     1       6.767  33.513  63.635  1.00  0.00     0.024 A 
HETATM   26  C   UNL     1       7.975  32.821  63.700  1.00  0.00     0.003 A 
HETATM   27  C   UNL     1       8.517  32.246  62.547  1.00  0.00     0.015 A 
ENDBRANCH  19  21
ENDBRANCH  15  16
ENDBRANCH   7  15
TORSDOF 3
ENDMDL
MODEL 2
REMARK VINA RESULT:      -8.8      7.941     10.836
REMARK  3 active torsions:
REMARK  status: ('A' for Active; 'I' for Inactive)
REMARK    1  A    between atoms: N_7  and  C_9 
REMARK    2  A    between atoms: C_9  and  C_10 
REMARK    3  A    between atoms: C_13  and  C_14 
ROOT
HETATM    1  C   UNL     1       0.825  30.879  46.006  1.00  0.00     0.269 C 
HETATM    2  N   UNL     1       2.089  30.137  46.392  1.00  0.00    -0.074 N 
HETATM    3  H   UNL     1       2.180  29.394  45.684  1.00  0.00     0.279 HD
HETATM    4  C   UNL     1       1.978  29.523  47.767  1.00  0.00     0.245 C 
HETATM    5  C   UNL     1       3.224  28.651  48.117  1.00  0.00     0.008 C 
HETATM    6  C   UNL     1       3.071  28.213  49.608  1.00  0.00     0.246 C 
HETATM    7  N   UNL     1       3.986  27.088  50.038  1.00  0.00    -0.063 N 
HETATM    8  H   UNL     1       3.560  26.742  50.917  1.00  0.00     0.280 HD
HETATM    9  C   UNL     1       3.973  25.896  49.120  1.00  0.00     0.235 C 
HETATM   10  C   UNL     1       4.256  26.333  47.693  1.00  0.00     0.029 C 
HETATM   11  C   UNL     1       3.256  27.388  47.219  1.00  0.00     0.014 C 
HETATM   12  C   UNL     1       4.487  29.527  47.911  1.00  0.00     0.014 C 
HETATM   13  C   UNL     1       4.546  30.230  46.551  1.00  0.00     0.029 C 
HETATM   14  C   UNL     1       3.294  31.037  46.256  1.00  0.00     0.234 C 
ENDROOT
BRANCH   7  15
HETATM   15  C   UNL     1       5.387  27.470  50.546  1.00  0.00     0.323 C 
BRANCH  15  16
HETATM   16  C   UNL     1       5.790  26.704  51.750  1.00  0.00     0.199 A 
HETATM   17  O   UNL     1       5.372  27.164  52.955  1.00  0.00    -0.194 OA
HETATM   18  N   UNL     1       5.853  26.267  53.898  1.00  0.00    -0.106 NA
HETATM   19  C   UNL     1       6.540  25.361  53.180  1.00  0.00     0.189 A 
HETATM   20  N   UNL     1       6.469  25.580  51.812  1.00  0.00    -0.202 NA
BRANCH  19  21
HETATM   21  C   UNL     1       7.282  24.247  53.760  1.00  0.00     0.016 A 
HETATM   22  C   UNL     1       7.416  23.045  53.050  1.00  0.00     0.039 A 
HETATM   23  C   UNL     1       8.139  21.982  53.595  1.00  0.00     0.035 A 
HETATM   24 CL   UNL     1       8.284  20.518  52.705  1.00  0.00    -0.084 Cl
HETATM   25  C   UNL     1       8.738  22.099  54.846  1.00  0.00     0.024 A 
HETATM   26  C   UNL     1       8.613  23.289  55.560  1.00  0.00     0.003 A 
HETATM   27  C   UNL     1       7.890  24.358  55.021  1.00  0.00     0.015 A 
ENDBRANCH  19  21
ENDBRANCH  15  16
ENDBRANCH   7  15
TORSDOF 3
ENDMDL
MODEL 3
REMARK VINA RESULT:      -8.5      4.866      9.588
REMARK  3 active torsions:
REMARK  status: ('A' for Active; 'I' for Inactive)
REMARK    1  A    between atoms: N_7  and  C_9 
REMARK    2  A    between atoms: C_9  and  C_10 
REMARK    3  A    between atoms: C_13  and  C_14 
ROOT
HETATM    1  C   UNL     1       4.489  33.256  58.154  1.00  0.00     0.269 C 
HETATM    2  N   UNL     1       4.419  31.966  57.361  1.00  0.00    -0.074 N 
HETATM    3  H   UNL     1       3.862  31.330  57.949  1.00  0.00     0.279 HD
HETATM    4  C   UNL     1       5.791  31.379  57.127  1.00  0.00     0.245 C 
HETATM    5  C   UNL     1       5.716  29.987  56.425  1.00  0.00     0.008 C 
HETATM    6  C   UNL     1       7.181  29.565  56.090  1.00  0.00     0.246 C 
HETATM    7  N   UNL     1       7.356  28.108  55.725  1.00  0.00    -0.063 N 
HETATM    8  H   UNL     1       8.374  27.945  55.825  1.00  0.00     0.280 HD
HETATM    9  C   UNL     1       6.724  27.148  56.694  1.00  0.00     0.235 C 
HETATM   10  C   UNL     1       5.261  27.501  56.901  1.00  0.00     0.029 C 
HETATM   11  C   UNL     1       5.094  28.941  57.384  1.00  0.00     0.014 C 
HETATM   12  C   UNL     1       4.866  30.153  55.137  1.00  0.00     0.014 C 
HETATM   13  C   UNL     1       3.517  30.842  55.362  1.00  0.00     0.029 C 
HETATM   14  C   UNL     1       3.653  32.176  56.076  1.00  0.00     0.234 C 
ENDROOT
BRANCH   7  15
HETATM   15  C   UNL     1       7.163  27.721  54.248  1.00  0.00     0.323 C 
BRANCH  15  16
HETATM   16  C   UNL     1       6.958  26.264  54.057  1.00  0.00     0.199 A 
HETATM   17  O   UNL     1       5.733  25.852  53.652  1.00  0.00    -0.194 OA
HETATM   18  N   UNL     1       5.813  24.472  53.524  1.00  0.00    -0.106 NA
HETATM   19  C   UNL     1       7.072  24.174  53.889  1.00  0.00     0.189 A 
HETATM   20  N   UNL     1       7.838  25.295  54.176  1.00  0.00    -0.202 NA
BRANCH  19  21
HETATM   21  C   UNL     1       7.603  22.818  53.972  1.00  0.00     0.016 A 
HETATM   22  C   UNL     1       7.933  22.265  55.218  1.00  0.00     0.039 A 
HETATM   23  C   UNL     1       8.427  20.962  55.302  1.00  0.00     0.035 A 
HETATM   24 CL   UNL     1       8.828  20.310  56.842  1.00  0.00    -0.084 Cl
HETATM   25  C   UNL     1       8.598  20.193  54.155  1.00  0.00     0.024 A 
HETATM   26  C   UNL     1       8.271  20.731  52.911  1.00  0.00     0.003 A 
HETATM   27  C   UNL     1       7.777  22.035  52.819  1.00  0.00     0.015 A 
ENDBRANCH  19  21
ENDBRANCH  15  16
ENDBRANCH   7  15
TORSDOF 3
ENDMDL
MODEL 4
REMARK VINA RESULT:      -8.3      7.923     10.340
REMARK  3 active torsions:
REMARK  status: ('A' for Active; 'I' for Inactive)
REMARK    1  A    between atoms: N_7  and  C_9 
REMARK    2  A    between atoms: C_9  and  C_10 
REMARK    3  A    between atoms: C_13  and  C_14 
ROOT
HETATM    1  C   UNL     1       4.967  32.855  47.365  1.00  0.00     0.269 C 
HETATM    2  N   UNL     1       4.419  31.550  47.907  1.00  0.00    -0.074 N 
HETATM    3  H   UNL     1       3.465  31.780  48.221  1.00  0.00     0.279 HD
HETATM    4  C   UNL     1       5.233  31.043  49.073  1.00  0.00     0.245 C 
HETATM    5  C   UNL     1       4.599  29.770  49.716  1.00  0.00     0.008 C 
HETATM    6  C   UNL     1       5.607  29.250  50.789  1.00  0.00     0.246 C 
HETATM    7  N   UNL     1       5.038  28.240  51.760  1.00  0.00    -0.063 N 
HETATM    8  H   UNL     1       5.718  28.234  52.542  1.00  0.00     0.280 HD
HETATM    9  C   UNL     1       3.739  28.656  52.395  1.00  0.00     0.235 C 
HETATM   10  C   UNL     1       2.731  29.030  51.322  1.00  0.00     0.029 C 
HETATM   11  C   UNL     1       3.264  30.137  50.412  1.00  0.00     0.014 C 
HETATM   12  C   UNL     1       4.385  28.727  48.589  1.00  0.00     0.014 C 
HETATM   13  C   UNL     1       3.647  29.273  47.363  1.00  0.00     0.029 C 
HETATM   14  C   UNL     1       4.294  30.528  46.802  1.00  0.00     0.234 C 
ENDROOT
BRANCH   7  15
HETATM   15  C   UNL     1       5.086  26.758  51.348  1.00  0.00     0.323 C 
BRANCH  15  16
HETATM   16  C   UNL     1       5.997  25.954  52.198  1.00  0.00     0.199 A 
HETATM   17  O   UNL     1       6.936  26.620  52.915  1.00  0.00    -0.194 OA
HETATM   18  N   UNL     1       7.627  25.656  53.634  1.00  0.00    -0.106 NA
HETATM   19  C   UNL     1       7.061  24.493  53.268  1.00  0.00     0.189 A 
HETATM   20  N   UNL     1       5.988  24.656  52.403  1.00  0.00    -0.202 NA
BRANCH  19  21
HETATM   21  C   UNL     1       7.506  23.182  53.728  1.00  0.00     0.016 A 
HETATM   22  C   UNL     1       7.666  22.934  55.099  1.00  0.00     0.039 A 
HETATM   23  C   UNL     1       8.077  21.676  55.544  1.00  0.00     0.035 A 
HETATM   24 CL   UNL     1       8.268  21.400  57.231  1.00  0.00    -0.084 Cl
HETATM   25  C   UNL     1       8.332  20.652  54.637  1.00  0.00     0.024 A 
HETATM   26  C   UNL     1       8.175  20.886  53.273  1.00  0.00     0.003 A 
HETATM   27  C   UNL     1       7.765  22.143  52.819  1.00  0.00     0.015 A 
ENDBRANCH  19  21
ENDBRANCH  15  16
ENDBRANCH   7  15
TORSDOF 3
ENDMDL
MODEL 5
REMARK VINA RESULT:      -8.2      4.472      9.354
REMARK  3 active torsions:
REMARK  status: ('A' for Active; 'I' for Inactive)
REMARK    1  A    between atoms: N_7  and  C_9 
REMARK    2  A    between atoms: C_9  and  C_10 
REMARK    3  A    between atoms: C_13  and  C_14 
ROOT
HETATM    1  C   UNL     1       4.363  35.211  58.788  1.00  0.00     0.269 C 
HETATM    2  N   UNL     1       4.517  33.703  58.774  1.00  0.00    -0.074 N 
HETATM    3  H   UNL     1       5.338  33.520  59.369  1.00  0.00     0.279 HD
HETATM    4  C   UNL     1       4.769  33.180  57.380  1.00  0.00     0.245 C 
HETATM    5  C   UNL     1       5.056  31.646  57.377  1.00  0.00     0.008 C 
HETATM    6  C   UNL     1       5.133  31.198  55.884  1.00  0.00     0.246 C 
HETATM    7  N   UNL     1       5.741  29.832  55.659  1.00  0.00    -0.063 N 
HETATM    8  H   UNL     1       5.978  29.827  54.650  1.00  0.00     0.280 HD
HETATM    9  C   UNL     1       7.056  29.619  56.356  1.00  0.00     0.235 C 
HETATM   10  C   UNL     1       6.921  29.934  57.835  1.00  0.00     0.029 C 
HETATM   11  C   UNL     1       6.416  31.360  58.062  1.00  0.00     0.014 C 
HETATM   12  C   UNL     1       3.888  30.945  58.119  1.00  0.00     0.014 C 
HETATM   13  C   UNL     1       3.568  31.545  59.492  1.00  0.00     0.029 C 
HETATM   14  C   UNL     1       3.329  33.044  59.434  1.00  0.00     0.234 C 
ENDROOT
BRANCH   7  15
HETATM   15  C   UNL     1       4.796  28.619  55.723  1.00  0.00     0.323 C 
BRANCH  15  16
HETATM   16  C   UNL     1       5.291  27.464  54.934  1.00  0.00     0.199 A 
HETATM   17  O   UNL     1       4.972  27.422  53.617  1.00  0.00    -0.194 OA
HETATM   18  N   UNL     1       5.569  26.275  53.112  1.00  0.00    -0.106 NA
HETATM   19  C   UNL     1       6.172  25.715  54.174  1.00  0.00     0.189 A 
HETATM   20  N   UNL     1       6.062  26.476  55.330  1.00  0.00    -0.202 NA
BRANCH  19  21
HETATM   21  C   UNL     1       6.886  24.444  54.137  1.00  0.00     0.016 A 
HETATM   22  C   UNL     1       7.205  23.780  55.330  1.00  0.00     0.039 A 
HETATM   23  C   UNL     1       7.874  22.555  55.297  1.00  0.00     0.035 A 
HETATM   24 CL   UNL     1       8.257  21.764  56.776  1.00  0.00    -0.084 Cl
HETATM   25  C   UNL     1       8.232  21.974  54.085  1.00  0.00     0.024 A 
HETATM   26  C   UNL     1       7.918  22.623  52.892  1.00  0.00     0.003 A 
HETATM   27  C   UNL     1       7.249  23.851  52.917  1.00  0.00     0.015 A 
ENDBRANCH  19  21
ENDBRANCH  15  16
ENDBRANCH   7  15
TORSDOF 3
ENDMDL
MODEL 6
REMARK VINA RESULT:      -8.0      4.232      9.361
REMARK  3 active torsions:
REMARK  status: ('A' for Active; 'I' for Inactive)
REMARK    1  A    between atoms: N_7  and  C_9 
REMARK    2  A    between atoms: C_9  and  C_10 
REMARK    3  A    between atoms: C_13  and  C_14 
ROOT
HETATM    1  C   UNL     1       3.404  32.905  61.135  1.00  0.00     0.269 C 
HETATM    2  N   UNL     1       4.315  32.595  59.964  1.00  0.00    -0.074 N 
HETATM    3  H   UNL     1       4.216  33.406  59.336  1.00  0.00     0.279 HD
HETATM    4  C   UNL     1       3.892  31.337  59.245  1.00  0.00     0.245 C 
HETATM    5  C   UNL     1       4.746  31.083  57.963  1.00  0.00     0.008 C 
HETATM    6  C   UNL     1       4.332  29.685  57.407  1.00  0.00     0.246 C 
HETATM    7  N   UNL     1       4.784  29.403  55.991  1.00  0.00    -0.063 N 
HETATM    8  H   UNL     1       4.195  28.603  55.695  1.00  0.00     0.280 HD
HETATM    9  C   UNL     1       4.456  30.494  55.009  1.00  0.00     0.235 C 
HETATM   10  C   UNL     1       4.987  31.826  55.512  1.00  0.00     0.029 C 
HETATM   11  C   UNL     1       4.435  32.164  56.897  1.00  0.00     0.014 C 
HETATM   12  C   UNL     1       6.240  31.108  58.378  1.00  0.00     0.014 C 
HETATM   13  C   UNL     1       6.643  32.339  59.196  1.00  0.00     0.029 C 
HETATM   14  C   UNL     1       5.757  32.549  60.412  1.00  0.00     0.234 C 
ENDROOT
BRANCH   7  15
HETATM   15  C   UNL     1       6.184  28.794  55.804  1.00  0.00     0.323 C 
BRANCH  15  16
HETATM   16  C   UNL     1       6.156  27.316  55.683  1.00  0.00     0.199 A 
HETATM   17  O   UNL     1       5.178  26.651  56.345  1.00  0.00    -0.194 OA
HETATM   18  N   UNL     1       5.357  25.307  56.049  1.00  0.00    -0.106 NA
HETATM   19  C   UNL     1       6.441  25.280  55.256  1.00  0.00     0.189 A 
HETATM   20  N   UNL     1       6.935  26.543  54.959  1.00  0.00    -0.202 NA
BRANCH  19  21
HETATM   21  C   UNL     1       7.049  24.059  54.738  1.00  0.00     0.016 A 
HETATM   22  C   UNL     1       7.256  22.961  55.586  1.00  0.00     0.039 A 
HETATM   23  C   UNL     1       7.823  21.786  55.090  1.00  0.00     0.035 A 
HETATM   24 CL   UNL     1       8.069  20.455  56.153  1.00  0.00    -0.084 Cl
HETATM   25  C   UNL     1       8.188  21.683  53.751  1.00  0.00     0.024 A 
HETATM   26  C   UNL     1       7.985  22.767  52.899  1.00  0.00     0.003 A 
HETATM   27  C   UNL     1       7.420  23.948  53.388  1.00  0.00     0.015 A 
ENDBRANCH  19  21
ENDBRANCH  15  16
ENDBRANCH   7  15
TORSDOF 3
ENDMDL
MODEL 7
REMARK VINA RESULT:      -7.9      4.396      9.283
REMARK  3 active torsions:
REMARK  status: ('A' for Active; 'I' for Inactive)
REMARK    1  A    between atoms: N_7  and  C_9 
REMARK    2  A    between atoms: C_9  and  C_10 
REMARK    3  A    between atoms: C_13  and  C_14 
ROOT
HETATM    1  C   UNL     1       8.365  31.173  58.469  1.00  0.00     0.269 C 
HETATM    2  N   UNL     1       8.084  29.919  57.664  1.00  0.00    -0.074 N 
HETATM    3  H   UNL     1       8.961  29.734  57.157  1.00  0.00     0.279 HD
HETATM    4  C   UNL     1       6.958  30.128  56.680  1.00  0.00     0.245 C 
HETATM    5  C   UNL     1       6.750  28.884  55.761  1.00  0.00     0.008 C 
HETATM    6  C   UNL     1       5.468  29.152  54.911  1.00  0.00     0.246 C 
HETATM    7  N   UNL     1       5.288  28.234  53.723  1.00  0.00    -0.063 N 
HETATM    8  H   UNL     1       4.589  28.723  53.133  1.00  0.00     0.280 HD
HETATM    9  C   UNL     1       6.503  28.115  52.845  1.00  0.00     0.235 C 
HETATM   10  C   UNL     1       7.712  27.722  53.677  1.00  0.00     0.029 C 
HETATM   11  C   UNL     1       7.962  28.718  54.809  1.00  0.00     0.014 C 
HETATM   12  C   UNL     1       6.573  27.644  56.676  1.00  0.00     0.014 C 
HETATM   13  C   UNL     1       7.663  27.492  57.741  1.00  0.00     0.029 C 
HETATM   14  C   UNL     1       7.839  28.745  58.582  1.00  0.00     0.234 C 
ENDROOT
BRANCH   7  15
HETATM   15  C   UNL     1       4.557  26.902  53.963  1.00  0.00     0.323 C 
BRANCH  15  16
HETATM   16  C   UNL     1       5.374  25.722  53.586  1.00  0.00     0.199 A 
HETATM   17  O   UNL     1       5.540  25.472  52.264  1.00  0.00    -0.194 OA
HETATM   18  N   UNL     1       6.353  24.350  52.184  1.00  0.00    -0.106 NA
HETATM   19  C   UNL     1       6.583  24.009  53.463  1.00  0.00     0.189 A 
HETATM   20  N   UNL     1       6.023  24.895  54.374  1.00  0.00    -0.202 NA
BRANCH  19  21
HETATM   21  C   UNL     1       7.349  22.839  53.876  1.00  0.00     0.016 A 
HETATM   22  C   UNL     1       7.530  22.560  55.239  1.00  0.00     0.039 A 
HETATM   23  C   UNL     1       8.249  21.432  55.638  1.00  0.00     0.035 A 
HETATM   24 CL   UNL     1       8.458  21.115  57.316  1.00  0.00    -0.084 Cl
HETATM   25  C   UNL     1       8.796  20.569  54.693  1.00  0.00     0.024 A 
HETATM   26  C   UNL     1       8.622  20.835  53.336  1.00  0.00     0.003 A 
HETATM   27  C   UNL     1       7.904  21.963  52.929  1.00  0.00     0.015 A 
ENDBRANCH  19  21
ENDBRANCH  15  16
ENDBRANCH   7  15
TORSDOF 3
ENDMDL
MODEL 8
REMARK VINA RESULT:      -7.9      7.816     10.280
REMARK  3 active torsions:
REMARK  status: ('A' for Active; 'I' for Inactive)
REMARK    1  A    between atoms: N_7  and  C_9 
REMARK    2  A    between atoms: C_9  and  C_10 
REMARK    3  A    between atoms: C_13  and  C_14 
ROOT
HETATM    1  C   UNL     1       2.743  33.595  52.525  1.00  0.00     0.269 C 
HETATM    2  N   UNL     1       3.440  32.642  51.574  1.00  0.00    -0.074 N 
HETATM    3  H   UNL     1       3.008  32.829  50.657  1.00  0.00     0.279 HD
HETATM    4  C   UNL     1       3.213  31.200  51.962  1.00  0.00     0.245 C 
HETATM    5  C   UNL     1       3.819  30.214  50.915  1.00  0.00     0.008 C 
HETATM    6  C   UNL     1       3.672  28.776  51.502  1.00  0.00     0.246 C 
HETATM    7  N   UNL     1       3.877  27.656  50.506  1.00  0.00    -0.063 N 
HETATM    8  H   UNL     1       3.465  26.828  50.973  1.00  0.00     0.280 HD
HETATM    9  C   UNL     1       3.085  27.806  49.237  1.00  0.00     0.235 C 
HETATM   10  C   UNL     1       3.350  29.165  48.613  1.00  0.00     0.029 C 
HETATM   11  C   UNL     1       3.029  30.301  49.585  1.00  0.00     0.014 C 
HETATM   12  C   UNL     1       5.310  30.593  50.715  1.00  0.00     0.014 C 
HETATM   13  C   UNL     1       5.545  32.079  50.422  1.00  0.00     0.029 C 
HETATM   14  C   UNL     1       4.906  32.987  51.459  1.00  0.00     0.234 C 
ENDROOT
BRANCH   7  15
HETATM   15  C   UNL     1       5.317  27.159  50.290  1.00  0.00     0.323 C 
BRANCH  15  16
HETATM   16  C   UNL     1       5.895  26.527  51.502  1.00  0.00     0.199 A 
HETATM   17  O   UNL     1       6.291  27.346  52.506  1.00  0.00    -0.194 OA
HETATM   18  N   UNL     1       6.761  26.518  53.516  1.00  0.00    -0.106 NA
HETATM   19  C   UNL     1       6.629  25.276  53.020  1.00  0.00     0.189 A 
HETATM   20  N   UNL     1       6.029  25.247  51.769  1.00  0.00    -0.202 NA
BRANCH  19  21
HETATM   21  C   UNL     1       7.056  24.066  53.713  1.00  0.00     0.016 A 
HETATM   22  C   UNL     1       7.470  22.943  52.982  1.00  0.00     0.039 A 
HETATM   23  C   UNL     1       7.894  21.789  53.642  1.00  0.00     0.035 A 
HETATM   24 CL   UNL     1       8.392  20.425  52.720  1.00  0.00    -0.084 Cl
HETATM   25  C   UNL     1       7.915  21.734  55.032  1.00  0.00     0.024 A 
HETATM   26  C   UNL     1       7.508  22.844  55.771  1.00  0.00     0.003 A 
HETATM   27  C   UNL     1       7.081  24.003  55.116  1.00  0.00     0.015 A 
ENDBRANCH  19  21
ENDBRANCH  15  16
ENDBRANCH   7  15
TORSDOF 3
ENDMDL
MODEL 9
REMARK VINA RESULT:      -7.9      7.879     10.719
REMARK  3 active torsions:
REMARK  status: ('A' for Active; 'I' for Inactive)
REMARK    1  A    between atoms: N_7  and  C_9 
REMARK    2  A    between atoms: C_9  and  C_10 
REMARK    3  A    between atoms: C_13  and  C_14 
ROOT
HETATM    1  C   UNL     1      -0.266  27.678  45.479  1.00  0.00     0.269 C 
HETATM    2  N   UNL     1       0.807  28.225  46.400  1.00  0.00    -0.074 N 
HETATM    3  H   UNL     1       1.408  28.796  45.789  1.00  0.00     0.279 HD
HETATM    4  C   UNL     1       1.620  27.118  47.028  1.00  0.00     0.245 C 
HETATM    5  C   UNL     1       2.807  27.677  47.875  1.00  0.00     0.008 C 
HETATM    6  C   UNL     1       3.463  26.460  48.601  1.00  0.00     0.246 C 
HETATM    7  N   UNL     1       4.829  26.732  49.190  1.00  0.00    -0.063 N 
HETATM    8  H   UNL     1       5.222  25.787  49.356  1.00  0.00     0.280 HD
HETATM    9  C   UNL     1       5.796  27.379  48.238  1.00  0.00     0.235 C 
HETATM   10  C   UNL     1       5.182  28.636  47.646  1.00  0.00     0.029 C 
HETATM   11  C   UNL     1       3.856  28.338  46.946  1.00  0.00     0.014 C 
HETATM   12  C   UNL     1       2.225  28.694  48.891  1.00  0.00     0.014 C 
HETATM   13  C   UNL     1       1.317  29.756  48.262  1.00  0.00     0.029 C 
HETATM   14  C   UNL     1       0.201  29.152  47.427  1.00  0.00     0.234 C 
ENDROOT
BRANCH   7  15
HETATM   15  C   UNL     1       4.881  27.302  50.618  1.00  0.00     0.323 C 
BRANCH  15  16
HETATM   16  C   UNL     1       5.240  26.281  51.633  1.00  0.00     0.199 A 
HETATM   17  O   UNL     1       4.245  25.803  52.420  1.00  0.00    -0.194 OA
HETATM   18  N   UNL     1       4.831  24.857  53.249  1.00  0.00    -0.106 NA
HETATM   19  C   UNL     1       6.130  24.867  52.905  1.00  0.00     0.189 A 
HETATM   20  N   UNL     1       6.408  25.717  51.844  1.00  0.00    -0.202 NA
BRANCH  19  21
HETATM   21  C   UNL     1       7.158  24.066  53.560  1.00  0.00     0.016 A 
HETATM   22  C   UNL     1       7.605  24.406  54.845  1.00  0.00     0.039 A 
HETATM   23  C   UNL     1       8.578  23.633  55.480  1.00  0.00     0.035 A 
HETATM   24 CL   UNL     1       9.110  24.075  57.055  1.00  0.00    -0.084 Cl
HETATM   25  C   UNL     1       9.117  22.514  54.852  1.00  0.00     0.024 A 
HETATM   26  C   UNL     1       8.680  22.165  53.576  1.00  0.00     0.003 A 
HETATM   27  C   UNL     1       7.707  22.935  52.932  1.00  0.00     0.015 A 
ENDBRANCH  19  21
ENDBRANCH  15  16
ENDBRANCH   7  15
TORSDOF 3
ENDMDL
MODEL 10
REMARK VINA RESULT:      -7.8      5.195      9.856
REMARK  3 active torsions:
REMARK  status: ('A' for Active; 'I' for Inactive)
REMARK    1  A    between atoms: N_7  and  C_9 
REMARK    2  A    between atoms: C_9  and  C_10 
REMARK    3  A    between atoms: C_13  and  C_14 
ROOT
HETATM    1  C   UNL     1      10.612  30.688  57.569  1.00  0.00     0.269 C 
HETATM    2  N   UNL     1       9.383  29.802  57.631  1.00  0.00    -0.074 N 
HETATM    3  H   UNL     1       9.583  29.134  58.390  1.00  0.00     0.279 HD
HETATM    4  C   UNL     1       9.166  29.057  56.336  1.00  0.00     0.245 C 
HETATM    5  C   UNL     1       7.980  28.048  56.438  1.00  0.00     0.008 C 
HETATM    6  C   UNL     1       7.749  27.468  55.007  1.00  0.00     0.246 C 
HETATM    7  N   UNL     1       6.884  26.229  54.954  1.00  0.00    -0.063 N 
HETATM    8  H   UNL     1       7.077  25.829  54.017  1.00  0.00     0.280 HD
HETATM    9  C   UNL     1       7.294  25.148  55.915  1.00  0.00     0.235 C 
HETATM   10  C   UNL     1       7.382  25.708  57.324  1.00  0.00     0.029 C 
HETATM   11  C   UNL     1       8.349  26.890  57.399  1.00  0.00     0.014 C 
HETATM   12  C   UNL     1       6.736  28.828  56.940  1.00  0.00     0.014 C 
HETATM   13  C   UNL     1       6.989  29.665  58.198  1.00  0.00     0.029 C 
HETATM   14  C   UNL     1       8.173  30.604  58.047  1.00  0.00     0.234 C 
ENDROOT
BRANCH   7  15
HETATM   15  C   UNL     1       5.362  26.432  54.854  1.00  0.00     0.323 C 
BRANCH  15  16
HETATM   16  C   UNL     1       4.942  26.991  53.545  1.00  0.00     0.199 A 
HETATM   17  O   UNL     1       4.075  28.033  53.558  1.00  0.00    -0.194 OA
HETATM   18  N   UNL     1       3.868  28.378  52.230  1.00  0.00    -0.106 NA
HETATM   19  C   UNL     1       4.608  27.497  51.535  1.00  0.00     0.189 A 
HETATM   20  N   UNL     1       5.345  26.643  52.343  1.00  0.00    -0.202 NA
BRANCH  19  21
HETATM   21  C   UNL     1       4.656  27.435  50.078  1.00  0.00     0.016 A 
HETATM   22  C   UNL     1       3.957  26.431  49.393  1.00  0.00     0.039 A 
HETATM   23  C   UNL     1       3.988  26.377  47.998  1.00  0.00     0.035 A 
HETATM   24 CL   UNL     1       3.124  25.132  47.183  1.00  0.00    -0.084 Cl
HETATM   25  C   UNL     1       4.709  27.317  47.268  1.00  0.00     0.024 A 
HETATM   26  C   UNL     1       5.407  28.320  47.938  1.00  0.00     0.003 A 
HETATM   27  C   UNL     1       5.381  28.380  49.334  1.00  0.00     0.015 A 
ENDBRANCH  19  21
ENDBRANCH  15  16
ENDBRANCH   7  15
TORSDOF 3
ENDMDL
