MODEL 1
REMARK VINA RESULT:      -8.6      0.000      0.000
REMARK  3 active torsions:
REMARK  status: ('A' for Active; 'I' for Inactive)
REMARK    1  A    between atoms: C_3  and  N_4 
REMARK       I    between atoms: N_4  and  C_5 
REMARK    2  A    between atoms: C_5  and  C_6 
REMARK    3  A    between atoms: C_6  and  C_7 
ROOT
HETATM    1  C   UNL     1       6.779  26.535  56.304  1.00  0.00     0.286 C 
HETATM    2  N   UNL     1       7.639  27.136  55.194  1.00  0.00    -0.056 N 
HETATM    3  H   UNL     1       7.795  28.122  55.440  1.00  0.00     0.278 HD
HETATM    4  H   UNL     1       8.588  26.711  55.262  1.00  0.00     0.278 HD
HETATM    5  C   UNL     1       7.115  27.078  53.789  1.00  0.00     0.209 C 
HETATM    6  C   UNL     1       5.643  27.555  53.765  1.00  0.00     0.115 C 
HETATM    7  N   UNL     1       4.827  26.938  54.809  1.00  0.00    -0.353 N 
HETATM    8  C   UNL     1       5.273  26.750  56.093  1.00  0.00     0.249 C 
HETATM    9  O   UNL     1       4.469  26.647  57.013  1.00  0.00    -0.271 OA
HETATM   10  C   UNL     1       7.330  25.688  53.188  1.00  0.00     0.035 C 
HETATM   11  C   UNL     1       6.714  25.589  51.796  1.00  0.00     0.002 C 
HETATM   12  C   UNL     1       5.231  25.947  51.828  1.00  0.00     0.002 C 
HETATM   13  C   UNL     1       5.010  27.354  52.383  1.00  0.00     0.027 C 
HETATM   14  H   UNL     1       3.822  27.100  54.777  1.00  0.00     0.163 HD
ENDROOT
BRANCH   1  15
HETATM   15  C   UNL     1       7.003  25.031  56.535  1.00  0.00     0.146 C 
BRANCH  15  16
HETATM   16  C   UNL     1       8.435  24.662  56.796  1.00  0.00     0.224 C 
HETATM   17  N   UNL     1       9.038  23.614  56.183  1.00  0.00    -0.326 N 
HETATM   18  H   UNL     1      10.018  23.529  56.455  1.00  0.00     0.169 HD
HETATM   19  O   UNL     1       9.107  25.380  57.548  1.00  0.00    -0.273 OA
BRANCH  17  20
HETATM   20  C   UNL     1       8.643  22.641  55.231  1.00  0.00     0.056 A 
HETATM   21  C   UNL     1       8.571  22.841  53.851  1.00  0.00     0.031 A 
HETATM   22  C   UNL     1       8.180  21.801  52.995  1.00  0.00     0.002 A 
HETATM   23  C   UNL     1       7.852  20.548  53.503  1.00  0.00     0.002 A 
HETATM   24  C   UNL     1       7.907  20.327  54.875  1.00  0.00     0.026 A 
HETATM   25  C   UNL     1       8.297  21.362  55.728  1.00  0.00     0.060 A 
HETATM   26 CL   UNL     1       8.359  21.025  57.428  1.00  0.00    -0.082 Cl
ENDBRANCH  17  20
ENDBRANCH  15  16
ENDBRANCH   1  15
TORSDOF 3
ENDMDL
MODEL 2
REMARK VINA RESULT:      -8.5      2.152      2.866
REMARK  3 active torsions:
REMARK  status: ('A' for Active; 'I' for Inactive)
REMARK    1  A    between atoms: C_3  and  N_4 
REMARK       I    between atoms: N_4  and  C_5 
REMARK    2  A    between atoms: C_5  and  C_6 
REMARK    3  A    between atoms: C_6  and  C_7 
ROOT
HETATM    1  C   UNL     1       6.746  26.069  54.503  1.00  0.00     0.286 C 
HETATM    2  N   UNL     1       7.176  27.270  53.665  1.00  0.00    -0.056 N 
HETATM    3  H   UNL     1       7.820  27.823  54.244  1.00  0.00     0.278 HD
HETATM    4  H   UNL     1       7.780  26.917  52.891  1.00  0.00     0.278 HD
HETATM    5  C   UNL     1       6.105  28.185  53.145  1.00  0.00     0.209 C 
HETATM    6  C   UNL     1       5.129  28.543  54.291  1.00  0.00     0.115 C 
HETATM    7  N   UNL     1       4.697  27.375  55.057  1.00  0.00    -0.353 N 
HETATM    8  C   UNL     1       5.549  26.362  55.421  1.00  0.00     0.249 C 
HETATM    9  O   UNL     1       5.285  25.655  56.387  1.00  0.00    -0.271 OA
HETATM   10  C   UNL     1       5.427  27.582  51.914  1.00  0.00     0.035 C 
HETATM   11  C   UNL     1       4.272  28.458  51.437  1.00  0.00     0.002 C 
HETATM   12  C   UNL     1       3.264  28.690  52.558  1.00  0.00     0.002 C 
HETATM   13  C   UNL     1       3.924  29.337  53.776  1.00  0.00     0.027 C 
HETATM   14  H   UNL     1       3.955  27.510  55.743  1.00  0.00     0.163 HD
ENDROOT
BRANCH   1  15
HETATM   15  C   UNL     1       6.401  24.813  53.683  1.00  0.00     0.146 C 
BRANCH  15  16
HETATM   16  C   UNL     1       7.545  24.290  52.863  1.00  0.00     0.224 C 
HETATM   17  N   UNL     1       8.327  23.263  53.279  1.00  0.00    -0.326 N 
HETATM   18  H   UNL     1       9.034  23.020  52.585  1.00  0.00     0.169 HD
HETATM   19  O   UNL     1       7.739  24.770  51.738  1.00  0.00    -0.273 OA
BRANCH  17  20
HETATM   20  C   UNL     1       8.369  22.430  54.425  1.00  0.00     0.056 A 
HETATM   21  C   UNL     1       8.415  22.875  55.748  1.00  0.00     0.031 A 
HETATM   22  C   UNL     1       8.438  21.960  56.811  1.00  0.00     0.002 A 
HETATM   23  C   UNL     1       8.420  20.590  56.570  1.00  0.00     0.002 A 
HETATM   24  C   UNL     1       8.383  20.123  55.261  1.00  0.00     0.026 A 
HETATM   25  C   UNL     1       8.360  21.033  54.202  1.00  0.00     0.060 A 
HETATM   26 CL   UNL     1       8.303  20.393  52.591  1.00  0.00    -0.082 Cl
ENDBRANCH  17  20
ENDBRANCH  15  16
ENDBRANCH   1  15
TORSDOF 3
ENDMDL
MODEL 3
REMARK VINA RESULT:      -8.5      3.260      6.316
REMARK  3 active torsions:
REMARK  status: ('A' for Active; 'I' for Inactive)
REMARK    1  A    between atoms: C_3  and  N_4 
REMARK       I    between atoms: N_4  and  C_5 
REMARK    2  A    between atoms: C_5  and  C_6 
REMARK    3  A    between atoms: C_6  and  C_7 
ROOT
HETATM    1  C   UNL     1       7.019  25.787  55.615  1.00  0.00     0.286 C 
HETATM    2  N   UNL     1       6.262  24.592  55.042  1.00  0.00    -0.056 N 
HETATM    3  H   UNL     1       5.447  24.435  55.649  1.00  0.00     0.278 HD
HETATM    4  H   UNL     1       5.841  24.888  54.135  1.00  0.00     0.278 HD
HETATM    5  C   UNL     1       7.001  23.293  54.900  1.00  0.00     0.209 C 
HETATM    6  C   UNL     1       7.753  22.980  56.215  1.00  0.00     0.115 C 
HETATM    7  N   UNL     1       8.505  24.124  56.727  1.00  0.00    -0.353 N 
HETATM    8  C   UNL     1       8.012  25.404  56.724  1.00  0.00     0.249 C 
HETATM    9  O   UNL     1       8.446  26.232  57.517  1.00  0.00    -0.271 OA
HETATM   10  C   UNL     1       7.893  23.309  53.659  1.00  0.00     0.035 C 
HETATM   11  C   UNL     1       8.722  22.032  53.560  1.00  0.00     0.002 C 
HETATM   12  C   UNL     1       9.547  21.817  54.824  1.00  0.00     0.002 C 
HETATM   13  C   UNL     1       8.658  21.751  56.066  1.00  0.00     0.027 C 
HETATM   14  H   UNL     1       9.130  23.961  57.515  1.00  0.00     0.163 HD
ENDROOT
BRANCH   1  15
HETATM   15  C   UNL     1       7.789  26.611  54.570  1.00  0.00     0.146 C 
BRANCH  15  16
HETATM   16  C   UNL     1       7.169  27.945  54.270  1.00  0.00     0.224 C 
HETATM   17  N   UNL     1       7.541  29.080  54.915  1.00  0.00    -0.326 N 
HETATM   18  H   UNL     1       7.038  29.896  54.564  1.00  0.00     0.169 HD
HETATM   19  O   UNL     1       6.337  28.024  53.358  1.00  0.00    -0.273 OA
BRANCH  17  20
HETATM   20  C   UNL     1       8.481  29.402  55.925  1.00  0.00     0.056 A 
HETATM   21  C   UNL     1       9.856  29.549  55.732  1.00  0.00     0.031 A 
HETATM   22  C   UNL     1      10.698  29.886  56.802  1.00  0.00     0.002 A 
HETATM   23  C   UNL     1      10.182  30.076  58.079  1.00  0.00     0.002 A 
HETATM   24  C   UNL     1       8.817  29.926  58.299  1.00  0.00     0.026 A 
HETATM   25  C   UNL     1       7.978  29.591  57.233  1.00  0.00     0.060 A 
HETATM   26 CL   UNL     1       6.283  29.428  57.563  1.00  0.00    -0.082 Cl
ENDBRANCH  17  20
ENDBRANCH  15  16
ENDBRANCH   1  15
TORSDOF 3
ENDMDL
MODEL 4
REMARK VINA RESULT:      -8.3      2.426      3.723
REMARK  3 active torsions:
REMARK  status: ('A' for Active; 'I' for Inactive)
REMARK    1  A    between atoms: C_3  and  N_4 
REMARK       I    between atoms: N_4  and  C_5 
REMARK    2  A    between atoms: C_5  and  C_6 
REMARK    3  A    between atoms: C_6  and  C_7 
ROOT
HETATM    1  C   UNL     1       6.045  25.468  54.553  1.00  0.00     0.286 C 
HETATM    2  N   UNL     1       5.894  25.307  56.063  1.00  0.00    -0.056 N 
HETATM    3  H   UNL     1       5.000  24.825  56.224  1.00  0.00     0.278 HD
HETATM    4  H   UNL     1       6.608  24.616  56.382  1.00  0.00     0.278 HD
HETATM    5  C   UNL     1       5.920  26.546  56.909  1.00  0.00     0.209 C 
HETATM    6  C   UNL     1       4.976  27.609  56.299  1.00  0.00     0.115 C 
HETATM    7  N   UNL     1       5.163  27.778  54.859  1.00  0.00    -0.353 N 
HETATM    8  C   UNL     1       5.354  26.725  54.001  1.00  0.00     0.249 C 
HETATM    9  O   UNL     1       5.079  26.843  52.812  1.00  0.00    -0.271 OA
HETATM   10  C   UNL     1       7.355  27.032  57.116  1.00  0.00     0.035 C 
HETATM   11  C   UNL     1       7.386  28.345  57.892  1.00  0.00     0.002 C 
HETATM   12  C   UNL     1       6.543  29.410  57.197  1.00  0.00     0.002 C 
HETATM   13  C   UNL     1       5.094  28.952  57.029  1.00  0.00     0.027 C 
HETATM   14  H   UNL     1       4.673  28.550  54.409  1.00  0.00     0.163 HD
ENDROOT
BRANCH   1  15
HETATM   15  C   UNL     1       7.502  25.489  54.060  1.00  0.00     0.146 C 
BRANCH  15  16
HETATM   16  C   UNL     1       7.791  24.493  52.974  1.00  0.00     0.224 C 
HETATM   17  N   UNL     1       8.109  23.201  53.239  1.00  0.00    -0.326 N 
HETATM   18  H   UNL     1       8.243  22.661  52.383  1.00  0.00     0.169 HD
HETATM   19  O   UNL     1       7.670  24.847  51.794  1.00  0.00    -0.273 OA
BRANCH  17  20
HETATM   20  C   UNL     1       8.260  22.423  54.413  1.00  0.00     0.056 A 
HETATM   21  C   UNL     1       8.314  22.924  55.715  1.00  0.00     0.031 A 
HETATM   22  C   UNL     1       8.451  22.060  56.811  1.00  0.00     0.002 A 
HETATM   23  C   UNL     1       8.539  20.684  56.624  1.00  0.00     0.002 A 
HETATM   24  C   UNL     1       8.498  20.161  55.336  1.00  0.00     0.026 A 
HETATM   25  C   UNL     1       8.361  21.022  54.244  1.00  0.00     0.060 A 
HETATM   26 CL   UNL     1       8.303  20.313  52.663  1.00  0.00    -0.082 Cl
ENDBRANCH  17  20
ENDBRANCH  15  16
ENDBRANCH   1  15
TORSDOF 3
ENDMDL
MODEL 5
REMARK VINA RESULT:      -8.1      1.897      2.980
REMARK  3 active torsions:
REMARK  status: ('A' for Active; 'I' for Inactive)
REMARK    1  A    between atoms: C_3  and  N_4 
REMARK       I    between atoms: N_4  and  C_5 
REMARK    2  A    between atoms: C_5  and  C_6 
REMARK    3  A    between atoms: C_6  and  C_7 
ROOT
HETATM    1  C   UNL     1       5.808  25.883  55.480  1.00  0.00     0.286 C 
HETATM    2  N   UNL     1       5.320  26.361  56.846  1.00  0.00    -0.056 N 
HETATM    3  H   UNL     1       4.419  25.897  57.020  1.00  0.00     0.278 HD
HETATM    4  H   UNL     1       5.951  25.953  57.569  1.00  0.00     0.278 HD
HETATM    5  C   UNL     1       5.138  27.836  57.051  1.00  0.00     0.209 C 
HETATM    6  C   UNL     1       4.343  28.430  55.864  1.00  0.00     0.115 C 
HETATM    7  N   UNL     1       4.850  27.993  54.564  1.00  0.00    -0.353 N 
HETATM    8  C   UNL     1       5.244  26.704  54.310  1.00  0.00     0.249 C 
HETATM    9  O   UNL     1       5.244  26.276  53.161  1.00  0.00    -0.271 OA
HETATM   10  C   UNL     1       6.482  28.519  57.305  1.00  0.00     0.035 C 
HETATM   11  C   UNL     1       6.320  30.031  57.418  1.00  0.00     0.002 C 
HETATM   12  C   UNL     1       5.643  30.602  56.175  1.00  0.00     0.002 C 
HETATM   13  C   UNL     1       4.276  29.959  55.941  1.00  0.00     0.027 C 
HETATM   14  H   UNL     1       4.465  28.442  53.734  1.00  0.00     0.163 HD
ENDROOT
BRANCH   1  15
HETATM   15  C   UNL     1       7.338  25.854  55.328  1.00  0.00     0.146 C 
BRANCH  15  16
HETATM   16  C   UNL     1       8.039  25.052  56.386  1.00  0.00     0.224 C 
HETATM   17  N   UNL     1       8.369  23.748  56.210  1.00  0.00    -0.326 N 
HETATM   18  H   UNL     1       8.866  23.370  57.018  1.00  0.00     0.169 HD
HETATM   19  O   UNL     1       8.386  25.618  57.431  1.00  0.00    -0.273 OA
BRANCH  17  20
HETATM   20  C   UNL     1       8.222  22.805  55.162  1.00  0.00     0.056 A 
HETATM   21  C   UNL     1       8.092  23.116  53.807  1.00  0.00     0.031 A 
HETATM   22  C   UNL     1       7.967  22.100  52.848  1.00  0.00     0.002 A 
HETATM   23  C   UNL     1       7.966  20.761  53.226  1.00  0.00     0.002 A 
HETATM   24  C   UNL     1       8.084  20.427  54.571  1.00  0.00     0.026 A 
HETATM   25  C   UNL     1       8.209  21.438  55.526  1.00  0.00     0.060 A 
HETATM   26 CL   UNL     1       8.365  20.962  57.187  1.00  0.00    -0.082 Cl
ENDBRANCH  17  20
ENDBRANCH  15  16
ENDBRANCH   1  15
TORSDOF 3
ENDMDL
MODEL 6
REMARK VINA RESULT:      -8.0      3.429      5.282
REMARK  3 active torsions:
REMARK  status: ('A' for Active; 'I' for Inactive)
REMARK    1  A    between atoms: C_3  and  N_4 
REMARK       I    between atoms: N_4  and  C_5 
REMARK    2  A    between atoms: C_5  and  C_6 
REMARK    3  A    between atoms: C_6  and  C_7 
ROOT
HETATM    1  C   UNL     1       6.019  28.834  57.106  1.00  0.00     0.286 C 
HETATM    2  N   UNL     1       7.132  27.989  57.719  1.00  0.00    -0.056 N 
HETATM    3  H   UNL     1       6.774  27.623  58.610  1.00  0.00     0.278 HD
HETATM    4  H   UNL     1       7.245  27.136  57.129  1.00  0.00     0.278 HD
HETATM    5  C   UNL     1       8.455  28.650  57.979  1.00  0.00     0.209 C 
HETATM    6  C   UNL     1       8.227  29.998  58.702  1.00  0.00     0.115 C 
HETATM    7  N   UNL     1       7.184  30.811  58.077  1.00  0.00    -0.353 N 
HETATM    8  C   UNL     1       6.006  30.285  57.611  1.00  0.00     0.249 C 
HETATM    9  O   UNL     1       5.015  30.999  57.503  1.00  0.00    -0.271 OA
HETATM   10  C   UNL     1       9.267  28.764  56.688  1.00  0.00     0.035 C 
HETATM   11  C   UNL     1      10.570  29.522  56.922  1.00  0.00     0.002 C 
HETATM   12  C   UNL     1      10.302  30.898  57.524  1.00  0.00     0.002 C 
HETATM   13  C   UNL     1       9.532  30.790  58.840  1.00  0.00     0.027 C 
HETATM   14  H   UNL     1       7.066  31.765  58.415  1.00  0.00     0.163 HD
ENDROOT
BRANCH   1  15
HETATM   15  C   UNL     1       6.030  28.880  55.569  1.00  0.00     0.146 C 
BRANCH  15  16
HETATM   16  C   UNL     1       4.887  28.147  54.930  1.00  0.00     0.224 C 
HETATM   17  N   UNL     1       4.972  26.842  54.570  1.00  0.00    -0.326 N 
HETATM   18  H   UNL     1       4.093  26.498  54.179  1.00  0.00     0.169 HD
HETATM   19  O   UNL     1       3.807  28.735  54.786  1.00  0.00    -0.273 OA
BRANCH  17  20
HETATM   20  C   UNL     1       5.972  25.840  54.643  1.00  0.00     0.056 A 
HETATM   21  C   UNL     1       6.917  25.567  53.652  1.00  0.00     0.031 A 
HETATM   22  C   UNL     1       7.876  24.560  53.835  1.00  0.00     0.002 A 
HETATM   23  C   UNL     1       7.904  23.809  55.005  1.00  0.00     0.002 A 
HETATM   24  C   UNL     1       6.967  24.056  56.003  1.00  0.00     0.026 A 
HETATM   25  C   UNL     1       6.012  25.059  55.821  1.00  0.00     0.060 A 
HETATM   26 CL   UNL     1       4.876  25.330  57.104  1.00  0.00    -0.082 Cl
ENDBRANCH  17  20
ENDBRANCH  15  16
ENDBRANCH   1  15
TORSDOF 3
ENDMDL
MODEL 7
REMARK VINA RESULT:      -7.7      2.317      3.489
REMARK  3 active torsions:
REMARK  status: ('A' for Active; 'I' for Inactive)
REMARK    1  A    between atoms: C_3  and  N_4 
REMARK       I    between atoms: N_4  and  C_5 
REMARK    2  A    between atoms: C_5  and  C_6 
REMARK    3  A    between atoms: C_6  and  C_7 
ROOT
HETATM    1  C   UNL     1       7.410  26.282  55.565  1.00  0.00     0.286 C 
HETATM    2  N   UNL     1       7.365  27.430  54.559  1.00  0.00    -0.056 N 
HETATM    3  H   UNL     1       8.332  27.760  54.440  1.00  0.00     0.278 HD
HETATM    4  H   UNL     1       7.125  27.027  53.628  1.00  0.00     0.278 HD
HETATM    5  C   UNL     1       6.499  28.613  54.880  1.00  0.00     0.209 C 
HETATM    6  C   UNL     1       6.764  29.069  56.334  1.00  0.00     0.115 C 
HETATM    7  N   UNL     1       6.763  27.962  57.288  1.00  0.00    -0.353 N 
HETATM    8  C   UNL     1       7.352  26.750  57.027  1.00  0.00     0.249 C 
HETATM    9  O   UNL     1       7.711  26.029  57.952  1.00  0.00    -0.271 OA
HETATM   10  C   UNL     1       5.031  28.308  54.580  1.00  0.00     0.035 C 
HETATM   11  C   UNL     1       4.131  29.467  54.995  1.00  0.00     0.002 C 
HETATM   12  C   UNL     1       4.328  29.812  56.467  1.00  0.00     0.002 C 
HETATM   13  C   UNL     1       5.785  30.166  56.767  1.00  0.00     0.027 C 
HETATM   14  H   UNL     1       6.800  28.195  58.279  1.00  0.00     0.163 HD
ENDROOT
BRANCH   1  15
HETATM   15  C   UNL     1       6.307  25.227  55.373  1.00  0.00     0.146 C 
BRANCH  15  16
HETATM   16  C   UNL     1       6.387  24.495  54.065  1.00  0.00     0.224 C 
HETATM   17  N   UNL     1       6.976  23.279  53.948  1.00  0.00    -0.326 N 
HETATM   18  H   UNL     1       6.912  22.917  52.996  1.00  0.00     0.169 HD
HETATM   19  O   UNL     1       5.839  24.990  53.071  1.00  0.00    -0.273 OA
BRANCH  17  20
HETATM   20  C   UNL     1       7.618  22.382  54.838  1.00  0.00     0.056 A 
HETATM   21  C   UNL     1       7.845  22.614  56.196  1.00  0.00     0.031 A 
HETATM   22  C   UNL     1       8.480  21.648  56.992  1.00  0.00     0.002 A 
HETATM   23  C   UNL     1       8.900  20.441  56.444  1.00  0.00     0.002 A 
HETATM   24  C   UNL     1       8.694  20.191  55.091  1.00  0.00     0.026 A 
HETATM   25  C   UNL     1       8.062  21.152  54.299  1.00  0.00     0.060 A 
HETATM   26 CL   UNL     1       7.821  20.781  52.622  1.00  0.00    -0.082 Cl
ENDBRANCH  17  20
ENDBRANCH  15  16
ENDBRANCH   1  15
TORSDOF 3
ENDMDL
MODEL 8
REMARK VINA RESULT:      -7.7      2.775      6.064
REMARK  3 active torsions:
REMARK  status: ('A' for Active; 'I' for Inactive)
REMARK    1  A    between atoms: C_3  and  N_4 
REMARK       I    between atoms: N_4  and  C_5 
REMARK    2  A    between atoms: C_5  and  C_6 
REMARK    3  A    between atoms: C_6  and  C_7 
ROOT
HETATM    1  C   UNL     1       7.659  25.061  54.064  1.00  0.00     0.286 C 
HETATM    2  N   UNL     1       8.545  24.428  55.134  1.00  0.00    -0.056 N 
HETATM    3  H   UNL     1       9.478  24.846  55.035  1.00  0.00     0.278 HD
HETATM    4  H   UNL     1       8.217  24.773  56.062  1.00  0.00     0.278 HD
HETATM    5  C   UNL     1       8.694  22.934  55.130  1.00  0.00     0.209 C 
HETATM    6  C   UNL     1       9.009  22.449  53.696  1.00  0.00     0.115 C 
HETATM    7  N   UNL     1       8.125  23.036  52.689  1.00  0.00    -0.353 N 
HETATM    8  C   UNL     1       7.749  24.355  52.702  1.00  0.00     0.249 C 
HETATM    9  O   UNL     1       7.392  24.902  51.665  1.00  0.00    -0.271 OA
HETATM   10  C   UNL     1       7.472  22.265  55.761  1.00  0.00     0.035 C 
HETATM   11  C   UNL     1       7.570  20.745  55.673  1.00  0.00     0.002 C 
HETATM   12  C   UNL     1       7.757  20.293  54.229  1.00  0.00     0.002 C 
HETATM   13  C   UNL     1       9.004  20.919  53.605  1.00  0.00     0.027 C 
HETATM   14  H   UNL     1       8.183  22.668  51.741  1.00  0.00     0.163 HD
ENDROOT
BRANCH   1  15
HETATM   15  C   UNL     1       6.171  25.148  54.441  1.00  0.00     0.146 C 
BRANCH  15  16
HETATM   16  C   UNL     1       5.511  26.430  54.022  1.00  0.00     0.224 C 
HETATM   17  N   UNL     1       5.899  27.637  54.503  1.00  0.00    -0.326 N 
HETATM   18  H   UNL     1       5.363  28.400  54.088  1.00  0.00     0.169 HD
HETATM   19  O   UNL     1       4.626  26.389  53.158  1.00  0.00    -0.273 OA
BRANCH  17  20
HETATM   20  C   UNL     1       6.890  28.088  55.409  1.00  0.00     0.056 A 
HETATM   21  C   UNL     1       8.096  28.697  55.052  1.00  0.00     0.031 A 
HETATM   22  C   UNL     1       9.003  29.121  56.034  1.00  0.00     0.002 A 
HETATM   23  C   UNL     1       8.724  28.941  57.385  1.00  0.00     0.002 A 
HETATM   24  C   UNL     1       7.534  28.328  57.765  1.00  0.00     0.026 A 
HETATM   25  C   UNL     1       6.630  27.907  56.787  1.00  0.00     0.060 A 
HETATM   26 CL   UNL     1       5.158  27.160  57.321  1.00  0.00    -0.082 Cl
ENDBRANCH  17  20
ENDBRANCH  15  16
ENDBRANCH   1  15
TORSDOF 3
ENDMDL
MODEL 9
REMARK VINA RESULT:      -7.6      4.259      7.076
REMARK  3 active torsions:
REMARK  status: ('A' for Active; 'I' for Inactive)
REMARK    1  A    between atoms: C_3  and  N_4 
REMARK       I    between atoms: N_4  and  C_5 
REMARK    2  A    between atoms: C_5  and  C_6 
REMARK    3  A    between atoms: C_6  and  C_7 
ROOT
HETATM    1  C   UNL     1       4.680  27.349  53.078  1.00  0.00     0.286 C 
HETATM    2  N   UNL     1       4.216  25.894  53.053  1.00  0.00    -0.056 N 
HETATM    3  H   UNL     1       3.340  25.851  53.588  1.00  0.00     0.278 HD
HETATM    4  H   UNL     1       3.921  25.671  52.078  1.00  0.00     0.278 HD
HETATM    5  C   UNL     1       5.149  24.849  53.592  1.00  0.00     0.209 C 
HETATM    6  C   UNL     1       5.699  25.304  54.964  1.00  0.00     0.115 C 
HETATM    7  N   UNL     1       6.175  26.687  54.958  1.00  0.00    -0.353 N 
HETATM    8  C   UNL     1       5.509  27.703  54.321  1.00  0.00     0.249 C 
HETATM    9  O   UNL     1       5.673  28.864  54.680  1.00  0.00    -0.271 OA
HETATM   10  C   UNL     1       6.233  24.510  52.568  1.00  0.00     0.035 C 
HETATM   11  C   UNL     1       7.243  23.521  53.142  1.00  0.00     0.002 C 
HETATM   12  C   UNL     1       7.858  24.056  54.432  1.00  0.00     0.002 C 
HETATM   13  C   UNL     1       6.785  24.353  55.479  1.00  0.00     0.027 C 
HETATM   14  H   UNL     1       6.670  27.017  55.784  1.00  0.00     0.163 HD
ENDROOT
BRANCH   1  15
HETATM   15  C   UNL     1       5.492  27.776  51.844  1.00  0.00     0.146 C 
BRANCH  15  16
HETATM   16  C   UNL     1       4.968  29.010  51.168  1.00  0.00     0.224 C 
HETATM   17  N   UNL     1       4.253  28.959  50.016  1.00  0.00    -0.326 N 
HETATM   18  H   UNL     1       3.951  29.887  49.716  1.00  0.00     0.169 HD
HETATM   19  O   UNL     1       5.137  30.107  51.716  1.00  0.00    -0.273 OA
BRANCH  17  20
HETATM   20  C   UNL     1       3.797  27.926  49.160  1.00  0.00     0.056 A 
HETATM   21  C   UNL     1       4.597  26.930  48.596  1.00  0.00     0.031 A 
HETATM   22  C   UNL     1       4.038  25.943  47.771  1.00  0.00     0.002 A 
HETATM   23  C   UNL     1       2.675  25.938  47.493  1.00  0.00     0.002 A 
HETATM   24  C   UNL     1       1.859  26.925  48.035  1.00  0.00     0.026 A 
HETATM   25  C   UNL     1       2.415  27.908  48.857  1.00  0.00     0.060 A 
HETATM   26 CL   UNL     1       1.348  29.107  49.514  1.00  0.00    -0.082 Cl
ENDBRANCH  17  20
ENDBRANCH  15  16
ENDBRANCH   1  15
TORSDOF 3
ENDMDL
MODEL 10
REMARK VINA RESULT:      -7.5      3.727      5.299
REMARK  3 active torsions:
REMARK  status: ('A' for Active; 'I' for Inactive)
REMARK    1  A    between atoms: C_3  and  N_4 
REMARK       I    between atoms: N_4  and  C_5 
REMARK    2  A    between atoms: C_5  and  C_6 
REMARK    3  A    between atoms: C_6  and  C_7 
ROOT
HETATM    1  C   UNL     1       4.974  28.581  50.855  1.00  0.00     0.286 C 
HETATM    2  N   UNL     1       5.620  27.858  49.676  1.00  0.00    -0.056 N 
HETATM    3  H   UNL     1       6.268  28.523  49.236  1.00  0.00     0.278 HD
HETATM    4  H   UNL     1       6.248  27.119  50.061  1.00  0.00     0.278 HD
HETATM    5  C   UNL     1       4.718  27.304  48.611  1.00  0.00     0.209 C 
HETATM    6  C   UNL     1       3.689  28.381  48.193  1.00  0.00     0.115 C 
HETATM    7  N   UNL     1       3.052  29.035  49.336  1.00  0.00    -0.353 N 
HETATM    8  C   UNL     1       3.741  29.408  50.462  1.00  0.00     0.249 C 
HETATM    9  O   UNL     1       3.306  30.303  51.180  1.00  0.00    -0.271 OA
HETATM   10  C   UNL     1       4.091  25.985  49.063  1.00  0.00     0.035 C 
HETATM   11  C   UNL     1       3.098  25.464  48.029  1.00  0.00     0.002 C 
HETATM   12  C   UNL     1       2.024  26.506  47.730  1.00  0.00     0.002 C 
HETATM   13  C   UNL     1       2.639  27.813  47.232  1.00  0.00     0.027 C 
HETATM   14  H   UNL     1       2.271  29.660  49.145  1.00  0.00     0.163 HD
ENDROOT
BRANCH   1  15
HETATM   15  C   UNL     1       4.562  27.659  52.016  1.00  0.00     0.146 C 
BRANCH  15  16
HETATM   16  C   UNL     1       5.231  27.987  53.319  1.00  0.00     0.224 C 
HETATM   17  N   UNL     1       6.131  27.156  53.903  1.00  0.00    -0.326 N 
HETATM   18  H   UNL     1       6.506  27.551  54.766  1.00  0.00     0.169 HD
HETATM   19  O   UNL     1       5.003  29.083  53.847  1.00  0.00    -0.273 OA
BRANCH  17  20
HETATM   20  C   UNL     1       6.696  25.898  53.579  1.00  0.00     0.056 A 
HETATM   21  C   UNL     1       7.446  25.618  52.434  1.00  0.00     0.031 A 
HETATM   22  C   UNL     1       7.974  24.337  52.218  1.00  0.00     0.002 A 
HETATM   23  C   UNL     1       7.759  23.316  53.138  1.00  0.00     0.002 A 
HETATM   24  C   UNL     1       7.007  23.567  54.281  1.00  0.00     0.026 A 
HETATM   25  C   UNL     1       6.482  24.843  54.496  1.00  0.00     0.060 A 
HETATM   26 CL   UNL     1       5.562  25.101  55.944  1.00  0.00    -0.082 Cl
ENDBRANCH  17  20
ENDBRANCH  15  16
ENDBRANCH   1  15
TORSDOF 3
ENDMDL
