MODEL 1
REMARK VINA RESULT:     -12.3      0.000      0.000
REMARK  10 active torsions:
REMARK  status: ('A' for Active; 'I' for Inactive)
REMARK    1  A    between atoms: N_1  and  C_2 
REMARK    2  A    between atoms: C_2  and  C_3 
REMARK    3  A    between atoms: C_6  and  C_33 
REMARK    4  A    between atoms: C_8  and  C_9 
REMARK    5  A    between atoms: C_13  and  C_15 
REMARK       I    between atoms: C_15  and  N_17 
REMARK    6  A    between atoms: N_17  and  C_18 
REMARK    7  A    between atoms: C_22  and  C_23 
REMARK    8  A    between atoms: C_23  and  O_25 
REMARK    9  A    between atoms: O_25  and  C_26 
REMARK       I    between atoms: C_33  and  N_35 
REMARK   10  A    between atoms: N_35  and  C_36 
ROOT
HETATM    1  C   UNL     1       8.428  29.070  57.231  1.00  0.00    -0.024 A 
HETATM    2  C   UNL     1       9.653  29.184  56.551  1.00  0.00     0.012 A 
HETATM    3  C   UNL     1      10.579  30.186  56.866  1.00  0.00     0.002 A 
HETATM    4  C   UNL     1      10.327  31.075  57.909  1.00  0.00     0.017 A 
HETATM    5  C   UNL     1       9.135  30.962  58.627  1.00  0.00     0.033 A 
HETATM    6  C   UNL     1       8.191  29.985  58.274  1.00  0.00     0.029 A 
ENDROOT
BRANCH   1   7
HETATM    7  C   UNL     1       7.449  27.992  56.936  1.00  0.00    -0.017 A 
HETATM    8  C   UNL     1       6.047  28.186  56.857  1.00  0.00    -0.020 A 
HETATM    9  C   UNL     1       5.208  27.084  56.574  1.00  0.00     0.011 A 
HETATM   10  C   UNL     1       5.724  25.799  56.415  1.00  0.00     0.017 A 
HETATM   11  C   UNL     1       7.096  25.585  56.510  1.00  0.00     0.033 A 
HETATM   12  C   UNL     1       7.943  26.676  56.756  1.00  0.00     0.030 A 
BRANCH   8  13
HETATM   13  C   UNL     1       5.362  29.515  57.093  1.00  0.00     0.306 C 
BRANCH  13  14
HETATM   14  N   UNL     1       4.406  29.440  58.192  1.00  0.00     0.082 N 
HETATM   15  H   UNL     1       4.761  28.795  58.896  1.00  0.00     0.313 HD
HETATM   16  H   UNL     1       3.535  29.036  57.852  1.00  0.00     0.313 HD
ENDBRANCH  13  14
ENDBRANCH   8  13
BRANCH  11  17
HETATM   17  C   UNL     1       7.603  24.181  56.449  1.00  0.00     0.256 C 
HETATM   18  O   UNL     1       8.299  23.774  57.373  1.00  0.00    -0.267 OA
HETATM   19  N   UNL     1       7.227  23.450  55.339  1.00  0.00    -0.320 N 
HETATM   20  H   UNL     1       6.496  23.822  54.742  1.00  0.00     0.169 HD
BRANCH  19  21
HETATM   21  C   UNL     1       7.713  22.177  54.958  1.00  0.00     0.076 A 
HETATM   22  C   UNL     1       7.917  21.119  55.841  1.00  0.00     0.052 A 
HETATM   23  C   UNL     1       8.431  19.928  55.343  1.00  0.00     0.118 A 
HETATM   24  N   UNL     1       8.749  19.723  54.045  1.00  0.00    -0.270 NA
HETATM   25  C   UNL     1       8.545  20.765  53.207  1.00  0.00     0.160 A 
HETATM   26  C   UNL     1       8.041  21.987  53.616  1.00  0.00     0.160 A 
HETATM   27  F   UNL     1       7.872  22.979  52.729  1.00  0.00    -0.202 F 
ENDBRANCH  19  21
ENDBRANCH  11  17
ENDBRANCH   1   7
BRANCH   5  28
HETATM   28  C   UNL     1       8.893  31.755  59.859  1.00  0.00     0.256 C 
HETATM   29  O   UNL     1       9.554  32.777  60.018  1.00  0.00    -0.267 OA
HETATM   30  N   UNL     1       7.950  31.248  60.732  1.00  0.00    -0.320 N 
HETATM   31  H   UNL     1       7.673  30.277  60.620  1.00  0.00     0.169 HD
BRANCH  30  32
HETATM   32  C   UNL     1       7.453  31.901  61.886  1.00  0.00     0.075 A 
HETATM   33  C   UNL     1       8.208  32.068  63.052  1.00  0.00     0.033 A 
HETATM   34  C   UNL     1       7.669  32.724  64.160  1.00  0.00     0.003 A 
HETATM   35  C   UNL     1       6.365  33.214  64.113  1.00  0.00     0.021 A 
HETATM   36  C   UNL     1       5.597  33.066  62.949  1.00  0.00     0.080 A 
HETATM   37  C   UNL     1       6.151  32.420  61.840  1.00  0.00     0.159 A 
HETATM   38  F   UNL     1       5.438  32.235  60.717  1.00  0.00    -0.203 F 
BRANCH  36  39
HETATM   39  C   UNL     1       4.208  33.568  62.984  1.00  0.00     0.296 C 
HETATM   40  O   UNL     1       3.247  32.856  62.737  1.00  0.00    -0.259 OA
BRANCH  39  41
HETATM   41  O   UNL     1       4.156  34.865  63.371  1.00  0.00    -0.312 OA
BRANCH  41  42
HETATM   42  C   UNL     1       4.437  35.814  62.339  1.00  0.00     0.132 C 
HETATM   43  C   UNL     1       3.362  36.889  62.231  1.00  0.00     0.032 C 
HETATM   44  C   UNL     1       4.084  38.013  61.508  1.00  0.00     0.002 C 
HETATM   45  C   UNL     1       5.488  38.004  62.104  1.00  0.00     0.002 C 
HETATM   46  C   UNL     1       5.694  36.608  62.693  1.00  0.00     0.032 C 
ENDBRANCH  41  42
ENDBRANCH  39  41
ENDBRANCH  36  39
ENDBRANCH  30  32
ENDBRANCH   5  28
TORSDOF 10
ENDMDL
MODEL 2
REMARK VINA RESULT:     -11.2      3.063     12.098
REMARK  10 active torsions:
REMARK  status: ('A' for Active; 'I' for Inactive)
REMARK    1  A    between atoms: N_1  and  C_2 
REMARK    2  A    between atoms: C_2  and  C_3 
REMARK    3  A    between atoms: C_6  and  C_33 
REMARK    4  A    between atoms: C_8  and  C_9 
REMARK    5  A    between atoms: C_13  and  C_15 
REMARK       I    between atoms: C_15  and  N_17 
REMARK    6  A    between atoms: N_17  and  C_18 
REMARK    7  A    between atoms: C_22  and  C_23 
REMARK    8  A    between atoms: C_23  and  O_25 
REMARK    9  A    between atoms: O_25  and  C_26 
REMARK       I    between atoms: C_33  and  N_35 
REMARK   10  A    between atoms: N_35  and  C_36 
ROOT
HETATM    1  C   UNL     1       7.322  31.877  59.672  1.00  0.00    -0.024 A 
HETATM    2  C   UNL     1       8.478  32.516  60.152  1.00  0.00     0.012 A 
HETATM    3  C   UNL     1       9.760  32.096  59.775  1.00  0.00     0.002 A 
HETATM    4  C   UNL     1       9.920  31.054  58.865  1.00  0.00     0.017 A 
HETATM    5  C   UNL     1       8.788  30.426  58.342  1.00  0.00     0.033 A 
HETATM    6  C   UNL     1       7.509  30.821  58.761  1.00  0.00     0.029 A 
ENDROOT
BRANCH   1   7
HETATM    7  C   UNL     1       5.953  32.330  60.032  1.00  0.00    -0.017 A 
HETATM    8  C   UNL     1       4.923  32.587  59.092  1.00  0.00    -0.020 A 
HETATM    9  C   UNL     1       3.658  33.020  59.549  1.00  0.00     0.011 A 
HETATM   10  C   UNL     1       3.411  33.245  60.902  1.00  0.00     0.017 A 
HETATM   11  C   UNL     1       4.417  33.020  61.838  1.00  0.00     0.033 A 
HETATM   12  C   UNL     1       5.666  32.557  61.401  1.00  0.00     0.030 A 
BRANCH   8  13
HETATM   13  C   UNL     1       5.095  32.459  57.594  1.00  0.00     0.306 C 
BRANCH  13  14
HETATM   14  N   UNL     1       4.119  33.267  56.870  1.00  0.00     0.082 N 
HETATM   15  H   UNL     1       3.282  32.710  56.710  1.00  0.00     0.313 HD
HETATM   16  H   UNL     1       4.488  33.494  55.948  1.00  0.00     0.313 HD
ENDBRANCH  13  14
ENDBRANCH   8  13
BRANCH  11  17
HETATM   17  C   UNL     1       4.155  33.380  63.264  1.00  0.00     0.256 C 
HETATM   18  O   UNL     1       3.020  33.725  63.577  1.00  0.00    -0.267 OA
HETATM   19  N   UNL     1       5.233  33.281  64.122  1.00  0.00    -0.320 N 
HETATM   20  H   UNL     1       6.065  32.802  63.795  1.00  0.00     0.169 HD
BRANCH  19  21
HETATM   21  C   UNL     1       5.295  33.729  65.462  1.00  0.00     0.076 A 
HETATM   22  C   UNL     1       4.178  34.013  66.246  1.00  0.00     0.052 A 
HETATM   23  C   UNL     1       4.377  34.479  67.540  1.00  0.00     0.118 A 
HETATM   24  N   UNL     1       5.594  34.676  68.097  1.00  0.00    -0.270 NA
HETATM   25  C   UNL     1       6.662  34.396  67.317  1.00  0.00     0.160 A 
HETATM   26  C   UNL     1       6.558  33.931  66.017  1.00  0.00     0.160 A 
HETATM   27  F   UNL     1       7.663  33.682  65.298  1.00  0.00    -0.202 F 
ENDBRANCH  19  21
ENDBRANCH  11  17
ENDBRANCH   1   7
BRANCH   5  28
HETATM   28  C   UNL     1       8.888  29.440  57.237  1.00  0.00     0.256 C 
HETATM   29  O   UNL     1      10.005  29.194  56.791  1.00  0.00    -0.267 OA
HETATM   30  N   UNL     1       7.696  28.903  56.792  1.00  0.00    -0.320 N 
HETATM   31  H   UNL     1       6.836  29.376  57.052  1.00  0.00     0.169 HD
BRANCH  30  32
HETATM   32  C   UNL     1       7.559  27.847  55.858  1.00  0.00     0.075 A 
HETATM   33  C   UNL     1       7.375  28.061  54.488  1.00  0.00     0.033 A 
HETATM   34  C   UNL     1       7.249  26.981  53.611  1.00  0.00     0.003 A 
HETATM   35  C   UNL     1       7.302  25.678  54.100  1.00  0.00     0.021 A 
HETATM   36  C   UNL     1       7.498  25.444  55.468  1.00  0.00     0.080 A 
HETATM   37  C   UNL     1       7.636  26.531  56.336  1.00  0.00     0.159 A 
HETATM   38  F   UNL     1       7.798  26.348  57.657  1.00  0.00    -0.203 F 
BRANCH  36  39
HETATM   39  C   UNL     1       7.498  24.038  55.923  1.00  0.00     0.296 C 
HETATM   40  O   UNL     1       7.783  23.720  57.068  1.00  0.00    -0.259 OA
BRANCH  39  41
HETATM   41  O   UNL     1       7.096  23.196  54.943  1.00  0.00    -0.312 OA
BRANCH  41  42
HETATM   42  C   UNL     1       8.082  22.253  54.515  1.00  0.00     0.132 C 
HETATM   43  C   UNL     1       7.912  20.892  55.180  1.00  0.00     0.032 C 
HETATM   44  C   UNL     1       8.660  19.964  54.239  1.00  0.00     0.002 C 
HETATM   45  C   UNL     1       8.327  20.489  52.846  1.00  0.00     0.002 C 
HETATM   46  C   UNL     1       7.896  21.944  53.030  1.00  0.00     0.032 C 
ENDBRANCH  41  42
ENDBRANCH  39  41
ENDBRANCH  36  39
ENDBRANCH  30  32
ENDBRANCH   5  28
TORSDOF 10
ENDMDL
MODEL 3
REMARK VINA RESULT:     -11.0      3.093     12.453
REMARK  10 active torsions:
REMARK  status: ('A' for Active; 'I' for Inactive)
REMARK    1  A    between atoms: N_1  and  C_2 
REMARK    2  A    between atoms: C_2  and  C_3 
REMARK    3  A    between atoms: C_6  and  C_33 
REMARK    4  A    between atoms: C_8  and  C_9 
REMARK    5  A    between atoms: C_13  and  C_15 
REMARK       I    between atoms: C_15  and  N_17 
REMARK    6  A    between atoms: N_17  and  C_18 
REMARK    7  A    between atoms: C_22  and  C_23 
REMARK    8  A    between atoms: C_23  and  O_25 
REMARK    9  A    between atoms: O_25  and  C_26 
REMARK       I    between atoms: C_33  and  N_35 
REMARK   10  A    between atoms: N_35  and  C_36 
ROOT
HETATM    1  C   UNL     1       6.150  32.174  58.745  1.00  0.00    -0.024 A 
HETATM    2  C   UNL     1       5.230  33.163  58.359  1.00  0.00     0.012 A 
HETATM    3  C   UNL     1       4.461  33.039  57.194  1.00  0.00     0.002 A 
HETATM    4  C   UNL     1       4.556  31.893  56.408  1.00  0.00     0.017 A 
HETATM    5  C   UNL     1       5.435  30.877  56.788  1.00  0.00     0.033 A 
HETATM    6  C   UNL     1       6.235  31.030  57.931  1.00  0.00     0.029 A 
ENDROOT
BRANCH   1   7
HETATM    7  C   UNL     1       6.947  32.271  59.995  1.00  0.00    -0.017 A 
HETATM    8  C   UNL     1       8.343  32.038  60.073  1.00  0.00    -0.020 A 
HETATM    9  C   UNL     1       8.999  32.155  61.320  1.00  0.00     0.011 A 
HETATM   10  C   UNL     1       8.296  32.450  62.486  1.00  0.00     0.017 A 
HETATM   11  C   UNL     1       6.921  32.660  62.434  1.00  0.00     0.033 A 
HETATM   12  C   UNL     1       6.263  32.582  61.198  1.00  0.00     0.030 A 
BRANCH   8  13
HETATM   13  C   UNL     1       9.200  31.632  58.893  1.00  0.00     0.306 C 
BRANCH  13  14
HETATM   14  N   UNL     1       9.503  30.205  58.916  1.00  0.00     0.082 N 
HETATM   15  H   UNL     1      10.476  30.078  59.187  1.00  0.00     0.313 HD
HETATM   16  H   UNL     1       9.421  29.829  57.972  1.00  0.00     0.313 HD
ENDBRANCH  13  14
ENDBRANCH   8  13
BRANCH  11  17
HETATM   17  C   UNL     1       6.182  32.860  63.717  1.00  0.00     0.256 C 
HETATM   18  O   UNL     1       5.190  32.171  63.930  1.00  0.00    -0.267 OA
HETATM   19  N   UNL     1       6.699  33.814  64.572  1.00  0.00    -0.320 N 
HETATM   20  H   UNL     1       7.627  34.179  64.380  1.00  0.00     0.169 HD
BRANCH  19  21
HETATM   21  C   UNL     1       6.096  34.315  65.749  1.00  0.00     0.076 A 
HETATM   22  C   UNL     1       6.527  34.014  67.039  1.00  0.00     0.052 A 
HETATM   23  C   UNL     1       5.826  34.546  68.114  1.00  0.00     0.118 A 
HETATM   24  N   UNL     1       4.742  35.346  67.992  1.00  0.00    -0.270 NA
HETATM   25  C   UNL     1       4.341  35.622  66.731  1.00  0.00     0.160 A 
HETATM   26  C   UNL     1       4.977  35.134  65.603  1.00  0.00     0.160 A 
HETATM   27  F   UNL     1       4.517  35.443  64.381  1.00  0.00    -0.202 F 
ENDBRANCH  19  21
ENDBRANCH  11  17
ENDBRANCH   1   7
BRANCH   5  28
HETATM   28  C   UNL     1       5.445  29.562  56.098  1.00  0.00     0.256 C 
HETATM   29  O   UNL     1       4.365  29.081  55.769  1.00  0.00    -0.267 OA
HETATM   30  N   UNL     1       6.686  28.984  55.912  1.00  0.00    -0.320 N 
HETATM   31  H   UNL     1       7.464  29.344  56.456  1.00  0.00     0.169 HD
BRANCH  30  32
HETATM   32  C   UNL     1       6.951  27.816  55.157  1.00  0.00     0.075 A 
HETATM   33  C   UNL     1       7.054  27.817  53.762  1.00  0.00     0.033 A 
HETATM   34  C   UNL     1       7.321  26.634  53.068  1.00  0.00     0.003 A 
HETATM   35  C   UNL     1       7.481  25.439  53.765  1.00  0.00     0.021 A 
HETATM   36  C   UNL     1       7.392  25.420  55.164  1.00  0.00     0.080 A 
HETATM   37  C   UNL     1       7.139  26.611  55.851  1.00  0.00     0.159 A 
HETATM   38  F   UNL     1       7.020  26.629  57.189  1.00  0.00    -0.203 F 
BRANCH  36  39
HETATM   39  C   UNL     1       7.527  24.111  55.835  1.00  0.00     0.296 C 
HETATM   40  O   UNL     1       7.944  24.000  56.978  1.00  0.00    -0.259 OA
BRANCH  39  41
HETATM   41  O   UNL     1       7.085  23.100  55.051  1.00  0.00    -0.312 OA
BRANCH  41  42
HETATM   42  C   UNL     1       8.094  22.183  54.622  1.00  0.00     0.132 C 
HETATM   43  C   UNL     1       7.935  20.806  55.255  1.00  0.00     0.032 C 
HETATM   44  C   UNL     1       8.716  19.910  54.308  1.00  0.00     0.002 C 
HETATM   45  C   UNL     1       8.398  20.459  52.921  1.00  0.00     0.002 C 
HETATM   46  C   UNL     1       7.939  21.903  53.127  1.00  0.00     0.032 C 
ENDBRANCH  41  42
ENDBRANCH  39  41
ENDBRANCH  36  39
ENDBRANCH  30  32
ENDBRANCH   5  28
TORSDOF 10
ENDMDL
MODEL 4
REMARK VINA RESULT:     -10.9      3.256     12.503
REMARK  10 active torsions:
REMARK  status: ('A' for Active; 'I' for Inactive)
REMARK    1  A    between atoms: N_1  and  C_2 
REMARK    2  A    between atoms: C_2  and  C_3 
REMARK    3  A    between atoms: C_6  and  C_33 
REMARK    4  A    between atoms: C_8  and  C_9 
REMARK    5  A    between atoms: C_13  and  C_15 
REMARK       I    between atoms: C_15  and  N_17 
REMARK    6  A    between atoms: N_17  and  C_18 
REMARK    7  A    between atoms: C_22  and  C_23 
REMARK    8  A    between atoms: C_23  and  O_25 
REMARK    9  A    between atoms: O_25  and  C_26 
REMARK       I    between atoms: C_33  and  N_35 
REMARK   10  A    between atoms: N_35  and  C_36 
ROOT
HETATM    1  C   UNL     1       6.200  31.848  58.411  1.00  0.00    -0.024 A 
HETATM    2  C   UNL     1       5.445  32.861  57.797  1.00  0.00     0.012 A 
HETATM    3  C   UNL     1       4.786  32.652  56.579  1.00  0.00     0.002 A 
HETATM    4  C   UNL     1       4.824  31.402  55.964  1.00  0.00     0.017 A 
HETATM    5  C   UNL     1       5.535  30.366  56.571  1.00  0.00     0.033 A 
HETATM    6  C   UNL     1       6.231  30.597  57.767  1.00  0.00     0.029 A 
ENDROOT
BRANCH   1   7
HETATM    7  C   UNL     1       6.876  32.039  59.720  1.00  0.00    -0.017 A 
HETATM    8  C   UNL     1       8.278  31.958  59.916  1.00  0.00    -0.020 A 
HETATM    9  C   UNL     1       8.811  32.153  61.210  1.00  0.00     0.011 A 
HETATM   10  C   UNL     1       7.987  32.379  62.310  1.00  0.00     0.017 A 
HETATM   11  C   UNL     1       6.606  32.440  62.143  1.00  0.00     0.033 A 
HETATM   12  C   UNL     1       6.066  32.283  60.858  1.00  0.00     0.030 A 
BRANCH   8  13
HETATM   13  C   UNL     1       9.268  31.637  58.816  1.00  0.00     0.306 C 
BRANCH  13  14
HETATM   14  N   UNL     1       9.556  30.208  58.753  1.00  0.00     0.082 N 
HETATM   15  H   UNL     1       9.567  29.831  59.699  1.00  0.00     0.313 HD
HETATM   16  H   UNL     1      10.495  30.071  58.383  1.00  0.00     0.313 HD
ENDBRANCH  13  14
ENDBRANCH   8  13
BRANCH  11  17
HETATM   17  C   UNL     1       5.747  32.569  63.357  1.00  0.00     0.256 C 
HETATM   18  O   UNL     1       4.913  31.696  63.575  1.00  0.00    -0.267 OA
HETATM   19  N   UNL     1       5.979  33.678  64.149  1.00  0.00    -0.320 N 
HETATM   20  H   UNL     1       6.817  34.224  63.978  1.00  0.00     0.169 HD
BRANCH  19  21
HETATM   21  C   UNL     1       5.193  34.121  65.239  1.00  0.00     0.076 A 
HETATM   22  C   UNL     1       3.878  34.565  65.127  1.00  0.00     0.052 A 
HETATM   23  C   UNL     1       3.227  35.005  66.273  1.00  0.00     0.118 A 
HETATM   24  N   UNL     1       3.789  35.032  67.503  1.00  0.00    -0.270 NA
HETATM   25  C   UNL     1       5.068  34.599  67.586  1.00  0.00     0.160 A 
HETATM   26  C   UNL     1       5.793  34.146  66.498  1.00  0.00     0.160 A 
HETATM   27  F   UNL     1       7.062  33.738  66.654  1.00  0.00    -0.202 F 
ENDBRANCH  19  21
ENDBRANCH  11  17
ENDBRANCH   1   7
BRANCH   5  28
HETATM   28  C   UNL     1       5.460  28.972  56.064  1.00  0.00     0.256 C 
HETATM   29  O   UNL     1       5.162  28.090  56.863  1.00  0.00    -0.267 OA
HETATM   30  N   UNL     1       5.761  28.796  54.727  1.00  0.00    -0.320 N 
HETATM   31  H   UNL     1       6.244  29.547  54.245  1.00  0.00     0.169 HD
BRANCH  30  32
HETATM   32  C   UNL     1       5.615  27.591  53.997  1.00  0.00     0.075 A 
HETATM   33  C   UNL     1       4.389  27.155  53.482  1.00  0.00     0.033 A 
HETATM   34  C   UNL     1       4.304  25.960  52.766  1.00  0.00     0.003 A 
HETATM   35  C   UNL     1       5.445  25.186  52.564  1.00  0.00     0.021 A 
HETATM   36  C   UNL     1       6.684  25.612  53.063  1.00  0.00     0.080 A 
HETATM   37  C   UNL     1       6.762  26.816  53.767  1.00  0.00     0.159 A 
HETATM   38  F   UNL     1       7.926  27.245  54.283  1.00  0.00    -0.203 F 
BRANCH  36  39
HETATM   39  C   UNL     1       7.843  24.720  52.851  1.00  0.00     0.296 C 
HETATM   40  O   UNL     1       8.419  24.637  51.777  1.00  0.00    -0.259 OA
BRANCH  39  41
HETATM   41  O   UNL     1       8.194  24.079  53.991  1.00  0.00    -0.312 OA
BRANCH  41  42
HETATM   42  C   UNL     1       7.642  22.770  54.142  1.00  0.00     0.132 C 
HETATM   43  C   UNL     1       8.558  21.685  53.584  1.00  0.00     0.032 C 
HETATM   44  C   UNL     1       8.068  20.436  54.295  1.00  0.00     0.002 C 
HETATM   45  C   UNL     1       7.756  20.904  55.712  1.00  0.00     0.002 C 
HETATM   46  C   UNL     1       7.542  22.415  55.625  1.00  0.00     0.032 C 
ENDBRANCH  41  42
ENDBRANCH  39  41
ENDBRANCH  36  39
ENDBRANCH  30  32
ENDBRANCH   5  28
TORSDOF 10
ENDMDL
MODEL 5
REMARK VINA RESULT:     -10.9      3.963     12.602
REMARK  10 active torsions:
REMARK  status: ('A' for Active; 'I' for Inactive)
REMARK    1  A    between atoms: N_1  and  C_2 
REMARK    2  A    between atoms: C_2  and  C_3 
REMARK    3  A    between atoms: C_6  and  C_33 
REMARK    4  A    between atoms: C_8  and  C_9 
REMARK    5  A    between atoms: C_13  and  C_15 
REMARK       I    between atoms: C_15  and  N_17 
REMARK    6  A    between atoms: N_17  and  C_18 
REMARK    7  A    between atoms: C_22  and  C_23 
REMARK    8  A    between atoms: C_23  and  O_25 
REMARK    9  A    between atoms: O_25  and  C_26 
REMARK       I    between atoms: C_33  and  N_35 
REMARK   10  A    between atoms: N_35  and  C_36 
ROOT
HETATM    1  C   UNL     1       6.743  32.479  62.642  1.00  0.00    -0.024 A 
HETATM    2  C   UNL     1       8.010  32.447  63.249  1.00  0.00     0.012 A 
HETATM    3  C   UNL     1       9.122  31.892  62.602  1.00  0.00     0.002 A 
HETATM    4  C   UNL     1       9.007  31.398  61.304  1.00  0.00     0.017 A 
HETATM    5  C   UNL     1       7.769  31.452  60.662  1.00  0.00     0.033 A 
HETATM    6  C   UNL     1       6.650  31.966  61.335  1.00  0.00     0.029 A 
ENDROOT
BRANCH   1   7
HETATM    7  C   UNL     1       5.560  33.095  63.297  1.00  0.00    -0.017 A 
HETATM    8  C   UNL     1       4.334  33.367  62.641  1.00  0.00    -0.020 A 
HETATM    9  C   UNL     1       3.275  33.961  63.365  1.00  0.00     0.011 A 
HETATM   10  C   UNL     1       3.424  34.329  64.700  1.00  0.00     0.017 A 
HETATM   11  C   UNL     1       4.628  34.090  65.357  1.00  0.00     0.033 A 
HETATM   12  C   UNL     1       5.675  33.469  64.660  1.00  0.00     0.030 A 
BRANCH   8  13
HETATM   13  C   UNL     1       4.080  33.089  61.174  1.00  0.00     0.306 C 
BRANCH  13  14
HETATM   14  N   UNL     1       2.678  33.289  60.825  1.00  0.00     0.082 N 
HETATM   15  H   UNL     1       2.584  33.272  59.811  1.00  0.00     0.313 HD
HETATM   16  H   UNL     1       2.388  34.220  61.121  1.00  0.00     0.313 HD
ENDBRANCH  13  14
ENDBRANCH   8  13
BRANCH  11  17
HETATM   17  C   UNL     1       4.792  34.600  66.751  1.00  0.00     0.256 C 
HETATM   18  O   UNL     1       4.057  35.507  67.128  1.00  0.00    -0.267 OA
HETATM   19  N   UNL     1       5.768  33.985  67.510  1.00  0.00    -0.320 N 
HETATM   20  H   UNL     1       6.176  33.123  67.163  1.00  0.00     0.169 HD
BRANCH  19  21
HETATM   21  C   UNL     1       6.239  34.394  68.780  1.00  0.00     0.076 A 
HETATM   22  C   UNL     1       7.051  35.505  68.994  1.00  0.00     0.052 A 
HETATM   23  C   UNL     1       7.472  35.780  70.289  1.00  0.00     0.118 A 
HETATM   24  N   UNL     1       7.143  35.035  71.368  1.00  0.00    -0.270 NA
HETATM   25  C   UNL     1       6.357  33.960  71.136  1.00  0.00     0.160 A 
HETATM   26  C   UNL     1       5.894  33.609  69.880  1.00  0.00     0.160 A 
HETATM   27  F   UNL     1       5.123  32.522  69.723  1.00  0.00    -0.202 F 
ENDBRANCH  19  21
ENDBRANCH  11  17
ENDBRANCH   1   7
BRANCH   5  28
HETATM   28  C   UNL     1       7.625  31.114  59.223  1.00  0.00     0.256 C 
HETATM   29  O   UNL     1       6.995  31.892  58.515  1.00  0.00    -0.267 OA
HETATM   30  N   UNL     1       8.202  29.926  58.818  1.00  0.00    -0.320 N 
HETATM   31  H   UNL     1       8.458  29.253  59.535  1.00  0.00     0.169 HD
BRANCH  30  32
HETATM   32  C   UNL     1       8.318  29.474  57.481  1.00  0.00     0.075 A 
HETATM   33  C   UNL     1       9.403  29.797  56.659  1.00  0.00     0.033 A 
HETATM   34  C   UNL     1       9.467  29.321  55.348  1.00  0.00     0.003 A 
HETATM   35  C   UNL     1       8.442  28.522  54.846  1.00  0.00     0.021 A 
HETATM   36  C   UNL     1       7.353  28.178  55.659  1.00  0.00     0.080 A 
HETATM   37  C   UNL     1       7.304  28.648  56.974  1.00  0.00     0.159 A 
HETATM   38  F   UNL     1       6.264  28.363  57.775  1.00  0.00    -0.203 F 
BRANCH  36  39
HETATM   39  C   UNL     1       6.281  27.366  55.048  1.00  0.00     0.296 C 
HETATM   40  O   UNL     1       5.330  27.866  54.466  1.00  0.00    -0.259 OA
BRANCH  39  41
HETATM   41  O   UNL     1       6.525  26.040  55.174  1.00  0.00    -0.312 OA
BRANCH  41  42
HETATM   42  C   UNL     1       6.507  25.305  53.948  1.00  0.00     0.132 C 
HETATM   43  C   UNL     1       7.608  25.745  52.990  1.00  0.00     0.032 C 
HETATM   44  C   UNL     1       7.741  24.551  52.061  1.00  0.00     0.002 C 
HETATM   45  C   UNL     1       7.583  23.341  52.976  1.00  0.00     0.002 C 
HETATM   46  C   UNL     1       6.843  23.838  54.218  1.00  0.00     0.032 C 
ENDBRANCH  41  42
ENDBRANCH  39  41
ENDBRANCH  36  39
ENDBRANCH  30  32
ENDBRANCH   5  28
TORSDOF 10
ENDMDL
MODEL 6
REMARK VINA RESULT:     -10.6      3.285     11.408
REMARK  10 active torsions:
REMARK  status: ('A' for Active; 'I' for Inactive)
REMARK    1  A    between atoms: N_1  and  C_2 
REMARK    2  A    between atoms: C_2  and  C_3 
REMARK    3  A    between atoms: C_6  and  C_33 
REMARK    4  A    between atoms: C_8  and  C_9 
REMARK    5  A    between atoms: C_13  and  C_15 
REMARK       I    between atoms: C_15  and  N_17 
REMARK    6  A    between atoms: N_17  and  C_18 
REMARK    7  A    between atoms: C_22  and  C_23 
REMARK    8  A    between atoms: C_23  and  O_25 
REMARK    9  A    between atoms: O_25  and  C_26 
REMARK       I    between atoms: C_33  and  N_35 
REMARK   10  A    between atoms: N_35  and  C_36 
ROOT
HETATM    1  C   UNL     1       8.436  31.245  59.395  1.00  0.00    -0.024 A 
HETATM    2  C   UNL     1       9.722  31.493  58.886  1.00  0.00     0.012 A 
HETATM    3  C   UNL     1      10.203  30.833  57.748  1.00  0.00     0.002 A 
HETATM    4  C   UNL     1       9.389  29.938  57.057  1.00  0.00     0.017 A 
HETATM    5  C   UNL     1       8.093  29.700  57.519  1.00  0.00     0.033 A 
HETATM    6  C   UNL     1       7.635  30.330  58.686  1.00  0.00     0.029 A 
ENDROOT
BRANCH   1   7
HETATM    7  C   UNL     1       7.895  31.961  60.579  1.00  0.00    -0.017 A 
HETATM    8  C   UNL     1       8.362  31.782  61.905  1.00  0.00    -0.020 A 
HETATM    9  C   UNL     1       7.768  32.516  62.957  1.00  0.00     0.011 A 
HETATM   10  C   UNL     1       6.699  33.379  62.727  1.00  0.00     0.017 A 
HETATM   11  C   UNL     1       6.210  33.552  61.435  1.00  0.00     0.033 A 
HETATM   12  C   UNL     1       6.814  32.856  60.378  1.00  0.00     0.030 A 
BRANCH   8  13
HETATM   13  C   UNL     1       9.460  30.813  62.291  1.00  0.00     0.306 C 
BRANCH  13  14
HETATM   14  N   UNL     1       8.916  29.530  62.722  1.00  0.00     0.082 N 
HETATM   15  H   UNL     1       9.687  28.901  62.941  1.00  0.00     0.313 HD
HETATM   16  H   UNL     1       8.413  29.101  61.947  1.00  0.00     0.313 HD
ENDBRANCH  13  14
ENDBRANCH   8  13
BRANCH  11  17
HETATM   17  C   UNL     1       4.992  34.394  61.242  1.00  0.00     0.256 C 
HETATM   18  O   UNL     1       4.906  35.444  61.871  1.00  0.00    -0.267 OA
HETATM   19  N   UNL     1       4.058  33.912  60.346  1.00  0.00    -0.320 N 
HETATM   20  H   UNL     1       4.322  33.140  59.744  1.00  0.00     0.169 HD
BRANCH  19  21
HETATM   21  C   UNL     1       2.756  34.420  60.122  1.00  0.00     0.076 A 
HETATM   22  C   UNL     1       1.684  34.240  60.992  1.00  0.00     0.052 A 
HETATM   23  C   UNL     1       0.447  34.763  60.638  1.00  0.00     0.118 A 
HETATM   24  N   UNL     1       0.210  35.444  59.494  1.00  0.00    -0.270 NA
HETATM   25  C   UNL     1       1.265  35.604  58.663  1.00  0.00     0.160 A 
HETATM   26  C   UNL     1       2.531  35.115  58.934  1.00  0.00     0.160 A 
HETATM   27  F   UNL     1       3.530  35.304  58.058  1.00  0.00    -0.202 F 
ENDBRANCH  19  21
ENDBRANCH  11  17
ENDBRANCH   1   7
BRANCH   5  28
HETATM   28  C   UNL     1       7.121  28.905  56.726  1.00  0.00     0.256 C 
HETATM   29  O   UNL     1       6.700  27.863  57.219  1.00  0.00    -0.267 OA
HETATM   30  N   UNL     1       6.796  29.408  55.482  1.00  0.00    -0.320 N 
HETATM   31  H   UNL     1       7.401  30.121  55.084  1.00  0.00     0.169 HD
BRANCH  30  32
HETATM   32  C   UNL     1       5.792  28.904  54.620  1.00  0.00     0.075 A 
HETATM   33  C   UNL     1       4.493  29.423  54.577  1.00  0.00     0.033 A 
HETATM   34  C   UNL     1       3.543  28.889  53.705  1.00  0.00     0.003 A 
HETATM   35  C   UNL     1       3.883  27.826  52.871  1.00  0.00     0.021 A 
HETATM   36  C   UNL     1       5.182  27.300  52.891  1.00  0.00     0.080 A 
HETATM   37  C   UNL     1       6.130  27.850  53.758  1.00  0.00     0.159 A 
HETATM   38  F   UNL     1       7.378  27.356  53.827  1.00  0.00    -0.203 F 
BRANCH  36  39
HETATM   39  C   UNL     1       5.460  26.144  52.014  1.00  0.00     0.296 C 
HETATM   40  O   UNL     1       6.059  26.254  50.955  1.00  0.00    -0.259 OA
BRANCH  39  41
HETATM   41  O   UNL     1       5.024  24.985  52.562  1.00  0.00    -0.312 OA
BRANCH  41  42
HETATM   42  C   UNL     1       6.055  24.119  53.041  1.00  0.00     0.132 C 
HETATM   43  C   UNL     1       7.408  24.418  52.404  1.00  0.00     0.032 C 
HETATM   44  C   UNL     1       8.385  23.800  53.389  1.00  0.00     0.002 C 
HETATM   45  C   UNL     1       7.790  24.111  54.758  1.00  0.00     0.002 C 
HETATM   46  C   UNL     1       6.302  24.376  54.527  1.00  0.00     0.032 C 
ENDBRANCH  41  42
ENDBRANCH  39  41
ENDBRANCH  36  39
ENDBRANCH  30  32
ENDBRANCH   5  28
TORSDOF 10
ENDMDL
MODEL 7
REMARK VINA RESULT:     -10.6      2.064      3.105
REMARK  10 active torsions:
REMARK  status: ('A' for Active; 'I' for Inactive)
REMARK    1  A    between atoms: N_1  and  C_2 
REMARK    2  A    between atoms: C_2  and  C_3 
REMARK    3  A    between atoms: C_6  and  C_33 
REMARK    4  A    between atoms: C_8  and  C_9 
REMARK    5  A    between atoms: C_13  and  C_15 
REMARK       I    between atoms: C_15  and  N_17 
REMARK    6  A    between atoms: N_17  and  C_18 
REMARK    7  A    between atoms: C_22  and  C_23 
REMARK    8  A    between atoms: C_23  and  O_25 
REMARK    9  A    between atoms: O_25  and  C_26 
REMARK       I    between atoms: C_33  and  N_35 
REMARK   10  A    between atoms: N_35  and  C_36 
ROOT
HETATM    1  C   UNL     1       7.355  29.226  57.269  1.00  0.00    -0.024 A 
HETATM    2  C   UNL     1       8.636  29.185  57.845  1.00  0.00     0.012 A 
HETATM    3  C   UNL     1       9.094  30.201  58.694  1.00  0.00     0.002 A 
HETATM    4  C   UNL     1       8.261  31.265  59.032  1.00  0.00     0.017 A 
HETATM    5  C   UNL     1       6.969  31.312  58.505  1.00  0.00     0.033 A 
HETATM    6  C   UNL     1       6.534  30.315  57.618  1.00  0.00     0.029 A 
ENDROOT
BRANCH   1   7
HETATM    7  C   UNL     1       6.838  28.141  56.395  1.00  0.00    -0.017 A 
HETATM    8  C   UNL     1       5.679  28.250  55.586  1.00  0.00    -0.020 A 
HETATM    9  C   UNL     1       5.277  27.149  54.797  1.00  0.00     0.011 A 
HETATM   10  C   UNL     1       5.969  25.940  54.829  1.00  0.00     0.017 A 
HETATM   11  C   UNL     1       7.097  25.806  55.634  1.00  0.00     0.033 A 
HETATM   12  C   UNL     1       7.527  26.902  56.396  1.00  0.00     0.030 A 
BRANCH   8  13
HETATM   13  C   UNL     1       4.800  29.481  55.530  1.00  0.00     0.306 C 
BRANCH  13  14
HETATM   14  N   UNL     1       4.851  30.118  54.219  1.00  0.00     0.082 N 
HETATM   15  H   UNL     1       5.823  30.184  53.921  1.00  0.00     0.313 HD
HETATM   16  H   UNL     1       4.514  31.076  54.298  1.00  0.00     0.313 HD
ENDBRANCH  13  14
ENDBRANCH   8  13
BRANCH  11  17
HETATM   17  C   UNL     1       7.745  24.464  55.732  1.00  0.00     0.256 C 
HETATM   18  O   UNL     1       8.702  24.335  56.489  1.00  0.00    -0.267 OA
HETATM   19  N   UNL     1       7.193  23.466  54.954  1.00  0.00    -0.320 N 
HETATM   20  H   UNL     1       6.291  23.637  54.521  1.00  0.00     0.169 HD
BRANCH  19  21
HETATM   21  C   UNL     1       7.722  22.173  54.731  1.00  0.00     0.076 A 
HETATM   22  C   UNL     1       7.964  21.241  55.738  1.00  0.00     0.052 A 
HETATM   23  C   UNL     1       8.518  20.016  55.389  1.00  0.00     0.118 A 
HETATM   24  N   UNL     1       8.841  19.662  54.124  1.00  0.00    -0.270 NA
HETATM   25  C   UNL     1       8.600  20.583  53.164  1.00  0.00     0.160 A 
HETATM   26  C   UNL     1       8.054  21.828  53.421  1.00  0.00     0.160 A 
HETATM   27  F   UNL     1       7.850  22.697  52.419  1.00  0.00    -0.202 F 
ENDBRANCH  19  21
ENDBRANCH  11  17
ENDBRANCH   1   7
BRANCH   5  28
HETATM   28  C   UNL     1       5.977  32.315  58.969  1.00  0.00     0.256 C 
HETATM   29  O   UNL     1       5.680  33.223  58.199  1.00  0.00    -0.267 OA
HETATM   30  N   UNL     1       5.495  32.142  60.252  1.00  0.00    -0.320 N 
HETATM   31  H   UNL     1       6.007  31.523  60.873  1.00  0.00     0.169 HD
BRANCH  30  32
HETATM   32  C   UNL     1       4.444  32.881  60.849  1.00  0.00     0.075 A 
HETATM   33  C   UNL     1       3.187  33.033  60.255  1.00  0.00     0.033 A 
HETATM   34  C   UNL     1       2.186  33.770  60.891  1.00  0.00     0.003 A 
HETATM   35  C   UNL     1       2.437  34.367  62.125  1.00  0.00     0.021 A 
HETATM   36  C   UNL     1       3.687  34.216  62.740  1.00  0.00     0.080 A 
HETATM   37  C   UNL     1       4.679  33.465  62.103  1.00  0.00     0.159 A 
HETATM   38  F   UNL     1       5.898  33.320  62.648  1.00  0.00    -0.203 F 
BRANCH  36  39
HETATM   39  C   UNL     1       3.900  34.913  64.025  1.00  0.00     0.296 C 
HETATM   40  O   UNL     1       3.610  36.089  64.189  1.00  0.00    -0.259 OA
BRANCH  39  41
HETATM   41  O   UNL     1       4.389  34.078  64.972  1.00  0.00    -0.312 OA
BRANCH  41  42
HETATM   42  C   UNL     1       5.089  34.720  66.040  1.00  0.00     0.132 C 
HETATM   43  C   UNL     1       4.441  34.463  67.396  1.00  0.00     0.032 C 
HETATM   44  C   UNL     1       5.573  34.752  68.367  1.00  0.00     0.002 C 
HETATM   45  C   UNL     1       6.812  34.184  67.683  1.00  0.00     0.002 C 
HETATM   46  C   UNL     1       6.480  34.106  66.193  1.00  0.00     0.032 C 
ENDBRANCH  41  42
ENDBRANCH  39  41
ENDBRANCH  36  39
ENDBRANCH  30  32
ENDBRANCH   5  28
TORSDOF 10
ENDMDL
MODEL 8
REMARK VINA RESULT:     -10.5      2.970     12.812
REMARK  10 active torsions:
REMARK  status: ('A' for Active; 'I' for Inactive)
REMARK    1  A    between atoms: N_1  and  C_2 
REMARK    2  A    between atoms: C_2  and  C_3 
REMARK    3  A    between atoms: C_6  and  C_33 
REMARK    4  A    between atoms: C_8  and  C_9 
REMARK    5  A    between atoms: C_13  and  C_15 
REMARK       I    between atoms: C_15  and  N_17 
REMARK    6  A    between atoms: N_17  and  C_18 
REMARK    7  A    between atoms: C_22  and  C_23 
REMARK    8  A    between atoms: C_23  and  O_25 
REMARK    9  A    between atoms: O_25  and  C_26 
REMARK       I    between atoms: C_33  and  N_35 
REMARK   10  A    between atoms: N_35  and  C_36 
ROOT
HETATM    1  C   UNL     1       6.759  32.249  60.642  1.00  0.00    -0.024 A 
HETATM    2  C   UNL     1       7.763  32.378  61.616  1.00  0.00     0.012 A 
HETATM    3  C   UNL     1       8.920  31.587  61.589  1.00  0.00     0.002 A 
HETATM    4  C   UNL     1       9.126  30.678  60.554  1.00  0.00     0.017 A 
HETATM    5  C   UNL     1       8.163  30.556  59.552  1.00  0.00     0.033 A 
HETATM    6  C   UNL     1       6.986  31.318  59.611  1.00  0.00     0.029 A 
ENDROOT
BRANCH   1   7
HETATM    7  C   UNL     1       5.543  33.103  60.633  1.00  0.00    -0.017 A 
HETATM    8  C   UNL     1       4.350  32.788  59.935  1.00  0.00    -0.020 A 
HETATM    9  C   UNL     1       3.254  33.679  59.994  1.00  0.00     0.011 A 
HETATM   10  C   UNL     1       3.335  34.886  60.685  1.00  0.00     0.017 A 
HETATM   11  C   UNL     1       4.506  35.224  61.358  1.00  0.00     0.033 A 
HETATM   12  C   UNL     1       5.588  34.333  61.337  1.00  0.00     0.030 A 
BRANCH   8  13
HETATM   13  C   UNL     1       4.170  31.549  59.084  1.00  0.00     0.306 C 
BRANCH  13  14
HETATM   14  N   UNL     1       3.204  30.628  59.673  1.00  0.00     0.082 N 
HETATM   15  H   UNL     1       3.491  29.673  59.470  1.00  0.00     0.313 HD
HETATM   16  H   UNL     1       2.301  30.754  59.218  1.00  0.00     0.313 HD
ENDBRANCH  13  14
ENDBRANCH   8  13
BRANCH  11  17
HETATM   17  C   UNL     1       4.598  36.574  61.992  1.00  0.00     0.256 C 
HETATM   18  O   UNL     1       3.561  37.204  62.169  1.00  0.00    -0.267 OA
HETATM   19  N   UNL     1       5.867  36.995  62.337  1.00  0.00    -0.320 N 
HETATM   20  H   UNL     1       6.621  36.316  62.322  1.00  0.00     0.169 HD
BRANCH  19  21
HETATM   21  C   UNL     1       6.242  38.286  62.778  1.00  0.00     0.076 A 
HETATM   22  C   UNL     1       6.945  39.206  62.003  1.00  0.00     0.052 A 
HETATM   23  C   UNL     1       7.280  40.430  62.568  1.00  0.00     0.118 A 
HETATM   24  N   UNL     1       6.966  40.795  63.832  1.00  0.00    -0.270 NA
HETATM   25  C   UNL     1       6.286  39.885  64.566  1.00  0.00     0.160 A 
HETATM   26  C   UNL     1       5.914  38.641  64.087  1.00  0.00     0.160 A 
HETATM   27  F   UNL     1       5.247  37.785  64.876  1.00  0.00    -0.202 F 
ENDBRANCH  19  21
ENDBRANCH  11  17
ENDBRANCH   1   7
BRANCH   5  28
HETATM   28  C   UNL     1       8.409  29.744  58.333  1.00  0.00     0.256 C 
HETATM   29  O   UNL     1       9.542  29.751  57.862  1.00  0.00    -0.267 OA
HETATM   30  N   UNL     1       7.318  29.068  57.823  1.00  0.00    -0.320 N 
HETATM   31  H   UNL     1       6.395  29.350  58.138  1.00  0.00     0.169 HD
BRANCH  30  32
HETATM   32  C   UNL     1       7.347  28.127  56.765  1.00  0.00     0.075 A 
HETATM   33  C   UNL     1       7.146  28.478  55.426  1.00  0.00     0.033 A 
HETATM   34  C   UNL     1       7.189  27.507  54.423  1.00  0.00     0.003 A 
HETATM   35  C   UNL     1       7.427  26.175  54.753  1.00  0.00     0.021 A 
HETATM   36  C   UNL     1       7.641  25.806  56.088  1.00  0.00     0.080 A 
HETATM   37  C   UNL     1       7.610  26.786  57.084  1.00  0.00     0.159 A 
HETATM   38  F   UNL     1       7.784  26.468  58.377  1.00  0.00    -0.203 F 
BRANCH  36  39
HETATM   39  C   UNL     1       7.843  24.369  56.371  1.00  0.00     0.296 C 
HETATM   40  O   UNL     1       8.440  23.974  57.361  1.00  0.00    -0.259 OA
BRANCH  39  41
HETATM   41  O   UNL     1       7.243  23.589  55.442  1.00  0.00    -0.312 OA
BRANCH  41  42
HETATM   42  C   UNL     1       8.081  22.584  54.866  1.00  0.00     0.132 C 
HETATM   43  C   UNL     1       7.753  21.187  55.383  1.00  0.00     0.032 C 
HETATM   44  C   UNL     1       8.341  20.287  54.310  1.00  0.00     0.002 C 
HETATM   45  C   UNL     1       8.035  21.009  53.002  1.00  0.00     0.002 C 
HETATM   46  C   UNL     1       7.808  22.476  53.366  1.00  0.00     0.032 C 
ENDBRANCH  41  42
ENDBRANCH  39  41
ENDBRANCH  36  39
ENDBRANCH  30  32
ENDBRANCH   5  28
TORSDOF 10
ENDMDL
MODEL 9
REMARK VINA RESULT:     -10.5      1.634      2.108
REMARK  10 active torsions:
REMARK  status: ('A' for Active; 'I' for Inactive)
REMARK    1  A    between atoms: N_1  and  C_2 
REMARK    2  A    between atoms: C_2  and  C_3 
REMARK    3  A    between atoms: C_6  and  C_33 
REMARK    4  A    between atoms: C_8  and  C_9 
REMARK    5  A    between atoms: C_13  and  C_15 
REMARK       I    between atoms: C_15  and  N_17 
REMARK    6  A    between atoms: N_17  and  C_18 
REMARK    7  A    between atoms: C_22  and  C_23 
REMARK    8  A    between atoms: C_23  and  O_25 
REMARK    9  A    between atoms: O_25  and  C_26 
REMARK       I    between atoms: C_33  and  N_35 
REMARK   10  A    between atoms: N_35  and  C_36 
ROOT
HETATM    1  C   UNL     1       7.560  29.271  57.339  1.00  0.00    -0.024 A 
HETATM    2  C   UNL     1       8.926  29.280  57.665  1.00  0.00     0.012 A 
HETATM    3  C   UNL     1       9.491  30.300  58.442  1.00  0.00     0.002 A 
HETATM    4  C   UNL     1       8.691  31.317  58.957  1.00  0.00     0.017 A 
HETATM    5  C   UNL     1       7.323  31.313  58.681  1.00  0.00     0.033 A 
HETATM    6  C   UNL     1       6.773  30.314  57.864  1.00  0.00     0.029 A 
ENDROOT
BRANCH   1   7
HETATM    7  C   UNL     1       6.935  28.180  56.548  1.00  0.00    -0.017 A 
HETATM    8  C   UNL     1       5.679  28.281  55.899  1.00  0.00    -0.020 A 
HETATM    9  C   UNL     1       5.180  27.174  55.176  1.00  0.00     0.011 A 
HETATM   10  C   UNL     1       5.873  25.966  55.123  1.00  0.00     0.017 A 
HETATM   11  C   UNL     1       7.098  25.840  55.773  1.00  0.00     0.033 A 
HETATM   12  C   UNL     1       7.622  26.942  56.465  1.00  0.00     0.030 A 
BRANCH   8  13
HETATM   13  C   UNL     1       4.796  29.509  55.952  1.00  0.00     0.306 C 
BRANCH  13  14
HETATM   14  N   UNL     1       3.621  29.290  56.788  1.00  0.00     0.082 N 
HETATM   15  H   UNL     1       3.648  28.341  57.155  1.00  0.00     0.313 HD
HETATM   16  H   UNL     1       2.783  29.346  56.211  1.00  0.00     0.313 HD
ENDBRANCH  13  14
ENDBRANCH   8  13
BRANCH  11  17
HETATM   17  C   UNL     1       7.758  24.501  55.792  1.00  0.00     0.256 C 
HETATM   18  O   UNL     1       8.781  24.366  56.457  1.00  0.00    -0.267 OA
HETATM   19  N   UNL     1       7.141  23.510  55.054  1.00  0.00    -0.320 N 
HETATM   20  H   UNL     1       6.203  23.682  54.707  1.00  0.00     0.169 HD
BRANCH  19  21
HETATM   21  C   UNL     1       7.653  22.223  54.765  1.00  0.00     0.076 A 
HETATM   22  C   UNL     1       7.853  21.228  55.719  1.00  0.00     0.052 A 
HETATM   23  C   UNL     1       8.394  20.015  55.308  1.00  0.00     0.118 A 
HETATM   24  N   UNL     1       8.743  19.733  54.033  1.00  0.00    -0.270 NA
HETATM   25  C   UNL     1       8.542  20.715  53.125  1.00  0.00     0.160 A 
HETATM   26  C   UNL     1       8.012  21.953  53.445  1.00  0.00     0.160 A 
HETATM   27  F   UNL     1       7.848  22.884  52.493  1.00  0.00    -0.202 F 
ENDBRANCH  19  21
ENDBRANCH  11  17
ENDBRANCH   1   7
BRANCH   5  28
HETATM   28  C   UNL     1       6.393  32.259  59.350  1.00  0.00     0.256 C 
HETATM   29  O   UNL     1       5.891  33.145  58.665  1.00  0.00    -0.267 OA
HETATM   30  N   UNL     1       6.199  32.064  60.703  1.00  0.00    -0.320 N 
HETATM   31  H   UNL     1       6.864  31.479  61.200  1.00  0.00     0.169 HD
BRANCH  30  32
HETATM   32  C   UNL     1       5.255  32.744  61.511  1.00  0.00     0.075 A 
HETATM   33  C   UNL     1       3.875  32.544  61.403  1.00  0.00     0.033 A 
HETATM   34  C   UNL     1       2.989  33.239  62.229  1.00  0.00     0.003 A 
HETATM   35  C   UNL     1       3.478  34.146  63.166  1.00  0.00     0.021 A 
HETATM   36  C   UNL     1       4.858  34.352  63.297  1.00  0.00     0.080 A 
HETATM   37  C   UNL     1       5.738  33.641  62.476  1.00  0.00     0.159 A 
HETATM   38  F   UNL     1       7.066  33.830  62.553  1.00  0.00    -0.203 F 
BRANCH  36  39
HETATM   39  C   UNL     1       5.304  35.361  64.280  1.00  0.00     0.296 C 
HETATM   40  O   UNL     1       5.029  35.285  65.468  1.00  0.00    -0.259 OA
BRANCH  39  41
HETATM   41  O   UNL     1       6.078  36.311  63.704  1.00  0.00    -0.312 OA
BRANCH  41  42
HETATM   42  C   UNL     1       5.374  37.470  63.253  1.00  0.00     0.132 C 
HETATM   43  C   UNL     1       6.022  38.765  63.729  1.00  0.00     0.032 C 
HETATM   44  C   UNL     1       5.477  39.791  62.751  1.00  0.00     0.002 C 
HETATM   45  C   UNL     1       5.468  39.067  61.409  1.00  0.00     0.002 C 
HETATM   46  C   UNL     1       5.463  37.572  61.730  1.00  0.00     0.032 C 
ENDBRANCH  41  42
ENDBRANCH  39  41
ENDBRANCH  36  39
ENDBRANCH  30  32
ENDBRANCH   5  28
TORSDOF 10
ENDMDL
MODEL 10
REMARK VINA RESULT:     -10.4      3.709      4.936
REMARK  10 active torsions:
REMARK  status: ('A' for Active; 'I' for Inactive)
REMARK    1  A    between atoms: N_1  and  C_2 
REMARK    2  A    between atoms: C_2  and  C_3 
REMARK    3  A    between atoms: C_6  and  C_33 
REMARK    4  A    between atoms: C_8  and  C_9 
REMARK    5  A    between atoms: C_13  and  C_15 
REMARK       I    between atoms: C_15  and  N_17 
REMARK    6  A    between atoms: N_17  and  C_18 
REMARK    7  A    between atoms: C_22  and  C_23 
REMARK    8  A    between atoms: C_23  and  O_25 
REMARK    9  A    between atoms: O_25  and  C_26 
REMARK       I    between atoms: C_33  and  N_35 
REMARK   10  A    between atoms: N_35  and  C_36 
ROOT
HETATM    1  C   UNL     1       8.481  29.157  56.751  1.00  0.00    -0.024 A 
HETATM    2  C   UNL     1       9.789  29.022  56.257  1.00  0.00     0.012 A 
HETATM    3  C   UNL     1      10.849  29.788  56.760  1.00  0.00     0.002 A 
HETATM    4  C   UNL     1      10.637  30.678  57.811  1.00  0.00     0.017 A 
HETATM    5  C   UNL     1       9.354  30.805  58.347  1.00  0.00     0.033 A 
HETATM    6  C   UNL     1       8.289  30.069  57.806  1.00  0.00     0.029 A 
ENDROOT
BRANCH   1   7
HETATM    7  C   UNL     1       7.352  28.328  56.255  1.00  0.00    -0.017 A 
HETATM    8  C   UNL     1       6.981  27.073  56.800  1.00  0.00    -0.020 A 
HETATM    9  C   UNL     1       5.889  26.369  56.243  1.00  0.00     0.011 A 
HETATM   10  C   UNL     1       5.195  26.859  55.138  1.00  0.00     0.017 A 
HETATM   11  C   UNL     1       5.559  28.079  54.575  1.00  0.00     0.033 A 
HETATM   12  C   UNL     1       6.618  28.804  55.139  1.00  0.00     0.030 A 
BRANCH   8  13
HETATM   13  C   UNL     1       7.708  26.401  57.945  1.00  0.00     0.306 C 
BRANCH  13  14
HETATM   14  N   UNL     1       7.744  24.951  57.781  1.00  0.00     0.082 N 
HETATM   15  H   UNL     1       6.797  24.613  57.620  1.00  0.00     0.313 HD
HETATM   16  H   UNL     1       8.053  24.523  58.651  1.00  0.00     0.313 HD
ENDBRANCH  13  14
ENDBRANCH   8  13
BRANCH  11  17
HETATM   17  C   UNL     1       4.870  28.518  53.324  1.00  0.00     0.256 C 
HETATM   18  O   UNL     1       3.657  28.357  53.242  1.00  0.00    -0.267 OA
HETATM   19  N   UNL     1       5.675  29.086  52.356  1.00  0.00    -0.320 N 
HETATM   20  H   UNL     1       6.623  29.344  52.610  1.00  0.00     0.169 HD
BRANCH  19  21
HETATM   21  C   UNL     1       5.306  29.414  51.031  1.00  0.00     0.076 A 
HETATM   22  C   UNL     1       5.425  28.547  49.947  1.00  0.00     0.052 A 
HETATM   23  C   UNL     1       5.056  29.005  48.688  1.00  0.00     0.118 A 
HETATM   24  N   UNL     1       4.584  30.248  48.441  1.00  0.00    -0.270 NA
HETATM   25  C   UNL     1       4.480  31.073  49.507  1.00  0.00     0.160 A 
HETATM   26  C   UNL     1       4.826  30.702  50.795  1.00  0.00     0.160 A 
HETATM   27  F   UNL     1       4.705  31.577  51.805  1.00  0.00    -0.202 F 
ENDBRANCH  19  21
ENDBRANCH  11  17
ENDBRANCH   1   7
BRANCH   5  28
HETATM   28  C   UNL     1       9.103  31.594  59.580  1.00  0.00     0.256 C 
HETATM   29  O   UNL     1       9.815  32.572  59.786  1.00  0.00    -0.267 OA
HETATM   30  N   UNL     1       8.094  31.131  60.401  1.00  0.00    -0.320 N 
HETATM   31  H   UNL     1       7.765  30.181  60.261  1.00  0.00     0.169 HD
BRANCH  30  32
HETATM   32  C   UNL     1       7.584  31.796  61.543  1.00  0.00     0.075 A 
HETATM   33  C   UNL     1       8.339  32.010  62.701  1.00  0.00     0.033 A 
HETATM   34  C   UNL     1       7.786  32.676  63.797  1.00  0.00     0.003 A 
HETATM   35  C   UNL     1       6.470  33.128  63.745  1.00  0.00     0.021 A 
HETATM   36  C   UNL     1       5.701  32.933  62.589  1.00  0.00     0.080 A 
HETATM   37  C   UNL     1       6.267  32.278  61.492  1.00  0.00     0.159 A 
HETATM   38  F   UNL     1       5.555  32.048  60.377  1.00  0.00    -0.203 F 
BRANCH  36  39
HETATM   39  C   UNL     1       4.299  33.398  62.620  1.00  0.00     0.296 C 
HETATM   40  O   UNL     1       3.353  32.625  62.663  1.00  0.00    -0.259 OA
BRANCH  39  41
HETATM   41  O   UNL     1       4.221  34.749  62.650  1.00  0.00    -0.312 OA
BRANCH  41  42
HETATM   42  C   UNL     1       4.655  35.405  61.456  1.00  0.00     0.132 C 
HETATM   43  C   UNL     1       3.702  35.175  60.288  1.00  0.00     0.032 C 
HETATM   44  C   UNL     1       4.036  36.324  59.353  1.00  0.00     0.002 C 
HETATM   45  C   UNL     1       4.273  37.510  60.282  1.00  0.00     0.002 C 
HETATM   46  C   UNL     1       4.612  36.920  61.651  1.00  0.00     0.032 C 
ENDBRANCH  41  42
ENDBRANCH  39  41
ENDBRANCH  36  39
ENDBRANCH  30  32
ENDBRANCH   5  28
TORSDOF 10
ENDMDL
