MODEL 1
REMARK VINA RESULT:     -10.5      0.000      0.000
REMARK  6 active torsions:
REMARK  status: ('A' for Active; 'I' for Inactive)
REMARK    1  A    between atoms: O_2  and  C_3 
REMARK    2  A    between atoms: C_4  and  C_5 
REMARK    3  A    between atoms: C_6  and  C_7 
REMARK       I    between atoms: C_7  and  N_8 
REMARK    4  A    between atoms: N_8  and  C_9 
REMARK    5  A    between atoms: C_9  and  C_10 
REMARK       I    between atoms: C_10  and  N_11 
REMARK    6  A    between atoms: N_11  and  N_12 
ROOT
HETATM    1  C   UNL     1       7.429  28.540  57.321  1.00  0.00     0.255 C 
HETATM    2  N   UNL     1       6.614  27.796  56.483  1.00  0.00    -0.245 N 
HETATM    3  O   UNL     1       8.351  28.078  57.993  1.00  0.00    -0.270 OA
HETATM    4  H   UNL     1       5.860  28.259  55.972  1.00  0.00     0.192 HD
ENDROOT
BRANCH   1   5
HETATM    5  C   UNL     1       6.971  29.989  57.501  1.00  0.00     0.227 C 
BRANCH   5   6
HETATM    6  N   UNL     1       6.958  30.487  58.871  1.00  0.00    -0.349 N 
HETATM    7  C   UNL     1       6.663  31.803  59.128  1.00  0.00     0.241 C 
HETATM    8  O   UNL     1       6.258  32.588  58.282  1.00  0.00    -0.269 OA
HETATM    9  H   UNL     1       7.352  29.905  59.599  1.00  0.00     0.163 HD
BRANCH   7  10
HETATM   10  C   UNL     1       6.936  32.198  60.530  1.00  0.00     0.075 C 
HETATM   11  C   UNL     1       5.907  32.409  61.365  1.00  0.00     0.020 C 
BRANCH  11  12
HETATM   12  C   UNL     1       6.110  32.837  62.754  1.00  0.00    -0.003 A 
HETATM   13  C   UNL     1       5.035  33.062  63.634  1.00  0.00     0.078 A 
HETATM   14  C   UNL     1       5.299  33.487  64.941  1.00  0.00     0.037 A 
HETATM   15  C   UNL     1       6.617  33.665  65.376  1.00  0.00     0.003 A 
HETATM   16  C   UNL     1       7.679  33.425  64.510  1.00  0.00     0.001 A 
HETATM   17  C   UNL     1       7.427  33.017  63.201  1.00  0.00     0.014 A 
BRANCH  13  18
HETATM   18  O   UNL     1       3.777  32.867  63.124  1.00  0.00    -0.355 OA
HETATM   19  C   UNL     1       2.933  34.006  63.029  1.00  0.00     0.210 C 
ENDBRANCH  13  18
ENDBRANCH  11  12
ENDBRANCH   7  10
ENDBRANCH   5   6
ENDBRANCH   1   5
BRANCH   2  20
HETATM   20  N   UNL     1       6.829  26.459  56.328  1.00  0.00    -0.166 NA
HETATM   21  C   UNL     1       7.179  26.054  55.151  1.00  0.00     0.157 A 
HETATM   22  C   UNL     1       7.348  26.870  53.867  1.00  0.00     0.277 A 
HETATM   23  C   UNL     1       7.456  24.671  54.787  1.00  0.00     0.028 A 
HETATM   24  O   UNL     1       7.198  28.072  53.781  1.00  0.00    -0.266 OA
HETATM   25  N   UNL     1       7.679  25.955  52.890  1.00  0.00    -0.321 N 
HETATM   26  C   UNL     1       7.742  24.669  53.422  1.00  0.00     0.048 A 
HETATM   27  H   UNL     1       7.845  26.204  51.926  1.00  0.00     0.169 HD
HETATM   28  C   UNL     1       8.036  23.497  52.756  1.00  0.00     0.032 A 
HETATM   29  C   UNL     1       8.040  22.314  53.509  1.00  0.00     0.021 A 
HETATM   30  C   UNL     1       7.752  22.333  54.890  1.00  0.00     0.012 A 
HETATM   31 BR   UNL     1       7.773  20.709  55.860  1.00  0.00    -0.051 Br
HETATM   32  C   UNL     1       7.451  23.523  55.552  1.00  0.00     0.035 A 
ENDBRANCH   2  20
TORSDOF 6
ENDMDL
MODEL 2
REMARK VINA RESULT:      -9.8      3.762     10.510
REMARK  6 active torsions:
REMARK  status: ('A' for Active; 'I' for Inactive)
REMARK    1  A    between atoms: O_2  and  C_3 
REMARK    2  A    between atoms: C_4  and  C_5 
REMARK    3  A    between atoms: C_6  and  C_7 
REMARK       I    between atoms: C_7  and  N_8 
REMARK    4  A    between atoms: N_8  and  C_9 
REMARK    5  A    between atoms: C_9  and  C_10 
REMARK       I    between atoms: C_10  and  N_11 
REMARK    6  A    between atoms: N_11  and  N_12 
ROOT
HETATM    1  C   UNL     1       5.608  29.139  56.253  1.00  0.00     0.255 C 
HETATM    2  N   UNL     1       6.266  30.331  56.505  1.00  0.00    -0.245 N 
HETATM    3  O   UNL     1       5.030  28.464  57.105  1.00  0.00    -0.270 OA
HETATM    4  H   UNL     1       6.734  30.820  55.740  1.00  0.00     0.192 HD
ENDROOT
BRANCH   1   5
HETATM    5  C   UNL     1       5.815  28.608  54.833  1.00  0.00     0.227 C 
BRANCH   5   6
HETATM    6  N   UNL     1       6.171  27.199  54.725  1.00  0.00    -0.349 N 
HETATM    7  C   UNL     1       5.478  26.370  53.878  1.00  0.00     0.241 C 
HETATM    8  O   UNL     1       4.646  26.762  53.072  1.00  0.00    -0.269 OA
HETATM    9  H   UNL     1       6.799  26.807  55.416  1.00  0.00     0.163 HD
BRANCH   7  10
HETATM   10  C   UNL     1       5.800  24.937  54.073  1.00  0.00     0.075 C 
HETATM   11  C   UNL     1       7.082  24.541  54.042  1.00  0.00     0.020 C 
BRANCH  11  12
HETATM   12  C   UNL     1       7.462  23.132  54.191  1.00  0.00    -0.003 A 
HETATM   13  C   UNL     1       7.646  22.534  55.452  1.00  0.00     0.078 A 
HETATM   14  C   UNL     1       8.026  21.188  55.522  1.00  0.00     0.037 A 
HETATM   15  C   UNL     1       8.199  20.439  54.353  1.00  0.00     0.003 A 
HETATM   16  C   UNL     1       8.000  21.027  53.108  1.00  0.00     0.001 A 
HETATM   17  C   UNL     1       7.637  22.370  53.026  1.00  0.00     0.014 A 
BRANCH  13  18
HETATM   18  O   UNL     1       7.459  23.342  56.544  1.00  0.00    -0.355 OA
HETATM   19  C   UNL     1       8.623  23.829  57.196  1.00  0.00     0.210 C 
ENDBRANCH  13  18
ENDBRANCH  11  12
ENDBRANCH   7  10
ENDBRANCH   5   6
ENDBRANCH   1   5
BRANCH   2  20
HETATM   20  N   UNL     1       6.274  30.858  57.763  1.00  0.00    -0.166 NA
HETATM   21  C   UNL     1       7.403  30.855  58.392  1.00  0.00     0.157 A 
HETATM   22  C   UNL     1       8.753  30.294  57.938  1.00  0.00     0.277 A 
HETATM   23  C   UNL     1       7.616  31.373  59.737  1.00  0.00     0.028 A 
HETATM   24  O   UNL     1       8.965  29.776  56.860  1.00  0.00    -0.266 OA
HETATM   25  N   UNL     1       9.612  30.496  58.998  1.00  0.00    -0.321 N 
HETATM   26  C   UNL     1       8.952  31.126  60.051  1.00  0.00     0.048 A 
HETATM   27  H   UNL     1      10.581  30.216  58.990  1.00  0.00     0.169 HD
HETATM   28  C   UNL     1       9.476  31.486  61.276  1.00  0.00     0.032 A 
HETATM   29  C   UNL     1       8.612  32.113  62.184  1.00  0.00     0.021 A 
HETATM   30  C   UNL     1       7.263  32.359  61.851  1.00  0.00     0.012 A 
HETATM   31 BR   UNL     1       6.140  33.211  63.112  1.00  0.00    -0.051 Br
HETATM   32  C   UNL     1       6.743  31.986  60.612  1.00  0.00     0.035 A 
ENDBRANCH   2  20
TORSDOF 6
ENDMDL
MODEL 3
REMARK VINA RESULT:      -9.8      2.235      2.730
REMARK  6 active torsions:
REMARK  status: ('A' for Active; 'I' for Inactive)
REMARK    1  A    between atoms: O_2  and  C_3 
REMARK    2  A    between atoms: C_4  and  C_5 
REMARK    3  A    between atoms: C_6  and  C_7 
REMARK       I    between atoms: C_7  and  N_8 
REMARK    4  A    between atoms: N_8  and  C_9 
REMARK    5  A    between atoms: C_9  and  C_10 
REMARK       I    between atoms: C_10  and  N_11 
REMARK    6  A    between atoms: N_11  and  N_12 
ROOT
HETATM    1  C   UNL     1       7.576  29.547  57.891  1.00  0.00     0.255 C 
HETATM    2  N   UNL     1       8.196  28.511  57.212  1.00  0.00    -0.245 N 
HETATM    3  O   UNL     1       6.573  30.142  57.496  1.00  0.00    -0.270 OA
HETATM    4  H   UNL     1       9.035  28.082  57.605  1.00  0.00     0.192 HD
ENDROOT
BRANCH   1   5
HETATM    5  C   UNL     1       8.356  30.039  59.112  1.00  0.00     0.227 C 
BRANCH   5   6
HETATM    6  N   UNL     1       7.631  30.924  60.016  1.00  0.00    -0.349 N 
HETATM    7  C   UNL     1       8.144  32.156  60.340  1.00  0.00     0.241 C 
HETATM    8  O   UNL     1       9.127  32.646  59.803  1.00  0.00    -0.269 OA
HETATM    9  H   UNL     1       6.856  30.543  60.543  1.00  0.00     0.163 HD
BRANCH   7  10
HETATM   10  C   UNL     1       7.417  32.815  61.450  1.00  0.00     0.075 C 
HETATM   11  C   UNL     1       7.505  32.304  62.688  1.00  0.00     0.020 C 
BRANCH  11  12
HETATM   12  C   UNL     1       6.779  32.888  63.821  1.00  0.00    -0.003 A 
HETATM   13  C   UNL     1       5.375  32.860  63.908  1.00  0.00     0.078 A 
HETATM   14  C   UNL     1       4.745  33.451  65.009  1.00  0.00     0.037 A 
HETATM   15  C   UNL     1       5.503  34.044  66.025  1.00  0.00     0.003 A 
HETATM   16  C   UNL     1       6.892  34.056  65.946  1.00  0.00     0.001 A 
HETATM   17  C   UNL     1       7.529  33.484  64.847  1.00  0.00     0.014 A 
BRANCH  13  18
HETATM   18  O   UNL     1       4.711  32.262  62.867  1.00  0.00    -0.355 OA
HETATM   19  C   UNL     1       3.655  32.997  62.264  1.00  0.00     0.210 C 
ENDBRANCH  13  18
ENDBRANCH  11  12
ENDBRANCH   7  10
ENDBRANCH   5   6
ENDBRANCH   1   5
BRANCH   2  20
HETATM   20  N   UNL     1       7.679  28.056  56.035  1.00  0.00    -0.166 NA
HETATM   21  C   UNL     1       7.560  26.775  55.904  1.00  0.00     0.157 A 
HETATM   22  C   UNL     1       7.965  25.669  56.881  1.00  0.00     0.277 A 
HETATM   23  C   UNL     1       7.029  26.097  54.729  1.00  0.00     0.028 A 
HETATM   24  O   UNL     1       8.451  25.853  57.979  1.00  0.00    -0.266 OA
HETATM   25  N   UNL     1       7.674  24.484  56.239  1.00  0.00    -0.321 N 
HETATM   26  C   UNL     1       7.128  24.729  54.980  1.00  0.00     0.048 A 
HETATM   27  H   UNL     1       7.845  23.575  56.642  1.00  0.00     0.169 HD
HETATM   28  C   UNL     1       6.718  23.800  54.047  1.00  0.00     0.032 A 
HETATM   29  C   UNL     1       6.195  24.289  52.841  1.00  0.00     0.021 A 
HETATM   30  C   UNL     1       6.099  25.677  52.602  1.00  0.00     0.012 A 
HETATM   31 BR   UNL     1       5.383  26.284  50.960  1.00  0.00    -0.051 Br
HETATM   32  C   UNL     1       6.520  26.607  53.552  1.00  0.00     0.035 A 
ENDBRANCH   2  20
TORSDOF 6
ENDMDL
MODEL 4
REMARK VINA RESULT:      -9.6      1.956      3.202
REMARK  6 active torsions:
REMARK  status: ('A' for Active; 'I' for Inactive)
REMARK    1  A    between atoms: O_2  and  C_3 
REMARK    2  A    between atoms: C_4  and  C_5 
REMARK    3  A    between atoms: C_6  and  C_7 
REMARK       I    between atoms: C_7  and  N_8 
REMARK    4  A    between atoms: N_8  and  C_9 
REMARK    5  A    between atoms: C_9  and  C_10 
REMARK       I    between atoms: C_10  and  N_11 
REMARK    6  A    between atoms: N_11  and  N_12 
ROOT
HETATM    1  C   UNL     1       5.907  27.693  54.892  1.00  0.00     0.255 C 
HETATM    2  N   UNL     1       7.201  27.197  54.884  1.00  0.00    -0.245 N 
HETATM    3  O   UNL     1       4.907  27.045  54.582  1.00  0.00    -0.270 OA
HETATM    4  H   UNL     1       7.976  27.809  55.141  1.00  0.00     0.192 HD
ENDROOT
BRANCH   1   5
HETATM    5  C   UNL     1       5.826  29.200  55.141  1.00  0.00     0.227 C 
BRANCH   5   6
HETATM    6  N   UNL     1       6.153  29.641  56.492  1.00  0.00    -0.349 N 
HETATM    7  C   UNL     1       7.463  29.747  56.889  1.00  0.00     0.241 C 
HETATM    8  O   UNL     1       8.415  29.631  56.130  1.00  0.00    -0.269 OA
HETATM    9  H   UNL     1       5.411  29.680  57.179  1.00  0.00     0.163 HD
BRANCH   7  10
HETATM   10  C   UNL     1       7.614  29.962  58.347  1.00  0.00     0.075 C 
HETATM   11  C   UNL     1       7.503  31.204  58.843  1.00  0.00     0.020 C 
BRANCH  11  12
HETATM   12  C   UNL     1       7.679  31.488  60.272  1.00  0.00    -0.003 A 
HETATM   13  C   UNL     1       6.722  32.200  61.018  1.00  0.00     0.078 A 
HETATM   14  C   UNL     1       6.962  32.452  62.374  1.00  0.00     0.037 A 
HETATM   15  C   UNL     1       8.127  31.980  62.988  1.00  0.00     0.003 A 
HETATM   16  C   UNL     1       9.064  31.261  62.252  1.00  0.00     0.001 A 
HETATM   17  C   UNL     1       8.844  31.018  60.897  1.00  0.00     0.014 A 
BRANCH  13  18
HETATM   18  O   UNL     1       5.611  32.629  60.337  1.00  0.00    -0.355 OA
HETATM   19  C   UNL     1       4.426  32.832  61.093  1.00  0.00     0.210 C 
ENDBRANCH  13  18
ENDBRANCH  11  12
ENDBRANCH   7  10
ENDBRANCH   5   6
ENDBRANCH   1   5
BRANCH   2  20
HETATM   20  N   UNL     1       7.434  25.895  54.551  1.00  0.00    -0.166 NA
HETATM   21  C   UNL     1       7.648  25.071  55.524  1.00  0.00     0.157 A 
HETATM   22  C   UNL     1       7.723  25.359  57.025  1.00  0.00     0.277 A 
HETATM   23  C   UNL     1       7.912  23.646  55.374  1.00  0.00     0.028 A 
HETATM   24  O   UNL     1       7.555  26.448  57.535  1.00  0.00    -0.266 OA
HETATM   25  N   UNL     1       8.026  24.150  57.617  1.00  0.00    -0.321 N 
HETATM   26  C   UNL     1       8.138  23.147  56.656  1.00  0.00     0.048 A 
HETATM   27  H   UNL     1       8.148  24.032  58.612  1.00  0.00     0.169 HD
HETATM   28  C   UNL     1       8.434  21.816  56.862  1.00  0.00     0.032 A 
HETATM   29  C   UNL     1       8.493  20.989  55.732  1.00  0.00     0.021 A 
HETATM   30  C   UNL     1       8.258  21.508  54.441  1.00  0.00     0.012 A 
HETATM   31 BR   UNL     1       8.347  20.348  52.949  1.00  0.00    -0.051 Br
HETATM   32  C   UNL     1       7.964  22.857  54.244  1.00  0.00     0.035 A 
ENDBRANCH   2  20
TORSDOF 6
ENDMDL
MODEL 5
REMARK VINA RESULT:      -9.5      6.119      9.690
REMARK  6 active torsions:
REMARK  status: ('A' for Active; 'I' for Inactive)
REMARK    1  A    between atoms: O_2  and  C_3 
REMARK    2  A    between atoms: C_4  and  C_5 
REMARK    3  A    between atoms: C_6  and  C_7 
REMARK       I    between atoms: C_7  and  N_8 
REMARK    4  A    between atoms: N_8  and  C_9 
REMARK    5  A    between atoms: C_9  and  C_10 
REMARK       I    between atoms: C_10  and  N_11 
REMARK    6  A    between atoms: N_11  and  N_12 
ROOT
HETATM    1  C   UNL     1       5.027  28.023  55.675  1.00  0.00     0.255 C 
HETATM    2  N   UNL     1       5.692  27.536  54.562  1.00  0.00    -0.245 N 
HETATM    3  O   UNL     1       4.335  29.042  55.688  1.00  0.00    -0.270 OA
HETATM    4  H   UNL     1       6.258  26.690  54.643  1.00  0.00     0.192 HD
ENDROOT
BRANCH   1   5
HETATM    5  C   UNL     1       5.373  27.288  56.971  1.00  0.00     0.227 C 
BRANCH   5   6
HETATM    6  N   UNL     1       6.042  26.002  56.814  1.00  0.00    -0.349 N 
HETATM    7  C   UNL     1       7.308  25.812  57.313  1.00  0.00     0.241 C 
HETATM    8  O   UNL     1       7.886  26.621  58.026  1.00  0.00    -0.269 OA
HETATM    9  H   UNL     1       5.643  25.326  56.175  1.00  0.00     0.163 HD
BRANCH   7  10
HETATM   10  C   UNL     1       7.931  24.549  56.855  1.00  0.00     0.075 C 
HETATM   11  C   UNL     1       7.236  23.727  56.054  1.00  0.00     0.020 C 
BRANCH  11  12
HETATM   12  C   UNL     1       7.783  22.444  55.597  1.00  0.00    -0.003 A 
HETATM   13  C   UNL     1       7.763  22.059  54.243  1.00  0.00     0.078 A 
HETATM   14  C   UNL     1       8.286  20.813  53.878  1.00  0.00     0.037 A 
HETATM   15  C   UNL     1       8.844  19.969  54.843  1.00  0.00     0.003 A 
HETATM   16  C   UNL     1       8.879  20.358  56.179  1.00  0.00     0.001 A 
HETATM   17  C   UNL     1       8.347  21.589  56.556  1.00  0.00     0.014 A 
BRANCH  13  18
HETATM   18  O   UNL     1       7.194  22.947  53.365  1.00  0.00    -0.355 OA
HETATM   19  C   UNL     1       8.074  23.696  52.539  1.00  0.00     0.210 C 
ENDBRANCH  13  18
ENDBRANCH  11  12
ENDBRANCH   7  10
ENDBRANCH   5   6
ENDBRANCH   1   5
BRANCH   2  20
HETATM   20  N   UNL     1       5.577  28.173  53.361  1.00  0.00    -0.166 NA
HETATM   21  C   UNL     1       5.241  27.449  52.344  1.00  0.00     0.157 A 
HETATM   22  C   UNL     1       4.991  25.940  52.281  1.00  0.00     0.277 A 
HETATM   23  C   UNL     1       5.064  27.942  50.985  1.00  0.00     0.028 A 
HETATM   24  O   UNL     1       5.049  25.185  53.230  1.00  0.00    -0.266 OA
HETATM   25  N   UNL     1       4.716  25.667  50.958  1.00  0.00    -0.321 N 
HETATM   26  C   UNL     1       4.758  26.833  50.196  1.00  0.00     0.048 A 
HETATM   27  H   UNL     1       4.517  24.741  50.610  1.00  0.00     0.169 HD
HETATM   28  C   UNL     1       4.543  26.959  48.839  1.00  0.00     0.032 A 
HETATM   29  C   UNL     1       4.640  28.246  48.291  1.00  0.00     0.021 A 
HETATM   30  C   UNL     1       4.947  29.359  49.102  1.00  0.00     0.012 A 
HETATM   31 BR   UNL     1       5.064  31.074  48.312  1.00  0.00    -0.051 Br
HETATM   32  C   UNL     1       5.167  29.219  50.472  1.00  0.00     0.035 A 
ENDBRANCH   2  20
TORSDOF 6
ENDMDL
MODEL 6
REMARK VINA RESULT:      -9.3      2.986      4.481
REMARK  6 active torsions:
REMARK  status: ('A' for Active; 'I' for Inactive)
REMARK    1  A    between atoms: O_2  and  C_3 
REMARK    2  A    between atoms: C_4  and  C_5 
REMARK    3  A    between atoms: C_6  and  C_7 
REMARK       I    between atoms: C_7  and  N_8 
REMARK    4  A    between atoms: N_8  and  C_9 
REMARK    5  A    between atoms: C_9  and  C_10 
REMARK       I    between atoms: C_10  and  N_11 
REMARK    6  A    between atoms: N_11  and  N_12 
ROOT
HETATM    1  C   UNL     1       5.521  27.667  54.230  1.00  0.00     0.255 C 
HETATM    2  N   UNL     1       6.778  27.171  54.532  1.00  0.00    -0.245 N 
HETATM    3  O   UNL     1       4.633  27.028  53.665  1.00  0.00    -0.270 OA
HETATM    4  H   UNL     1       7.462  27.776  54.990  1.00  0.00     0.192 HD
ENDROOT
BRANCH   1   5
HETATM    5  C   UNL     1       5.371  29.168  54.488  1.00  0.00     0.227 C 
BRANCH   5   6
HETATM    6  N   UNL     1       6.029  29.676  55.685  1.00  0.00    -0.349 N 
HETATM    7  C   UNL     1       5.285  30.160  56.734  1.00  0.00     0.241 C 
HETATM    8  O   UNL     1       4.068  30.067  56.804  1.00  0.00    -0.269 OA
HETATM    9  H   UNL     1       7.027  29.843  55.653  1.00  0.00     0.163 HD
BRANCH   7  10
HETATM   10  C   UNL     1       6.102  30.860  57.753  1.00  0.00     0.075 C 
HETATM   11  C   UNL     1       7.298  30.357  58.094  1.00  0.00     0.020 C 
BRANCH  11  12
HETATM   12  C   UNL     1       8.137  30.982  59.123  1.00  0.00    -0.003 A 
HETATM   13  C   UNL     1       9.469  31.364  58.875  1.00  0.00     0.078 A 
HETATM   14  C   UNL     1      10.219  31.939  59.908  1.00  0.00     0.037 A 
HETATM   15  C   UNL     1       9.646  32.154  61.166  1.00  0.00     0.003 A 
HETATM   16  C   UNL     1       8.324  31.791  61.404  1.00  0.00     0.001 A 
HETATM   17  C   UNL     1       7.572  31.203  60.388  1.00  0.00     0.014 A 
BRANCH  13  18
HETATM   18  O   UNL     1       9.951  31.114  57.615  1.00  0.00    -0.355 OA
HETATM   19  C   UNL     1      11.012  30.177  57.502  1.00  0.00     0.210 C 
ENDBRANCH  13  18
ENDBRANCH  11  12
ENDBRANCH   7  10
ENDBRANCH   5   6
ENDBRANCH   1   5
BRANCH   2  20
HETATM   20  N   UNL     1       7.094  25.877  54.236  1.00  0.00    -0.166 NA
HETATM   21  C   UNL     1       7.356  25.096  55.232  1.00  0.00     0.157 A 
HETATM   22  C   UNL     1       7.406  25.429  56.726  1.00  0.00     0.277 A 
HETATM   23  C   UNL     1       7.709  23.687  55.123  1.00  0.00     0.028 A 
HETATM   24  O   UNL     1       7.168  26.519  57.204  1.00  0.00    -0.266 OA
HETATM   25  N   UNL     1       7.782  24.259  57.352  1.00  0.00    -0.321 N 
HETATM   26  C   UNL     1       7.961  23.238  56.419  1.00  0.00     0.048 A 
HETATM   27  H   UNL     1       7.907  24.176  58.349  1.00  0.00     0.169 HD
HETATM   28  C   UNL     1       8.339  21.934  56.663  1.00  0.00     0.032 A 
HETATM   29  C   UNL     1       8.455  21.082  55.556  1.00  0.00     0.021 A 
HETATM   30  C   UNL     1       8.194  21.549  54.251  1.00  0.00     0.012 A 
HETATM   31 BR   UNL     1       8.362  20.357  52.792  1.00  0.00    -0.051 Br
HETATM   32  C   UNL     1       7.816  22.871  54.016  1.00  0.00     0.035 A 
ENDBRANCH   2  20
TORSDOF 6
ENDMDL
MODEL 7
REMARK VINA RESULT:      -9.2      1.851      2.452
REMARK  6 active torsions:
REMARK  status: ('A' for Active; 'I' for Inactive)
REMARK    1  A    between atoms: O_2  and  C_3 
REMARK    2  A    between atoms: C_4  and  C_5 
REMARK    3  A    between atoms: C_6  and  C_7 
REMARK       I    between atoms: C_7  and  N_8 
REMARK    4  A    between atoms: N_8  and  C_9 
REMARK    5  A    between atoms: C_9  and  C_10 
REMARK       I    between atoms: C_10  and  N_11 
REMARK    6  A    between atoms: N_11  and  N_12 
ROOT
HETATM    1  C   UNL     1       5.324  28.622  56.991  1.00  0.00     0.255 C 
HETATM    2  N   UNL     1       4.670  27.479  56.561  1.00  0.00    -0.245 N 
HETATM    3  O   UNL     1       6.510  28.669  57.319  1.00  0.00    -0.270 OA
HETATM    4  H   UNL     1       3.678  27.525  56.322  1.00  0.00     0.192 HD
ENDROOT
BRANCH   1   5
HETATM    5  C   UNL     1       4.395  29.817  57.213  1.00  0.00     0.227 C 
BRANCH   5   6
HETATM    6  N   UNL     1       4.532  30.501  58.494  1.00  0.00    -0.349 N 
HETATM    7  C   UNL     1       4.353  31.859  58.578  1.00  0.00     0.241 C 
HETATM    8  O   UNL     1       3.934  32.548  57.658  1.00  0.00    -0.269 OA
HETATM    9  H   UNL     1       4.945  29.995  59.267  1.00  0.00     0.163 HD
BRANCH   7  10
HETATM   10  C   UNL     1       4.769  32.422  59.884  1.00  0.00     0.075 C 
HETATM   11  C   UNL     1       6.003  32.166  60.345  1.00  0.00     0.020 C 
BRANCH  11  12
HETATM   12  C   UNL     1       6.462  32.663  61.648  1.00  0.00    -0.003 A 
HETATM   13  C   UNL     1       7.606  32.147  62.286  1.00  0.00     0.078 A 
HETATM   14  C   UNL     1       7.978  32.654  63.536  1.00  0.00     0.037 A 
HETATM   15  C   UNL     1       7.237  33.678  64.135  1.00  0.00     0.003 A 
HETATM   16  C   UNL     1       6.117  34.199  63.495  1.00  0.00     0.001 A 
HETATM   17  C   UNL     1       5.727  33.691  62.257  1.00  0.00     0.014 A 
BRANCH  13  18
HETATM   18  O   UNL     1       8.271  31.142  61.629  1.00  0.00    -0.355 OA
HETATM   19  C   UNL     1       9.079  30.279  62.416  1.00  0.00     0.210 C 
ENDBRANCH  13  18
ENDBRANCH  11  12
ENDBRANCH   7  10
ENDBRANCH   5   6
ENDBRANCH   1   5
BRANCH   2  20
HETATM   20  N   UNL     1       5.351  26.303  56.441  1.00  0.00    -0.166 NA
HETATM   21  C   UNL     1       5.672  25.931  55.245  1.00  0.00     0.157 A 
HETATM   22  C   UNL     1       5.354  26.611  53.911  1.00  0.00     0.277 A 
HETATM   23  C   UNL     1       6.401  24.715  54.912  1.00  0.00     0.028 A 
HETATM   24  O   UNL     1       4.751  27.659  53.790  1.00  0.00    -0.266 OA
HETATM   25  N   UNL     1       5.875  25.781  52.941  1.00  0.00    -0.321 N 
HETATM   26  C   UNL     1       6.487  24.672  53.520  1.00  0.00     0.048 A 
HETATM   27  H   UNL     1       5.808  25.970  51.952  1.00  0.00     0.169 HD
HETATM   28  C   UNL     1       7.112  23.625  52.876  1.00  0.00     0.032 A 
HETATM   29  C   UNL     1       7.659  22.612  53.677  1.00  0.00     0.021 A 
HETATM   30  C   UNL     1       7.567  22.671  55.083  1.00  0.00     0.012 A 
HETATM   31 BR   UNL     1       8.324  21.280  56.118  1.00  0.00    -0.051 Br
HETATM   32  C   UNL     1       6.928  23.732  55.724  1.00  0.00     0.035 A 
ENDBRANCH   2  20
TORSDOF 6
ENDMDL
MODEL 8
REMARK VINA RESULT:      -8.9      1.733      2.574
REMARK  6 active torsions:
REMARK  status: ('A' for Active; 'I' for Inactive)
REMARK    1  A    between atoms: O_2  and  C_3 
REMARK    2  A    between atoms: C_4  and  C_5 
REMARK    3  A    between atoms: C_6  and  C_7 
REMARK       I    between atoms: C_7  and  N_8 
REMARK    4  A    between atoms: N_8  and  C_9 
REMARK    5  A    between atoms: C_9  and  C_10 
REMARK       I    between atoms: C_10  and  N_11 
REMARK    6  A    between atoms: N_11  and  N_12 
ROOT
HETATM    1  C   UNL     1       5.351  29.968  55.862  1.00  0.00     0.255 C 
HETATM    2  N   UNL     1       6.653  29.514  55.728  1.00  0.00    -0.245 N 
HETATM    3  O   UNL     1       4.351  29.341  55.514  1.00  0.00    -0.270 OA
HETATM    4  H   UNL     1       7.427  30.107  56.030  1.00  0.00     0.192 HD
ENDROOT
BRANCH   1   5
HETATM    5  C   UNL     1       5.250  31.425  56.318  1.00  0.00     0.227 C 
BRANCH   5   6
HETATM    6  N   UNL     1       5.705  31.701  57.675  1.00  0.00    -0.349 N 
HETATM    7  C   UNL     1       4.914  32.418  58.540  1.00  0.00     0.241 C 
HETATM    8  O   UNL     1       3.758  32.736  58.300  1.00  0.00    -0.269 OA
HETATM    9  H   UNL     1       6.675  31.526  57.903  1.00  0.00     0.163 HD
BRANCH   7  10
HETATM   10  C   UNL     1       5.622  32.819  59.778  1.00  0.00     0.075 C 
HETATM   11  C   UNL     1       5.408  32.129  60.909  1.00  0.00     0.020 C 
BRANCH  11  12
HETATM   12  C   UNL     1       6.049  32.499  62.176  1.00  0.00    -0.003 A 
HETATM   13  C   UNL     1       5.308  32.928  63.294  1.00  0.00     0.078 A 
HETATM   14  C   UNL     1       5.985  33.282  64.467  1.00  0.00     0.037 A 
HETATM   15  C   UNL     1       7.378  33.190  64.537  1.00  0.00     0.003 A 
HETATM   16  C   UNL     1       8.108  32.749  63.437  1.00  0.00     0.001 A 
HETATM   17  C   UNL     1       7.446  32.408  62.259  1.00  0.00     0.014 A 
BRANCH  13  18
HETATM   18  O   UNL     1       3.947  32.992  63.136  1.00  0.00    -0.355 OA
HETATM   19  C   UNL     1       3.348  34.279  63.198  1.00  0.00     0.210 C 
ENDBRANCH  13  18
ENDBRANCH  11  12
ENDBRANCH   7  10
ENDBRANCH   5   6
ENDBRANCH   1   5
BRANCH   2  20
HETATM   20  N   UNL     1       6.897  28.276  55.211  1.00  0.00    -0.166 NA
HETATM   21  C   UNL     1       7.272  27.358  56.041  1.00  0.00     0.157 A 
HETATM   22  C   UNL     1       7.530  27.473  57.545  1.00  0.00     0.277 A 
HETATM   23  C   UNL     1       7.576  25.978  55.685  1.00  0.00     0.028 A 
HETATM   24  O   UNL     1       7.383  28.483  58.202  1.00  0.00    -0.266 OA
HETATM   25  N   UNL     1       7.960  26.224  57.942  1.00  0.00    -0.321 N 
HETATM   26  C   UNL     1       7.989  25.348  56.858  1.00  0.00     0.048 A 
HETATM   27  H   UNL     1       8.216  25.998  58.891  1.00  0.00     0.169 HD
HETATM   28  C   UNL     1       8.368  24.021  56.860  1.00  0.00     0.032 A 
HETATM   29  C   UNL     1       8.314  23.336  55.638  1.00  0.00     0.021 A 
HETATM   30  C   UNL     1       7.891  23.988  54.460  1.00  0.00     0.012 A 
HETATM   31 BR   UNL     1       7.834  23.017  52.837  1.00  0.00    -0.051 Br
HETATM   32  C   UNL     1       7.515  25.330  54.469  1.00  0.00     0.035 A 
ENDBRANCH   2  20
TORSDOF 6
ENDMDL
MODEL 9
REMARK VINA RESULT:      -8.8      8.175     11.451
REMARK  6 active torsions:
REMARK  status: ('A' for Active; 'I' for Inactive)
REMARK    1  A    between atoms: O_2  and  C_3 
REMARK    2  A    between atoms: C_4  and  C_5 
REMARK    3  A    between atoms: C_6  and  C_7 
REMARK       I    between atoms: C_7  and  N_8 
REMARK    4  A    between atoms: N_8  and  C_9 
REMARK    5  A    between atoms: C_9  and  C_10 
REMARK       I    between atoms: C_10  and  N_11 
REMARK    6  A    between atoms: N_11  and  N_12 
ROOT
HETATM    1  C   UNL     1       4.327  28.440  51.195  1.00  0.00     0.255 C 
HETATM    2  N   UNL     1       4.422  28.671  49.833  1.00  0.00    -0.245 N 
HETATM    3  O   UNL     1       3.320  28.649  51.872  1.00  0.00    -0.270 OA
HETATM    4  H   UNL     1       5.303  28.483  49.350  1.00  0.00     0.192 HD
ENDROOT
BRANCH   1   5
HETATM    5  C   UNL     1       5.658  28.071  51.853  1.00  0.00     0.227 C 
BRANCH   5   6
HETATM    6  N   UNL     1       5.749  26.719  52.391  1.00  0.00    -0.349 N 
HETATM    7  C   UNL     1       6.628  26.433  53.406  1.00  0.00     0.241 C 
HETATM    8  O   UNL     1       7.265  27.283  54.013  1.00  0.00    -0.269 OA
HETATM    9  H   UNL     1       5.302  25.967  51.882  1.00  0.00     0.163 HD
BRANCH   7  10
HETATM   10  C   UNL     1       6.773  24.981  53.660  1.00  0.00     0.075 C 
HETATM   11  C   UNL     1       8.000  24.442  53.714  1.00  0.00     0.020 C 
BRANCH  11  12
HETATM   12  C   UNL     1       8.208  23.005  53.925  1.00  0.00    -0.003 A 
HETATM   13  C   UNL     1       8.817  22.498  55.088  1.00  0.00     0.078 A 
HETATM   14  C   UNL     1       9.001  21.116  55.217  1.00  0.00     0.037 A 
HETATM   15  C   UNL     1       8.564  20.246  54.212  1.00  0.00     0.003 A 
HETATM   16  C   UNL     1       7.946  20.748  53.071  1.00  0.00     0.001 A 
HETATM   17  C   UNL     1       7.772  22.123  52.925  1.00  0.00     0.014 A 
BRANCH  13  18
HETATM   18  O   UNL     1       9.218  23.421  56.020  1.00  0.00    -0.355 OA
HETATM   19  C   UNL     1       8.486  23.474  57.236  1.00  0.00     0.210 C 
ENDBRANCH  13  18
ENDBRANCH  11  12
ENDBRANCH   7  10
ENDBRANCH   5   6
ENDBRANCH   1   5
BRANCH   2  20
HETATM   20  N   UNL     1       3.342  29.129  49.137  1.00  0.00    -0.166 NA
HETATM   21  C   UNL     1       2.709  28.271  48.406  1.00  0.00     0.157 A 
HETATM   22  C   UNL     1       3.029  26.793  48.167  1.00  0.00     0.277 A 
HETATM   23  C   UNL     1       1.535  28.564  47.595  1.00  0.00     0.028 A 
HETATM   24  O   UNL     1       3.949  26.188  48.679  1.00  0.00    -0.266 OA
HETATM   25  N   UNL     1       2.081  26.352  47.268  1.00  0.00    -0.321 N 
HETATM   26  C   UNL     1       1.206  27.383  46.931  1.00  0.00     0.048 A 
HETATM   27  H   UNL     1       2.046  25.407  46.914  1.00  0.00     0.169 HD
HETATM   28  C   UNL     1       0.136  27.326  46.061  1.00  0.00     0.032 A 
HETATM   29  C   UNL     1      -0.605  28.502  45.879  1.00  0.00     0.021 A 
HETATM   30  C   UNL     1      -0.263  29.689  46.561  1.00  0.00     0.012 A 
HETATM   31 BR   UNL     1      -1.298  31.247  46.282  1.00  0.00    -0.051 Br
HETATM   32  C   UNL     1       0.824  29.735  47.435  1.00  0.00     0.035 A 
ENDBRANCH   2  20
TORSDOF 6
ENDMDL
MODEL 10
REMARK VINA RESULT:      -8.6      2.036      3.161
REMARK  6 active torsions:
REMARK  status: ('A' for Active; 'I' for Inactive)
REMARK    1  A    between atoms: O_2  and  C_3 
REMARK    2  A    between atoms: C_4  and  C_5 
REMARK    3  A    between atoms: C_6  and  C_7 
REMARK       I    between atoms: C_7  and  N_8 
REMARK    4  A    between atoms: N_8  and  C_9 
REMARK    5  A    between atoms: C_9  and  C_10 
REMARK       I    between atoms: C_10  and  N_11 
REMARK    6  A    between atoms: N_11  and  N_12 
ROOT
HETATM    1  C   UNL     1       4.986  29.452  55.875  1.00  0.00     0.255 C 
HETATM    2  N   UNL     1       6.274  29.170  55.450  1.00  0.00    -0.245 N 
HETATM    3  O   UNL     1       4.059  28.642  55.885  1.00  0.00    -0.270 OA
HETATM    4  H   UNL     1       6.980  29.908  55.461  1.00  0.00     0.192 HD
ENDROOT
BRANCH   1   5
HETATM    5  C   UNL     1       4.742  30.934  56.165  1.00  0.00     0.227 C 
BRANCH   5   6
HETATM    6  N   UNL     1       4.862  31.339  57.560  1.00  0.00    -0.349 N 
HETATM    7  C   UNL     1       6.098  31.581  58.109  1.00  0.00     0.241 C 
HETATM    8  O   UNL     1       7.134  31.622  57.460  1.00  0.00    -0.269 OA
HETATM    9  H   UNL     1       4.051  31.251  58.159  1.00  0.00     0.163 HD
BRANCH   7  10
HETATM   10  C   UNL     1       6.061  31.735  59.582  1.00  0.00     0.075 C 
HETATM   11  C   UNL     1       6.863  32.636  60.168  1.00  0.00     0.020 C 
BRANCH  11  12
HETATM   12  C   UNL     1       6.901  32.810  61.625  1.00  0.00    -0.003 A 
HETATM   13  C   UNL     1       8.016  32.434  62.396  1.00  0.00     0.078 A 
HETATM   14  C   UNL     1       7.979  32.611  63.784  1.00  0.00     0.037 A 
HETATM   15  C   UNL     1       6.856  33.178  64.397  1.00  0.00     0.003 A 
HETATM   16  C   UNL     1       5.761  33.566  63.630  1.00  0.00     0.001 A 
HETATM   17  C   UNL     1       5.781  33.379  62.249  1.00  0.00     0.014 A 
BRANCH  13  18
HETATM   18  O   UNL     1       9.072  31.883  61.715  1.00  0.00    -0.355 OA
HETATM   19  C   UNL     1       9.268  30.482  61.847  1.00  0.00     0.210 C 
ENDBRANCH  13  18
ENDBRANCH  11  12
ENDBRANCH   7  10
ENDBRANCH   5   6
ENDBRANCH   1   5
BRANCH   2  20
HETATM   20  N   UNL     1       6.600  27.912  55.037  1.00  0.00    -0.166 NA
HETATM   21  C   UNL     1       7.117  27.122  55.920  1.00  0.00     0.157 A 
HETATM   22  C   UNL     1       7.466  27.413  57.382  1.00  0.00     0.277 A 
HETATM   23  C   UNL     1       7.527  25.745  55.676  1.00  0.00     0.028 A 
HETATM   24  O   UNL     1       7.268  28.468  57.948  1.00  0.00    -0.266 OA
HETATM   25  N   UNL     1       8.040  26.254  57.861  1.00  0.00    -0.321 N 
HETATM   26  C   UNL     1       8.079  25.277  56.868  1.00  0.00     0.048 A 
HETATM   27  H   UNL     1       8.381  26.151  58.805  1.00  0.00     0.169 HD
HETATM   28  C   UNL     1       8.582  23.997  56.968  1.00  0.00     0.032 A 
HETATM   29  C   UNL     1       8.511  23.188  55.825  1.00  0.00     0.021 A 
HETATM   30  C   UNL     1       7.947  23.675  54.626  1.00  0.00     0.012 A 
HETATM   31 BR   UNL     1       7.873  22.541  53.114  1.00  0.00    -0.051 Br
HETATM   32  C   UNL     1       7.445  24.972  54.536  1.00  0.00     0.035 A 
ENDBRANCH   2  20
TORSDOF 6
ENDMDL
