MODEL 1
REMARK VINA RESULT:      -9.8      0.000      0.000
REMARK  5 active torsions:
REMARK  status: ('A' for Active; 'I' for Inactive)
REMARK    1  A    between atoms: O_2  and  C_3 
REMARK    2  A    between atoms: C_7  and  C_8 
REMARK    3  A    between atoms: C_8  and  N_9 
REMARK       I    between atoms: N_9  and  C_10 
REMARK       I    between atoms: C_10  and  N_12 
REMARK    4  A    between atoms: N_12  and  C_13 
REMARK    5  A    between atoms: C_16  and  C_19 
ROOT
HETATM    1  N   UNL     1       7.240  29.417  58.344  1.00  0.00    -0.339 N 
HETATM    2  C   UNL     1       7.858  28.424  57.611  1.00  0.00     0.320 C 
HETATM    3  O   UNL     1       8.955  28.586  57.094  1.00  0.00    -0.247 OA
HETATM    4  N   UNL     1       7.099  27.275  57.592  1.00  0.00    -0.309 N 
HETATM    5  H   UNL     1       6.233  29.423  58.338  1.00  0.00     0.164 HD
HETATM    6  H   UNL     1       6.274  27.289  58.171  1.00  0.00     0.170 HD
ENDROOT
BRANCH   4   7
HETATM    7  C   UNL     1       7.415  26.049  56.972  1.00  0.00     0.036 A 
HETATM    8  C   UNL     1       8.384  25.165  57.445  1.00  0.00     0.030 A 
HETATM    9  C   UNL     1       8.625  23.951  56.788  1.00  0.00     0.014 A 
HETATM   10  C   UNL     1       7.910  23.591  55.637  1.00  0.00    -0.026 A 
HETATM   11  C   UNL     1       6.949  24.493  55.159  1.00  0.00     0.014 A 
HETATM   12  C   UNL     1       6.703  25.704  55.818  1.00  0.00     0.030 A 
BRANCH  10  13
HETATM   13  C   UNL     1       8.158  22.307  54.963  1.00  0.00    -0.023 A 
HETATM   14  C   UNL     1       8.624  21.195  55.675  1.00  0.00     0.031 A 
HETATM   15  C   UNL     1       8.849  20.006  54.999  1.00  0.00     0.117 A 
HETATM   16  N   UNL     1       8.647  19.846  53.675  1.00  0.00    -0.273 NA
HETATM   17  C   UNL     1       8.202  20.925  53.000  1.00  0.00     0.117 A 
HETATM   18  C   UNL     1       7.945  22.154  53.588  1.00  0.00     0.031 A 
ENDBRANCH  10  13
ENDBRANCH   4   7
BRANCH   1  19
HETATM   19  C   UNL     1       7.879  30.713  58.444  1.00  0.00     0.163 C 
BRANCH  19  20
HETATM   20  C   UNL     1       8.060  31.151  59.874  1.00  0.00    -0.038 A 
HETATM   21  C   UNL     1       9.276  30.950  60.542  1.00  0.00     0.009 A 
HETATM   22  C   UNL     1       9.456  31.424  61.842  1.00  0.00     0.003 A 
HETATM   23  C   UNL     1       8.433  32.126  62.483  1.00  0.00     0.037 A 
HETATM   24  C   UNL     1       7.226  32.357  61.824  1.00  0.00     0.068 A 
HETATM   25  C   UNL     1       7.041  31.857  60.531  1.00  0.00     0.045 A 
BRANCH  24  26
HETATM   26  O   UNL     1       6.158  33.045  62.332  1.00  0.00    -0.356 OA
HETATM   27  C   UNL     1       5.413  32.386  63.349  1.00  0.00     0.210 C 
ENDBRANCH  24  26
ENDBRANCH  19  20
ENDBRANCH   1  19
TORSDOF 5
ENDMDL
MODEL 2
REMARK VINA RESULT:      -9.1      1.065      1.776
REMARK  5 active torsions:
REMARK  status: ('A' for Active; 'I' for Inactive)
REMARK    1  A    between atoms: O_2  and  C_3 
REMARK    2  A    between atoms: C_7  and  C_8 
REMARK    3  A    between atoms: C_8  and  N_9 
REMARK       I    between atoms: N_9  and  C_10 
REMARK       I    between atoms: C_10  and  N_12 
REMARK    4  A    between atoms: N_12  and  C_13 
REMARK    5  A    between atoms: C_16  and  C_19 
ROOT
HETATM    1  N   UNL     1       7.269  29.862  58.399  1.00  0.00    -0.339 N 
HETATM    2  C   UNL     1       7.829  28.756  57.792  1.00  0.00     0.320 C 
HETATM    3  O   UNL     1       9.041  28.602  57.715  1.00  0.00    -0.247 OA
HETATM    4  N   UNL     1       6.858  27.887  57.348  1.00  0.00    -0.309 N 
HETATM    5  H   UNL     1       6.376  30.167  58.046  1.00  0.00     0.164 HD
HETATM    6  H   UNL     1       5.911  28.124  57.602  1.00  0.00     0.170 HD
ENDROOT
BRANCH   4   7
HETATM    7  C   UNL     1       7.047  26.645  56.708  1.00  0.00     0.036 A 
HETATM    8  C   UNL     1       6.913  26.449  55.334  1.00  0.00     0.030 A 
HETATM    9  C   UNL     1       7.142  25.188  54.767  1.00  0.00     0.014 A 
HETATM   10  C   UNL     1       7.504  24.088  55.558  1.00  0.00    -0.026 A 
HETATM   11  C   UNL     1       7.620  24.290  56.940  1.00  0.00     0.014 A 
HETATM   12  C   UNL     1       7.396  25.551  57.508  1.00  0.00     0.030 A 
BRANCH  10  13
HETATM   13  C   UNL     1       7.758  22.771  54.952  1.00  0.00    -0.023 A 
HETATM   14  C   UNL     1       8.077  21.661  55.744  1.00  0.00     0.031 A 
HETATM   15  C   UNL     1       8.312  20.440  55.131  1.00  0.00     0.117 A 
HETATM   16  N   UNL     1       8.256  20.247  53.797  1.00  0.00    -0.273 NA
HETATM   17  C   UNL     1       7.951  21.324  53.046  1.00  0.00     0.117 A 
HETATM   18  C   UNL     1       7.696  22.584  53.567  1.00  0.00     0.031 A 
ENDBRANCH  10  13
ENDBRANCH   4   7
BRANCH   1  19
HETATM   19  C   UNL     1       8.141  30.904  58.897  1.00  0.00     0.163 C 
BRANCH  19  20
HETATM   20  C   UNL     1       7.477  31.750  59.953  1.00  0.00    -0.038 A 
HETATM   21  C   UNL     1       6.195  32.280  59.753  1.00  0.00     0.009 A 
HETATM   22  C   UNL     1       5.561  33.001  60.765  1.00  0.00     0.003 A 
HETATM   23  C   UNL     1       6.189  33.181  61.999  1.00  0.00     0.037 A 
HETATM   24  C   UNL     1       7.453  32.638  62.225  1.00  0.00     0.068 A 
HETATM   25  C   UNL     1       8.095  31.939  61.198  1.00  0.00     0.045 A 
BRANCH  24  26
HETATM   26  O   UNL     1       8.163  32.726  63.391  1.00  0.00    -0.356 OA
HETATM   27  C   UNL     1       7.449  33.198  64.528  1.00  0.00     0.210 C 
ENDBRANCH  24  26
ENDBRANCH  19  20
ENDBRANCH   1  19
TORSDOF 5
ENDMDL
MODEL 3
REMARK VINA RESULT:      -8.9      1.355      2.463
REMARK  5 active torsions:
REMARK  status: ('A' for Active; 'I' for Inactive)
REMARK    1  A    between atoms: O_2  and  C_3 
REMARK    2  A    between atoms: C_7  and  C_8 
REMARK    3  A    between atoms: C_8  and  N_9 
REMARK       I    between atoms: N_9  and  C_10 
REMARK       I    between atoms: C_10  and  N_12 
REMARK    4  A    between atoms: N_12  and  C_13 
REMARK    5  A    between atoms: C_16  and  C_19 
ROOT
HETATM    1  N   UNL     1       7.276  30.803  59.392  1.00  0.00    -0.339 N 
HETATM    2  C   UNL     1       7.798  29.782  58.624  1.00  0.00     0.320 C 
HETATM    3  O   UNL     1       9.002  29.572  58.555  1.00  0.00    -0.247 OA
HETATM    4  N   UNL     1       6.798  29.058  58.014  1.00  0.00    -0.309 N 
HETATM    5  H   UNL     1       6.414  31.215  59.071  1.00  0.00     0.164 HD
HETATM    6  H   UNL     1       5.857  29.305  58.279  1.00  0.00     0.170 HD
ENDROOT
BRANCH   4   7
HETATM    7  C   UNL     1       6.943  27.930  57.181  1.00  0.00     0.036 A 
HETATM    8  C   UNL     1       6.623  27.918  55.824  1.00  0.00     0.030 A 
HETATM    9  C   UNL     1       6.819  26.764  55.054  1.00  0.00     0.014 A 
HETATM   10  C   UNL     1       7.333  25.589  55.619  1.00  0.00    -0.026 A 
HETATM   11  C   UNL     1       7.638  25.605  56.987  1.00  0.00     0.014 A 
HETATM   12  C   UNL     1       7.447  26.759  57.758  1.00  0.00     0.030 A 
BRANCH  10  13
HETATM   13  C   UNL     1       7.551  24.387  54.799  1.00  0.00    -0.023 A 
HETATM   14  C   UNL     1       7.791  24.484  53.423  1.00  0.00     0.031 A 
HETATM   15  C   UNL     1       7.986  23.326  52.688  1.00  0.00     0.117 A 
HETATM   16  N   UNL     1       7.958  22.086  53.219  1.00  0.00    -0.273 NA
HETATM   17  C   UNL     1       7.723  22.005  54.544  1.00  0.00     0.117 A 
HETATM   18  C   UNL     1       7.519  23.106  55.362  1.00  0.00     0.031 A 
ENDBRANCH  10  13
ENDBRANCH   4   7
BRANCH   1  19
HETATM   19  C   UNL     1       8.184  31.696  60.081  1.00  0.00     0.163 C 
BRANCH  19  20
HETATM   20  C   UNL     1       7.641  32.147  61.412  1.00  0.00    -0.038 A 
HETATM   21  C   UNL     1       8.472  32.246  62.536  1.00  0.00     0.009 A 
HETATM   22  C   UNL     1       7.974  32.734  63.744  1.00  0.00     0.003 A 
HETATM   23  C   UNL     1       6.646  33.152  63.840  1.00  0.00     0.037 A 
HETATM   24  C   UNL     1       5.811  33.085  62.725  1.00  0.00     0.068 A 
HETATM   25  C   UNL     1       6.308  32.570  61.523  1.00  0.00     0.045 A 
BRANCH  24  26
HETATM   26  O   UNL     1       4.502  33.479  62.682  1.00  0.00    -0.356 OA
HETATM   27  C   UNL     1       4.009  34.147  63.838  1.00  0.00     0.210 C 
ENDBRANCH  24  26
ENDBRANCH  19  20
ENDBRANCH   1  19
TORSDOF 5
ENDMDL
MODEL 4
REMARK VINA RESULT:      -8.7      7.262     10.990
REMARK  5 active torsions:
REMARK  status: ('A' for Active; 'I' for Inactive)
REMARK    1  A    between atoms: O_2  and  C_3 
REMARK    2  A    between atoms: C_7  and  C_8 
REMARK    3  A    between atoms: C_8  and  N_9 
REMARK       I    between atoms: N_9  and  C_10 
REMARK       I    between atoms: C_10  and  N_12 
REMARK    4  A    between atoms: N_12  and  C_13 
REMARK    5  A    between atoms: C_16  and  C_19 
ROOT
HETATM    1  N   UNL     1       6.908  25.108  52.829  1.00  0.00    -0.339 N 
HETATM    2  C   UNL     1       5.699  25.421  52.241  1.00  0.00     0.320 C 
HETATM    3  O   UNL     1       4.632  25.240  52.814  1.00  0.00    -0.247 OA
HETATM    4  N   UNL     1       5.882  25.972  50.992  1.00  0.00    -0.309 N 
HETATM    5  H   UNL     1       7.655  24.835  52.210  1.00  0.00     0.164 HD
HETATM    6  H   UNL     1       6.839  26.150  50.730  1.00  0.00     0.170 HD
ENDROOT
BRANCH   4   7
HETATM    7  C   UNL     1       4.888  26.439  50.108  1.00  0.00     0.036 A 
HETATM    8  C   UNL     1       4.221  25.630  49.188  1.00  0.00     0.030 A 
HETATM    9  C   UNL     1       3.225  26.162  48.359  1.00  0.00     0.014 A 
HETATM   10  C   UNL     1       2.873  27.518  48.420  1.00  0.00    -0.026 A 
HETATM   11  C   UNL     1       3.559  28.327  49.336  1.00  0.00     0.014 A 
HETATM   12  C   UNL     1       4.552  27.796  50.170  1.00  0.00     0.030 A 
BRANCH  10  13
HETATM   13  C   UNL     1       1.815  28.065  47.556  1.00  0.00    -0.023 A 
HETATM   14  C   UNL     1       0.740  27.270  47.138  1.00  0.00     0.031 A 
HETATM   15  C   UNL     1      -0.232  27.824  46.322  1.00  0.00     0.117 A 
HETATM   16  N   UNL     1      -0.211  29.103  45.892  1.00  0.00    -0.273 NA
HETATM   17  C   UNL     1       0.830  29.857  46.298  1.00  0.00     0.117 A 
HETATM   18  C   UNL     1       1.848  29.393  47.117  1.00  0.00     0.031 A 
ENDBRANCH  10  13
ENDBRANCH   4   7
BRANCH   1  19
HETATM   19  C   UNL     1       6.910  24.483  54.135  1.00  0.00     0.163 C 
BRANCH  19  20
HETATM   20  C   UNL     1       7.370  23.049  54.082  1.00  0.00    -0.038 A 
HETATM   21  C   UNL     1       7.702  22.442  52.864  1.00  0.00     0.009 A 
HETATM   22  C   UNL     1       8.194  21.137  52.834  1.00  0.00     0.003 A 
HETATM   23  C   UNL     1       8.384  20.430  54.023  1.00  0.00     0.037 A 
HETATM   24  C   UNL     1       8.083  21.028  55.246  1.00  0.00     0.068 A 
HETATM   25  C   UNL     1       7.565  22.326  55.268  1.00  0.00     0.045 A 
BRANCH  24  26
HETATM   26  O   UNL     1       8.242  20.452  56.477  1.00  0.00    -0.356 OA
HETATM   27  C   UNL     1       8.254  21.339  57.590  1.00  0.00     0.210 C 
ENDBRANCH  24  26
ENDBRANCH  19  20
ENDBRANCH   1  19
TORSDOF 5
ENDMDL
MODEL 5
REMARK VINA RESULT:      -8.6      2.142      3.128
REMARK  5 active torsions:
REMARK  status: ('A' for Active; 'I' for Inactive)
REMARK    1  A    between atoms: O_2  and  C_3 
REMARK    2  A    between atoms: C_7  and  C_8 
REMARK    3  A    between atoms: C_8  and  N_9 
REMARK       I    between atoms: N_9  and  C_10 
REMARK       I    between atoms: C_10  and  N_12 
REMARK    4  A    between atoms: N_12  and  C_13 
REMARK    5  A    between atoms: C_16  and  C_19 
ROOT
HETATM    1  N   UNL     1       6.130  29.969  55.651  1.00  0.00    -0.339 N 
HETATM    2  C   UNL     1       6.013  28.595  55.587  1.00  0.00     0.320 C 
HETATM    3  O   UNL     1       5.000  28.013  55.950  1.00  0.00    -0.247 OA
HETATM    4  N   UNL     1       7.143  28.025  55.044  1.00  0.00    -0.309 N 
HETATM    5  H   UNL     1       7.056  30.338  55.795  1.00  0.00     0.164 HD
HETATM    6  H   UNL     1       7.833  28.673  54.696  1.00  0.00     0.170 HD
ENDROOT
BRANCH   4   7
HETATM    7  C   UNL     1       7.379  26.657  54.796  1.00  0.00     0.036 A 
HETATM    8  C   UNL     1       7.451  26.099  53.521  1.00  0.00     0.030 A 
HETATM    9  C   UNL     1       7.714  24.733  53.354  1.00  0.00     0.014 A 
HETATM   10  C   UNL     1       7.904  23.887  54.455  1.00  0.00    -0.026 A 
HETATM   11  C   UNL     1       7.814  24.454  55.734  1.00  0.00     0.014 A 
HETATM   12  C   UNL     1       7.556  25.820  55.903  1.00  0.00     0.030 A 
BRANCH  10  13
HETATM   13  C   UNL     1       8.195  22.457  54.270  1.00  0.00    -0.023 A 
HETATM   14  C   UNL     1       8.025  21.840  53.024  1.00  0.00     0.031 A 
HETATM   15  C   UNL     1       8.307  20.490  52.894  1.00  0.00     0.117 A 
HETATM   16  N   UNL     1       8.741  19.713  53.909  1.00  0.00    -0.273 NA
HETATM   17  C   UNL     1       8.899  20.318  55.104  1.00  0.00     0.117 A 
HETATM   18  C   UNL     1       8.646  21.662  55.330  1.00  0.00     0.031 A 
ENDBRANCH  10  13
ENDBRANCH   4   7
BRANCH   1  19
HETATM   19  C   UNL     1       5.047  30.738  56.229  1.00  0.00     0.163 C 
BRANCH  19  20
HETATM   20  C   UNL     1       5.434  31.373  57.539  1.00  0.00    -0.038 A 
HETATM   21  C   UNL     1       4.473  31.976  58.362  1.00  0.00     0.009 A 
HETATM   22  C   UNL     1       4.832  32.498  59.605  1.00  0.00     0.003 A 
HETATM   23  C   UNL     1       6.151  32.403  60.053  1.00  0.00     0.037 A 
HETATM   24  C   UNL     1       7.115  31.784  59.259  1.00  0.00     0.068 A 
HETATM   25  C   UNL     1       6.756  31.286  58.002  1.00  0.00     0.045 A 
BRANCH  24  26
HETATM   26  O   UNL     1       8.432  31.610  59.590  1.00  0.00    -0.356 OA
HETATM   27  C   UNL     1       8.703  30.653  60.607  1.00  0.00     0.210 C 
ENDBRANCH  24  26
ENDBRANCH  19  20
ENDBRANCH   1  19
TORSDOF 5
ENDMDL
MODEL 6
REMARK VINA RESULT:      -8.2      3.637      4.529
REMARK  5 active torsions:
REMARK  status: ('A' for Active; 'I' for Inactive)
REMARK    1  A    between atoms: O_2  and  C_3 
REMARK    2  A    between atoms: C_7  and  C_8 
REMARK    3  A    between atoms: C_8  and  N_9 
REMARK       I    between atoms: N_9  and  C_10 
REMARK       I    between atoms: C_10  and  N_12 
REMARK    4  A    between atoms: N_12  and  C_13 
REMARK    5  A    between atoms: C_16  and  C_19 
ROOT
HETATM    1  N   UNL     1       5.174  29.838  53.662  1.00  0.00    -0.339 N 
HETATM    2  C   UNL     1       5.230  28.488  53.945  1.00  0.00     0.320 C 
HETATM    3  O   UNL     1       4.260  27.871  54.363  1.00  0.00    -0.247 OA
HETATM    4  N   UNL     1       6.475  27.973  53.659  1.00  0.00    -0.309 N 
HETATM    5  H   UNL     1       6.027  30.361  53.779  1.00  0.00     0.164 HD
HETATM    6  H   UNL     1       7.117  28.608  53.211  1.00  0.00     0.170 HD
ENDROOT
BRANCH   4   7
HETATM    7  C   UNL     1       6.899  26.634  53.790  1.00  0.00     0.036 A 
HETATM    8  C   UNL     1       7.116  26.003  55.015  1.00  0.00     0.030 A 
HETATM    9  C   UNL     1       7.513  24.661  55.066  1.00  0.00     0.014 A 
HETATM   10  C   UNL     1       7.710  23.914  53.896  1.00  0.00    -0.026 A 
HETATM   11  C   UNL     1       7.505  24.560  52.669  1.00  0.00     0.014 A 
HETATM   12  C   UNL     1       7.104  25.901  52.616  1.00  0.00     0.030 A 
BRANCH  10  13
HETATM   13  C   UNL     1       8.112  22.500  53.959  1.00  0.00    -0.023 A 
HETATM   14  C   UNL     1       7.971  21.658  52.849  1.00  0.00     0.031 A 
HETATM   15  C   UNL     1       8.358  20.332  52.954  1.00  0.00     0.117 A 
HETATM   16  N   UNL     1       8.870  19.786  54.076  1.00  0.00    -0.273 NA
HETATM   17  C   UNL     1       8.998  20.606  55.139  1.00  0.00     0.117 A 
HETATM   18  C   UNL     1       8.642  21.946  55.129  1.00  0.00     0.031 A 
ENDBRANCH  10  13
ENDBRANCH   4   7
BRANCH   1  19
HETATM   19  C   UNL     1       3.948  30.560  53.935  1.00  0.00     0.163 C 
BRANCH  19  20
HETATM   20  C   UNL     1       4.129  31.610  54.999  1.00  0.00    -0.038 A 
HETATM   21  C   UNL     1       4.726  32.843  54.704  1.00  0.00     0.009 A 
HETATM   22  C   UNL     1       4.823  33.835  55.680  1.00  0.00     0.003 A 
HETATM   23  C   UNL     1       4.304  33.618  56.958  1.00  0.00     0.037 A 
HETATM   24  C   UNL     1       3.684  32.406  57.262  1.00  0.00     0.068 A 
HETATM   25  C   UNL     1       3.613  31.406  56.288  1.00  0.00     0.045 A 
BRANCH  24  26
HETATM   26  O   UNL     1       3.121  32.078  58.465  1.00  0.00    -0.356 OA
HETATM   27  C   UNL     1       3.995  32.071  59.588  1.00  0.00     0.210 C 
ENDBRANCH  24  26
ENDBRANCH  19  20
ENDBRANCH   1  19
TORSDOF 5
ENDMDL
MODEL 7
REMARK VINA RESULT:      -8.1      1.880      2.186
REMARK  5 active torsions:
REMARK  status: ('A' for Active; 'I' for Inactive)
REMARK    1  A    between atoms: O_2  and  C_3 
REMARK    2  A    between atoms: C_7  and  C_8 
REMARK    3  A    between atoms: C_8  and  N_9 
REMARK       I    between atoms: N_9  and  C_10 
REMARK       I    between atoms: C_10  and  N_12 
REMARK    4  A    between atoms: N_12  and  C_13 
REMARK    5  A    between atoms: C_16  and  C_19 
ROOT
HETATM    1  N   UNL     1       6.218  29.690  56.982  1.00  0.00    -0.339 N 
HETATM    2  C   UNL     1       6.116  28.333  56.750  1.00  0.00     0.320 C 
HETATM    3  O   UNL     1       5.045  27.744  56.810  1.00  0.00    -0.247 OA
HETATM    4  N   UNL     1       7.339  27.792  56.422  1.00  0.00    -0.309 N 
HETATM    5  H   UNL     1       7.088  30.019  57.370  1.00  0.00     0.164 HD
HETATM    6  H   UNL     1       8.092  28.452  56.309  1.00  0.00     0.170 HD
ENDROOT
BRANCH   4   7
HETATM    7  C   UNL     1       7.622  26.450  56.093  1.00  0.00     0.036 A 
HETATM    8  C   UNL     1       8.199  25.537  56.975  1.00  0.00     0.030 A 
HETATM    9  C   UNL     1       8.426  24.212  56.583  1.00  0.00     0.014 A 
HETATM   10  C   UNL     1       8.090  23.763  55.297  1.00  0.00    -0.026 A 
HETATM   11  C   UNL     1       7.525  24.692  54.412  1.00  0.00     0.014 A 
HETATM   12  C   UNL     1       7.292  26.017  54.804  1.00  0.00     0.030 A 
BRANCH  10  13
HETATM   13  C   UNL     1       8.318  22.366  54.900  1.00  0.00    -0.023 A 
HETATM   14  C   UNL     1       8.374  21.342  55.854  1.00  0.00     0.031 A 
HETATM   15  C   UNL     1       8.595  20.040  55.436  1.00  0.00     0.117 A 
HETATM   16  N   UNL     1       8.764  19.685  54.146  1.00  0.00    -0.273 NA
HETATM   17  C   UNL     1       8.711  20.679  53.236  1.00  0.00     0.117 A 
HETATM   18  C   UNL     1       8.492  22.010  53.558  1.00  0.00     0.031 A 
ENDBRANCH  10  13
ENDBRANCH   4   7
BRANCH   1  19
HETATM   19  C   UNL     1       5.034  30.425  57.375  1.00  0.00     0.163 C 
BRANCH  19  20
HETATM   20  C   UNL     1       5.275  31.292  58.583  1.00  0.00    -0.038 A 
HETATM   21  C   UNL     1       6.576  31.582  59.017  1.00  0.00     0.009 A 
HETATM   22  C   UNL     1       6.788  32.444  60.092  1.00  0.00     0.003 A 
HETATM   23  C   UNL     1       5.705  33.048  60.734  1.00  0.00     0.037 A 
HETATM   24  C   UNL     1       4.405  32.791  60.300  1.00  0.00     0.068 A 
HETATM   25  C   UNL     1       4.196  31.906  59.238  1.00  0.00     0.045 A 
BRANCH  24  26
HETATM   26  O   UNL     1       3.265  33.333  60.828  1.00  0.00    -0.356 OA
HETATM   27  C   UNL     1       3.229  33.464  62.245  1.00  0.00     0.210 C 
ENDBRANCH  24  26
ENDBRANCH  19  20
ENDBRANCH   1  19
TORSDOF 5
ENDMDL
MODEL 8
REMARK VINA RESULT:      -8.1      2.515      4.373
REMARK  5 active torsions:
REMARK  status: ('A' for Active; 'I' for Inactive)
REMARK    1  A    between atoms: O_2  and  C_3 
REMARK    2  A    between atoms: C_7  and  C_8 
REMARK    3  A    between atoms: C_8  and  N_9 
REMARK       I    between atoms: N_9  and  C_10 
REMARK       I    between atoms: C_10  and  N_12 
REMARK    4  A    between atoms: N_12  and  C_13 
REMARK    5  A    between atoms: C_16  and  C_19 
ROOT
HETATM    1  N   UNL     1       7.765  32.164  60.989  1.00  0.00    -0.339 N 
HETATM    2  C   UNL     1       8.061  30.986  60.333  1.00  0.00     0.320 C 
HETATM    3  O   UNL     1       8.694  30.087  60.869  1.00  0.00    -0.247 OA
HETATM    4  N   UNL     1       7.525  30.975  59.065  1.00  0.00    -0.309 N 
HETATM    5  H   UNL     1       7.683  32.991  60.418  1.00  0.00     0.164 HD
HETATM    6  H   UNL     1       6.934  31.759  58.834  1.00  0.00     0.170 HD
ENDROOT
BRANCH   4   7
HETATM    7  C   UNL     1       7.594  29.936  58.114  1.00  0.00     0.036 A 
HETATM    8  C   UNL     1       8.787  29.411  57.620  1.00  0.00     0.030 A 
HETATM    9  C   UNL     1       8.776  28.359  56.695  1.00  0.00     0.014 A 
HETATM   10  C   UNL     1       7.572  27.808  56.232  1.00  0.00    -0.026 A 
HETATM   11  C   UNL     1       6.377  28.353  56.722  1.00  0.00     0.014 A 
HETATM   12  C   UNL     1       6.387  29.401  57.651  1.00  0.00     0.030 A 
BRANCH  10  13
HETATM   13  C   UNL     1       7.570  26.693  55.272  1.00  0.00    -0.023 A 
HETATM   14  C   UNL     1       7.583  25.363  55.709  1.00  0.00     0.031 A 
HETATM   15  C   UNL     1       7.584  24.343  54.771  1.00  0.00     0.117 A 
HETATM   16  N   UNL     1       7.576  24.551  53.438  1.00  0.00    -0.273 NA
HETATM   17  C   UNL     1       7.566  25.836  53.029  1.00  0.00     0.117 A 
HETATM   18  C   UNL     1       7.561  26.921  53.892  1.00  0.00     0.031 A 
ENDBRANCH  10  13
ENDBRANCH   4   7
BRANCH   1  19
HETATM   19  C   UNL     1       8.280  32.369  62.326  1.00  0.00     0.163 C 
BRANCH  19  20
HETATM   20  C   UNL     1       7.220  32.862  63.277  1.00  0.00    -0.038 A 
HETATM   21  C   UNL     1       5.860  32.784  62.946  1.00  0.00     0.009 A 
HETATM   22  C   UNL     1       4.885  33.177  63.863  1.00  0.00     0.003 A 
HETATM   23  C   UNL     1       5.254  33.631  65.131  1.00  0.00     0.037 A 
HETATM   24  C   UNL     1       6.601  33.691  65.486  1.00  0.00     0.068 A 
HETATM   25  C   UNL     1       7.576  33.321  64.554  1.00  0.00     0.045 A 
BRANCH  24  26
HETATM   26  O   UNL     1       7.090  34.097  66.698  1.00  0.00    -0.356 OA
HETATM   27  C   UNL     1       6.123  34.399  67.697  1.00  0.00     0.210 C 
ENDBRANCH  24  26
ENDBRANCH  19  20
ENDBRANCH   1  19
TORSDOF 5
ENDMDL
MODEL 9
REMARK VINA RESULT:      -8.0      6.149      9.041
REMARK  5 active torsions:
REMARK  status: ('A' for Active; 'I' for Inactive)
REMARK    1  A    between atoms: O_2  and  C_3 
REMARK    2  A    between atoms: C_7  and  C_8 
REMARK    3  A    between atoms: C_8  and  N_9 
REMARK       I    between atoms: N_9  and  C_10 
REMARK       I    between atoms: C_10  and  N_12 
REMARK    4  A    between atoms: N_12  and  C_13 
REMARK    5  A    between atoms: C_16  and  C_19 
ROOT
HETATM    1  N   UNL     1       3.401  28.853  52.276  1.00  0.00    -0.339 N 
HETATM    2  C   UNL     1       4.473  27.991  52.391  1.00  0.00     0.320 C 
HETATM    3  O   UNL     1       5.526  28.184  51.797  1.00  0.00    -0.247 OA
HETATM    4  N   UNL     1       4.193  26.962  53.262  1.00  0.00    -0.309 N 
HETATM    5  H   UNL     1       2.483  28.448  52.373  1.00  0.00     0.164 HD
HETATM    6  H   UNL     1       3.312  27.030  53.748  1.00  0.00     0.170 HD
ENDROOT
BRANCH   4   7
HETATM    7  C   UNL     1       5.049  25.912  53.651  1.00  0.00     0.036 A 
HETATM    8  C   UNL     1       5.560  25.761  54.940  1.00  0.00     0.030 A 
HETATM    9  C   UNL     1       6.386  24.675  55.258  1.00  0.00     0.014 A 
HETATM   10  C   UNL     1       6.731  23.715  54.296  1.00  0.00    -0.026 A 
HETATM   11  C   UNL     1       6.226  23.883  52.999  1.00  0.00     0.014 A 
HETATM   12  C   UNL     1       5.396  24.966  52.680  1.00  0.00     0.030 A 
BRANCH  10  13
HETATM   13  C   UNL     1       7.586  22.569  54.643  1.00  0.00    -0.023 A 
HETATM   14  C   UNL     1       7.991  22.343  55.964  1.00  0.00     0.031 A 
HETATM   15  C   UNL     1       8.800  21.254  56.246  1.00  0.00     0.117 A 
HETATM   16  N   UNL     1       9.234  20.381  55.314  1.00  0.00    -0.273 NA
HETATM   17  C   UNL     1       8.840  20.611  54.045  1.00  0.00     0.117 A 
HETATM   18  C   UNL     1       8.030  21.670  53.666  1.00  0.00     0.031 A 
ENDBRANCH  10  13
ENDBRANCH   4   7
BRANCH   1  19
HETATM   19  C   UNL     1       3.501  29.979  51.371  1.00  0.00     0.163 C 
BRANCH  19  20
HETATM   20  C   UNL     1       3.335  29.571  49.931  1.00  0.00    -0.038 A 
HETATM   21  C   UNL     1       4.234  30.008  48.948  1.00  0.00     0.009 A 
HETATM   22  C   UNL     1       4.112  29.566  47.631  1.00  0.00     0.003 A 
HETATM   23  C   UNL     1       3.106  28.663  47.282  1.00  0.00     0.037 A 
HETATM   24  C   UNL     1       2.219  28.198  48.252  1.00  0.00     0.068 A 
HETATM   25  C   UNL     1       2.329  28.665  49.566  1.00  0.00     0.045 A 
BRANCH  24  26
HETATM   26  O   UNL     1       1.207  27.301  48.044  1.00  0.00    -0.356 OA
HETATM   27  C   UNL     1       0.247  27.655  47.055  1.00  0.00     0.210 C 
ENDBRANCH  24  26
ENDBRANCH  19  20
ENDBRANCH   1  19
TORSDOF 5
ENDMDL
MODEL 10
REMARK VINA RESULT:      -8.0      2.151      3.182
REMARK  5 active torsions:
REMARK  status: ('A' for Active; 'I' for Inactive)
REMARK    1  A    between atoms: O_2  and  C_3 
REMARK    2  A    between atoms: C_7  and  C_8 
REMARK    3  A    between atoms: C_8  and  N_9 
REMARK       I    between atoms: N_9  and  C_10 
REMARK       I    between atoms: C_10  and  N_12 
REMARK    4  A    between atoms: N_12  and  C_13 
REMARK    5  A    between atoms: C_16  and  C_19 
ROOT
HETATM    1  N   UNL     1       5.136  31.372  59.246  1.00  0.00    -0.339 N 
HETATM    2  C   UNL     1       5.786  30.671  58.249  1.00  0.00     0.320 C 
HETATM    3  O   UNL     1       6.790  31.106  57.701  1.00  0.00    -0.247 OA
HETATM    4  N   UNL     1       5.177  29.459  58.015  1.00  0.00    -0.309 N 
HETATM    5  H   UNL     1       4.141  31.231  59.322  1.00  0.00     0.164 HD
HETATM    6  H   UNL     1       4.427  29.220  58.645  1.00  0.00     0.170 HD
ENDROOT
BRANCH   4   7
HETATM    7  C   UNL     1       5.571  28.465  57.096  1.00  0.00     0.036 A 
HETATM    8  C   UNL     1       4.885  28.181  55.916  1.00  0.00     0.030 A 
HETATM    9  C   UNL     1       5.353  27.195  55.038  1.00  0.00     0.014 A 
HETATM   10  C   UNL     1       6.514  26.460  55.318  1.00  0.00    -0.026 A 
HETATM   11  C   UNL     1       7.188  26.741  56.515  1.00  0.00     0.014 A 
HETATM   12  C   UNL     1       6.724  27.731  57.391  1.00  0.00     0.030 A 
BRANCH  10  13
HETATM   13  C   UNL     1       7.007  25.437  54.383  1.00  0.00    -0.023 A 
HETATM   14  C   UNL     1       6.952  24.075  54.707  1.00  0.00     0.031 A 
HETATM   15  C   UNL     1       7.431  23.146  53.799  1.00  0.00     0.117 A 
HETATM   16  N   UNL     1       7.959  23.470  52.600  1.00  0.00    -0.273 NA
HETATM   17  C   UNL     1       8.009  24.784  52.301  1.00  0.00     0.117 A 
HETATM   18  C   UNL     1       7.552  25.787  53.143  1.00  0.00     0.031 A 
ENDBRANCH  10  13
ENDBRANCH   4   7
BRANCH   1  19
HETATM   19  C   UNL     1       5.617  32.690  59.603  1.00  0.00     0.163 C 
BRANCH  19  20
HETATM   20  C   UNL     1       6.330  32.697  60.931  1.00  0.00    -0.038 A 
HETATM   21  C   UNL     1       7.487  31.934  61.134  1.00  0.00     0.009 A 
HETATM   22  C   UNL     1       8.179  32.004  62.343  1.00  0.00     0.003 A 
HETATM   23  C   UNL     1       7.737  32.856  63.357  1.00  0.00     0.037 A 
HETATM   24  C   UNL     1       6.602  33.643  63.163  1.00  0.00     0.068 A 
HETATM   25  C   UNL     1       5.897  33.548  61.959  1.00  0.00     0.045 A 
BRANCH  24  26
HETATM   26  O   UNL     1       6.080  34.528  64.066  1.00  0.00    -0.356 OA
HETATM   27  C   UNL     1       5.771  35.825  63.568  1.00  0.00     0.210 C 
ENDBRANCH  24  26
ENDBRANCH  19  20
ENDBRANCH   1  19
TORSDOF 5
ENDMDL
