MODEL 1
REMARK VINA RESULT:     -10.1      0.000      0.000
REMARK  9 active torsions:
REMARK  status: ('A' for Active; 'I' for Inactive)
REMARK    1  A    between atoms: O_2  and  C_3 
REMARK    2  A    between atoms: C_5  and  O_6 
REMARK    3  A    between atoms: C_9  and  C_10 
REMARK       I    between atoms: C_10  and  N_11 
REMARK    4  A    between atoms: N_11  and  C_12 
REMARK    5  A    between atoms: C_12  and  N_13 
REMARK    6  A    between atoms: N_13  and  C_14 
REMARK    7  A    between atoms: C_17  and  N_18 
REMARK    8  A    between atoms: N_21  and  C_23 
REMARK    9  A    between atoms: C_23  and  C_24 
ROOT
HETATM    1  C   UNL     1       5.675  30.900  57.945  1.00  0.00     0.034 A 
HETATM    2  C   UNL     1       6.671  29.930  58.031  1.00  0.00     0.032 A 
HETATM    3  C   UNL     1       6.519  28.669  57.426  1.00  0.00     0.031 A 
HETATM    4  C   UNL     1       5.362  28.320  56.725  1.00  0.00     0.030 A 
HETATM    5  C   UNL     1       4.342  29.288  56.705  1.00  0.00     0.031 A 
HETATM    6  C   UNL     1       4.491  30.554  57.301  1.00  0.00     0.032 A 
ENDROOT
BRANCH   1   7
HETATM    7  N   UNL     1       5.763  32.176  58.555  1.00  0.00    -0.333 N 
HETATM    8  H   UNL     1       6.684  32.597  58.558  1.00  0.00     0.168 HD
BRANCH   7   9
HETATM    9  C   UNL     1       4.824  32.830  59.304  1.00  0.00     0.179 C 
HETATM   10  S   UNL     1       4.232  34.380  59.046  1.00  0.00    -0.040 SA
BRANCH   9  11
HETATM   11  N   UNL     1       4.292  32.160  60.400  1.00  0.00    -0.299 N 
HETATM   12  C   UNL     1       4.441  31.959  61.776  1.00  0.00     0.258 C 
HETATM   13  O   UNL     1       3.553  31.349  62.374  1.00  0.00    -0.267 OA
HETATM   14  H   UNL     1       3.453  31.662  60.116  1.00  0.00     0.171 HD
BRANCH  12  15
HETATM   15  C   UNL     1       5.644  32.346  62.532  1.00  0.00     0.037 A 
HETATM   16  C   UNL     1       5.611  32.896  63.813  1.00  0.00     0.054 A 
HETATM   17  C   UNL     1       6.808  33.203  64.474  1.00  0.00     0.071 A 
HETATM   18  C   UNL     1       8.033  32.865  63.889  1.00  0.00     0.073 A 
HETATM   19  C   UNL     1       8.060  32.233  62.647  1.00  0.00     0.071 A 
HETATM   20  C   UNL     1       6.874  32.005  61.956  1.00  0.00     0.054 A 
BRANCH  17  21
HETATM   21  O   UNL     1       6.649  33.833  65.680  1.00  0.00    -0.356 OA
HETATM   22  C   UNL     1       5.312  34.112  66.084  1.00  0.00     0.210 C 
ENDBRANCH  17  21
BRANCH  19  23
HETATM   23  O   UNL     1       9.210  31.848  62.015  1.00  0.00    -0.356 OA
HETATM   24  C   UNL     1       9.028  30.774  61.092  1.00  0.00     0.210 C 
ENDBRANCH  19  23
ENDBRANCH  12  15
ENDBRANCH   9  11
ENDBRANCH   7   9
ENDBRANCH   1   7
BRANCH   4  25
HETATM   25  N   UNL     1       5.176  27.074  56.126  1.00  0.00    -0.378 N 
HETATM   26  C   UNL     1       5.109  25.835  56.927  1.00  0.00     0.150 C 
HETATM   27  C   UNL     1       6.480  25.126  56.988  1.00  0.00     0.255 C 
HETATM   28  N   UNL     1       7.021  24.892  55.578  1.00  0.00    -0.064 N 
HETATM   29  H   UNL     1       6.339  24.293  55.088  1.00  0.00     0.280 HD
HETATM   30  C   UNL     1       7.094  26.211  54.805  1.00  0.00     0.255 C 
HETATM   31  C   UNL     1       5.702  26.877  54.758  1.00  0.00     0.150 C 
BRANCH  28  32
HETATM   32  C   UNL     1       8.321  24.126  55.579  1.00  0.00     0.276 C 
BRANCH  32  33
HETATM   33  C   UNL     1       8.243  22.786  54.904  1.00  0.00     0.006 A 
HETATM   34  C   UNL     1       8.243  22.701  53.508  1.00  0.00     0.124 A 
HETATM   35  F   UNL     1       8.350  23.831  52.791  1.00  0.00    -0.206 F 
HETATM   36  C   UNL     1       8.183  21.479  52.849  1.00  0.00     0.043 A 
HETATM   37  C   UNL     1       8.110  20.306  53.596  1.00  0.00     0.003 A 
HETATM   38  C   UNL     1       8.091  20.367  54.991  1.00  0.00     0.001 A 
HETATM   39  C   UNL     1       8.153  21.600  55.645  1.00  0.00     0.012 A 
ENDBRANCH  32  33
ENDBRANCH  28  32
ENDBRANCH   4  25
TORSDOF 9
ENDMDL
MODEL 2
REMARK VINA RESULT:     -10.0      0.149      2.180
REMARK  9 active torsions:
REMARK  status: ('A' for Active; 'I' for Inactive)
REMARK    1  A    between atoms: O_2  and  C_3 
REMARK    2  A    between atoms: C_5  and  O_6 
REMARK    3  A    between atoms: C_9  and  C_10 
REMARK       I    between atoms: C_10  and  N_11 
REMARK    4  A    between atoms: N_11  and  C_12 
REMARK    5  A    between atoms: C_12  and  N_13 
REMARK    6  A    between atoms: N_13  and  C_14 
REMARK    7  A    between atoms: C_17  and  N_18 
REMARK    8  A    between atoms: N_21  and  C_23 
REMARK    9  A    between atoms: C_23  and  C_24 
ROOT
HETATM    1  C   UNL     1       5.666  31.022  57.964  1.00  0.00     0.034 A 
HETATM    2  C   UNL     1       6.648  30.039  58.062  1.00  0.00     0.032 A 
HETATM    3  C   UNL     1       6.484  28.777  57.464  1.00  0.00     0.031 A 
HETATM    4  C   UNL     1       5.327  28.438  56.758  1.00  0.00     0.030 A 
HETATM    5  C   UNL     1       4.320  29.420  56.725  1.00  0.00     0.031 A 
HETATM    6  C   UNL     1       4.481  30.688  57.314  1.00  0.00     0.032 A 
ENDROOT
BRANCH   1   7
HETATM    7  N   UNL     1       5.766  32.301  58.566  1.00  0.00    -0.333 N 
HETATM    8  H   UNL     1       6.701  32.686  58.621  1.00  0.00     0.168 HD
BRANCH   7   9
HETATM    9  C   UNL     1       4.810  32.999  59.250  1.00  0.00     0.179 C 
HETATM   10  S   UNL     1       4.258  34.548  58.908  1.00  0.00    -0.040 SA
BRANCH   9  11
HETATM   11  N   UNL     1       4.221  32.381  60.348  1.00  0.00    -0.299 N 
HETATM   12  C   UNL     1       4.387  32.115  61.711  1.00  0.00     0.258 C 
HETATM   13  O   UNL     1       3.439  31.627  62.327  1.00  0.00    -0.267 OA
HETATM   14  H   UNL     1       3.307  32.025  60.084  1.00  0.00     0.171 HD
BRANCH  12  15
HETATM   15  C   UNL     1       5.660  32.292  62.429  1.00  0.00     0.037 A 
HETATM   16  C   UNL     1       6.911  32.045  61.863  1.00  0.00     0.054 A 
HETATM   17  C   UNL     1       8.074  32.275  62.610  1.00  0.00     0.071 A 
HETATM   18  C   UNL     1       7.984  32.844  63.884  1.00  0.00     0.073 A 
HETATM   19  C   UNL     1       6.735  33.172  64.412  1.00  0.00     0.071 A 
HETATM   20  C   UNL     1       5.578  32.867  63.703  1.00  0.00     0.054 A 
BRANCH  17  21
HETATM   21  O   UNL     1       9.236  31.900  61.987  1.00  0.00    -0.356 OA
HETATM   22  C   UNL     1       9.193  30.697  61.226  1.00  0.00     0.210 C 
ENDBRANCH  17  21
BRANCH  19  23
HETATM   23  O   UNL     1       6.558  33.752  65.638  1.00  0.00    -0.356 OA
HETATM   24  C   UNL     1       5.191  34.021  65.954  1.00  0.00     0.210 C 
ENDBRANCH  19  23
ENDBRANCH  12  15
ENDBRANCH   9  11
ENDBRANCH   7   9
ENDBRANCH   1   7
BRANCH   4  25
HETATM   25  N   UNL     1       5.129  27.191  56.165  1.00  0.00    -0.378 N 
HETATM   26  C   UNL     1       5.049  25.958  56.973  1.00  0.00     0.150 C 
HETATM   27  C   UNL     1       6.412  25.235  57.039  1.00  0.00     0.255 C 
HETATM   28  N   UNL     1       6.951  24.988  55.631  1.00  0.00    -0.064 N 
HETATM   29  H   UNL     1       6.263  24.393  55.144  1.00  0.00     0.280 HD
HETATM   30  C   UNL     1       7.039  26.302  54.851  1.00  0.00     0.255 C 
HETATM   31  C   UNL     1       5.654  26.981  54.799  1.00  0.00     0.150 C 
BRANCH  28  32
HETATM   32  C   UNL     1       8.244  24.209  55.637  1.00  0.00     0.276 C 
BRANCH  32  33
HETATM   33  C   UNL     1       8.159  22.877  54.947  1.00  0.00     0.006 A 
HETATM   34  C   UNL     1       8.208  22.805  53.550  1.00  0.00     0.124 A 
HETATM   35  F   UNL     1       8.367  23.938  52.848  1.00  0.00    -0.206 F 
HETATM   36  C   UNL     1       8.143  21.590  52.878  1.00  0.00     0.043 A 
HETATM   37  C   UNL     1       8.016  20.412  53.611  1.00  0.00     0.003 A 
HETATM   38  C   UNL     1       7.948  20.461  55.004  1.00  0.00     0.001 A 
HETATM   39  C   UNL     1       8.015  21.687  55.673  1.00  0.00     0.012 A 
ENDBRANCH  32  33
ENDBRANCH  28  32
ENDBRANCH   4  25
TORSDOF 9
ENDMDL
MODEL 3
REMARK VINA RESULT:      -9.9      2.203      3.219
REMARK  9 active torsions:
REMARK  status: ('A' for Active; 'I' for Inactive)
REMARK    1  A    between atoms: O_2  and  C_3 
REMARK    2  A    between atoms: C_5  and  O_6 
REMARK    3  A    between atoms: C_9  and  C_10 
REMARK       I    between atoms: C_10  and  N_11 
REMARK    4  A    between atoms: N_11  and  C_12 
REMARK    5  A    between atoms: C_12  and  N_13 
REMARK    6  A    between atoms: N_13  and  C_14 
REMARK    7  A    between atoms: C_17  and  N_18 
REMARK    8  A    between atoms: N_21  and  C_23 
REMARK    9  A    between atoms: C_23  and  C_24 
ROOT
HETATM    1  C   UNL     1       7.134  30.743  58.794  1.00  0.00     0.034 A 
HETATM    2  C   UNL     1       7.950  29.621  58.660  1.00  0.00     0.032 A 
HETATM    3  C   UNL     1       7.680  28.629  57.700  1.00  0.00     0.031 A 
HETATM    4  C   UNL     1       6.577  28.707  56.846  1.00  0.00     0.030 A 
HETATM    5  C   UNL     1       5.729  29.813  57.040  1.00  0.00     0.031 A 
HETATM    6  C   UNL     1       5.998  30.813  57.993  1.00  0.00     0.032 A 
ENDROOT
BRANCH   1   7
HETATM    7  N   UNL     1       7.342  31.760  59.758  1.00  0.00    -0.333 N 
HETATM    8  H   UNL     1       7.376  32.705  59.396  1.00  0.00     0.168 HD
BRANCH   7   9
HETATM    9  C   UNL     1       7.691  31.629  61.074  1.00  0.00     0.179 C 
HETATM   10  S   UNL     1       9.215  31.862  61.738  1.00  0.00    -0.040 SA
BRANCH   9  11
HETATM   11  N   UNL     1       6.694  31.263  61.972  1.00  0.00    -0.299 N 
HETATM   12  C   UNL     1       5.721  31.770  62.839  1.00  0.00     0.258 C 
HETATM   13  O   UNL     1       4.917  30.980  63.335  1.00  0.00    -0.267 OA
HETATM   14  H   UNL     1       6.597  30.252  61.973  1.00  0.00     0.171 HD
BRANCH  12  15
HETATM   15  C   UNL     1       5.663  33.177  63.269  1.00  0.00     0.037 A 
HETATM   16  C   UNL     1       5.522  34.251  62.392  1.00  0.00     0.054 A 
HETATM   17  C   UNL     1       5.441  35.558  62.893  1.00  0.00     0.071 A 
HETATM   18  C   UNL     1       5.401  35.773  64.275  1.00  0.00     0.073 A 
HETATM   19  C   UNL     1       5.453  34.688  65.149  1.00  0.00     0.071 A 
HETATM   20  C   UNL     1       5.618  33.400  64.651  1.00  0.00     0.054 A 
BRANCH  17  21
HETATM   21  O   UNL     1       5.408  36.536  61.934  1.00  0.00    -0.356 OA
HETATM   22  C   UNL     1       4.312  37.445  61.986  1.00  0.00     0.210 C 
ENDBRANCH  17  21
BRANCH  19  23
HETATM   23  O   UNL     1       5.397  34.807  66.511  1.00  0.00    -0.356 OA
HETATM   24  C   UNL     1       4.112  34.515  67.061  1.00  0.00     0.210 C 
ENDBRANCH  19  23
ENDBRANCH  12  15
ENDBRANCH   9  11
ENDBRANCH   7   9
ENDBRANCH   1   7
BRANCH   4  25
HETATM   25  N   UNL     1       6.275  27.734  55.894  1.00  0.00    -0.378 N 
HETATM   26  C   UNL     1       5.164  26.781  56.091  1.00  0.00     0.150 C 
HETATM   27  C   UNL     1       5.663  25.443  56.679  1.00  0.00     0.255 C 
HETATM   28  N   UNL     1       6.790  24.872  55.818  1.00  0.00    -0.064 N 
HETATM   29  H   UNL     1       6.400  24.716  54.876  1.00  0.00     0.280 HD
HETATM   30  C   UNL     1       7.923  25.889  55.672  1.00  0.00     0.255 C 
HETATM   31  C   UNL     1       7.381  27.204  55.070  1.00  0.00     0.150 C 
BRANCH  28  32
HETATM   32  C   UNL     1       7.257  23.521  56.303  1.00  0.00     0.276 C 
BRANCH  32  33
HETATM   33  C   UNL     1       7.568  22.549  55.202  1.00  0.00     0.006 A 
HETATM   34  C   UNL     1       7.875  21.218  55.504  1.00  0.00     0.124 A 
HETATM   35  F   UNL     1       7.850  20.823  56.787  1.00  0.00    -0.206 F 
HETATM   36  C   UNL     1       8.157  20.288  54.510  1.00  0.00     0.043 A 
HETATM   37  C   UNL     1       8.145  20.691  53.178  1.00  0.00     0.003 A 
HETATM   38  C   UNL     1       7.858  22.018  52.852  1.00  0.00     0.001 A 
HETATM   39  C   UNL     1       7.574  22.947  53.858  1.00  0.00     0.012 A 
ENDBRANCH  32  33
ENDBRANCH  28  32
ENDBRANCH   4  25
TORSDOF 9
ENDMDL
MODEL 4
REMARK VINA RESULT:      -9.8      1.382      1.999
REMARK  9 active torsions:
REMARK  status: ('A' for Active; 'I' for Inactive)
REMARK    1  A    between atoms: O_2  and  C_3 
REMARK    2  A    between atoms: C_5  and  O_6 
REMARK    3  A    between atoms: C_9  and  C_10 
REMARK       I    between atoms: C_10  and  N_11 
REMARK    4  A    between atoms: N_11  and  C_12 
REMARK    5  A    between atoms: C_12  and  N_13 
REMARK    6  A    between atoms: N_13  and  C_14 
REMARK    7  A    between atoms: C_17  and  N_18 
REMARK    8  A    between atoms: N_21  and  C_23 
REMARK    9  A    between atoms: C_23  and  C_24 
ROOT
HETATM    1  C   UNL     1       5.353  31.982  58.087  1.00  0.00     0.034 A 
HETATM    2  C   UNL     1       6.580  31.727  58.696  1.00  0.00     0.032 A 
HETATM    3  C   UNL     1       7.418  30.690  58.249  1.00  0.00     0.031 A 
HETATM    4  C   UNL     1       7.059  29.854  57.188  1.00  0.00     0.030 A 
HETATM    5  C   UNL     1       5.789  30.085  56.630  1.00  0.00     0.031 A 
HETATM    6  C   UNL     1       4.949  31.126  57.066  1.00  0.00     0.032 A 
ENDROOT
BRANCH   1   7
HETATM    7  N   UNL     1       4.457  32.996  58.510  1.00  0.00    -0.333 N 
HETATM    8  H   UNL     1       4.091  33.589  57.776  1.00  0.00     0.168 HD
BRANCH   7   9
HETATM    9  C   UNL     1       4.169  33.402  59.783  1.00  0.00     0.179 C 
HETATM   10  S   UNL     1       4.122  34.982  60.349  1.00  0.00    -0.040 SA
BRANCH   9  11
HETATM   11  N   UNL     1       3.884  32.419  60.725  1.00  0.00    -0.299 N 
HETATM   12  C   UNL     1       4.209  31.961  62.006  1.00  0.00     0.258 C 
HETATM   13  O   UNL     1       3.513  31.073  62.499  1.00  0.00    -0.267 OA
HETATM   14  H   UNL     1       3.124  31.837  60.385  1.00  0.00     0.171 HD
BRANCH  12  15
HETATM   15  C   UNL     1       5.393  32.409  62.757  1.00  0.00     0.037 A 
HETATM   16  C   UNL     1       5.339  32.951  64.041  1.00  0.00     0.054 A 
HETATM   17  C   UNL     1       6.522  33.318  64.696  1.00  0.00     0.071 A 
HETATM   18  C   UNL     1       7.760  33.050  64.103  1.00  0.00     0.073 A 
HETATM   19  C   UNL     1       7.812  32.427  62.857  1.00  0.00     0.071 A 
HETATM   20  C   UNL     1       6.636  32.139  62.172  1.00  0.00     0.054 A 
BRANCH  17  21
HETATM   21  O   UNL     1       6.336  33.933  65.907  1.00  0.00    -0.356 OA
HETATM   22  C   UNL     1       4.992  34.054  66.363  1.00  0.00     0.210 C 
ENDBRANCH  17  21
BRANCH  19  23
HETATM   23  O   UNL     1       8.979  32.108  62.217  1.00  0.00    -0.356 OA
HETATM   24  C   UNL     1       9.038  30.752  61.772  1.00  0.00     0.210 C 
ENDBRANCH  19  23
ENDBRANCH  12  15
ENDBRANCH   9  11
ENDBRANCH   7   9
ENDBRANCH   1   7
BRANCH   4  25
HETATM   25  N   UNL     1       7.861  28.809  56.731  1.00  0.00    -0.378 N 
HETATM   26  C   UNL     1       8.010  28.525  55.290  1.00  0.00     0.150 C 
HETATM   27  C   UNL     1       7.039  27.415  54.828  1.00  0.00     0.255 C 
HETATM   28  N   UNL     1       7.203  26.170  55.699  1.00  0.00    -0.064 N 
HETATM   29  H   UNL     1       8.177  25.850  55.588  1.00  0.00     0.280 HD
HETATM   30  C   UNL     1       7.011  26.518  57.177  1.00  0.00     0.255 C 
HETATM   31  C   UNL     1       8.009  27.619  57.596  1.00  0.00     0.150 C 
BRANCH  28  32
HETATM   32  C   UNL     1       6.335  25.025  55.236  1.00  0.00     0.276 C 
BRANCH  32  33
HETATM   33  C   UNL     1       7.104  23.850  54.704  1.00  0.00     0.006 A 
HETATM   34  C   UNL     1       7.780  22.995  55.581  1.00  0.00     0.124 A 
HETATM   35  F   UNL     1       7.696  23.226  56.902  1.00  0.00    -0.206 F 
HETATM   36  C   UNL     1       8.492  21.892  55.126  1.00  0.00     0.043 A 
HETATM   37  C   UNL     1       8.545  21.634  53.758  1.00  0.00     0.003 A 
HETATM   38  C   UNL     1       7.894  22.483  52.862  1.00  0.00     0.001 A 
HETATM   39  C   UNL     1       7.178  23.590  53.329  1.00  0.00     0.012 A 
ENDBRANCH  32  33
ENDBRANCH  28  32
ENDBRANCH   4  25
TORSDOF 9
ENDMDL
MODEL 5
REMARK VINA RESULT:      -9.8      1.302      2.955
REMARK  9 active torsions:
REMARK  status: ('A' for Active; 'I' for Inactive)
REMARK    1  A    between atoms: O_2  and  C_3 
REMARK    2  A    between atoms: C_5  and  O_6 
REMARK    3  A    between atoms: C_9  and  C_10 
REMARK       I    between atoms: C_10  and  N_11 
REMARK    4  A    between atoms: N_11  and  C_12 
REMARK    5  A    between atoms: C_12  and  N_13 
REMARK    6  A    between atoms: N_13  and  C_14 
REMARK    7  A    between atoms: C_17  and  N_18 
REMARK    8  A    between atoms: N_21  and  C_23 
REMARK    9  A    between atoms: C_23  and  C_24 
ROOT
HETATM    1  C   UNL     1       5.031  31.596  58.198  1.00  0.00     0.034 A 
HETATM    2  C   UNL     1       4.554  30.568  57.387  1.00  0.00     0.032 A 
HETATM    3  C   UNL     1       5.405  29.552  56.915  1.00  0.00     0.031 A 
HETATM    4  C   UNL     1       6.768  29.529  57.220  1.00  0.00     0.030 A 
HETATM    5  C   UNL     1       7.243  30.610  57.985  1.00  0.00     0.031 A 
HETATM    6  C   UNL     1       6.396  31.625  58.467  1.00  0.00     0.032 A 
ENDROOT
BRANCH   1   7
HETATM    7  N   UNL     1       4.226  32.658  58.680  1.00  0.00    -0.333 N 
HETATM    8  H   UNL     1       3.881  33.299  57.976  1.00  0.00     0.168 HD
BRANCH   7   9
HETATM    9  C   UNL     1       4.008  33.043  59.973  1.00  0.00     0.179 C 
HETATM   10  S   UNL     1       3.939  34.617  60.555  1.00  0.00    -0.040 SA
BRANCH   9  11
HETATM   11  N   UNL     1       3.824  32.044  60.922  1.00  0.00    -0.299 N 
HETATM   12  C   UNL     1       4.290  31.559  62.149  1.00  0.00     0.258 C 
HETATM   13  O   UNL     1       3.648  30.665  62.702  1.00  0.00    -0.267 OA
HETATM   14  H   UNL     1       3.026  31.474  60.660  1.00  0.00     0.171 HD
BRANCH  12  15
HETATM   15  C   UNL     1       5.556  31.985  62.768  1.00  0.00     0.037 A 
HETATM   16  C   UNL     1       6.807  31.809  62.177  1.00  0.00     0.054 A 
HETATM   17  C   UNL     1       7.958  32.278  62.824  1.00  0.00     0.071 A 
HETATM   18  C   UNL     1       7.843  33.008  64.012  1.00  0.00     0.073 A 
HETATM   19  C   UNL     1       6.582  33.259  64.553  1.00  0.00     0.071 A 
HETATM   20  C   UNL     1       5.447  32.722  63.954  1.00  0.00     0.054 A 
BRANCH  17  21
HETATM   21  O   UNL     1       9.134  31.957  62.199  1.00  0.00    -0.356 OA
HETATM   22  C   UNL     1       9.109  30.829  61.329  1.00  0.00     0.210 C 
ENDBRANCH  17  21
BRANCH  19  23
HETATM   23  O   UNL     1       6.377  33.983  65.696  1.00  0.00    -0.356 OA
HETATM   24  C   UNL     1       5.013  34.020  66.116  1.00  0.00     0.210 C 
ENDBRANCH  19  23
ENDBRANCH  12  15
ENDBRANCH   9  11
ENDBRANCH   7   9
ENDBRANCH   1   7
BRANCH   4  25
HETATM   25  N   UNL     1       7.640  28.544  56.757  1.00  0.00    -0.378 N 
HETATM   26  C   UNL     1       7.769  28.243  55.317  1.00  0.00     0.150 C 
HETATM   27  C   UNL     1       6.880  27.048  54.906  1.00  0.00     0.255 C 
HETATM   28  N   UNL     1       7.172  25.839  55.794  1.00  0.00    -0.064 N 
HETATM   29  H   UNL     1       8.166  25.598  55.659  1.00  0.00     0.280 HD
HETATM   30  C   UNL     1       6.996  26.201  57.270  1.00  0.00     0.255 C 
HETATM   31  C   UNL     1       7.911  27.388  57.639  1.00  0.00     0.150 C 
BRANCH  28  32
HETATM   32  C   UNL     1       6.388  24.618  55.379  1.00  0.00     0.276 C 
BRANCH  32  33
HETATM   33  C   UNL     1       7.229  23.522  54.788  1.00  0.00     0.006 A 
HETATM   34  C   UNL     1       8.017  22.716  55.617  1.00  0.00     0.124 A 
HETATM   35  F   UNL     1       7.977  22.917  56.944  1.00  0.00    -0.206 F 
HETATM   36  C   UNL     1       8.798  21.686  55.106  1.00  0.00     0.043 A 
HETATM   37  C   UNL     1       8.809  21.455  53.733  1.00  0.00     0.003 A 
HETATM   38  C   UNL     1       8.044  22.258  52.885  1.00  0.00     0.001 A 
HETATM   39  C   UNL     1       7.260  23.291  53.407  1.00  0.00     0.012 A 
ENDBRANCH  32  33
ENDBRANCH  28  32
ENDBRANCH   4  25
TORSDOF 9
ENDMDL
MODEL 6
REMARK VINA RESULT:      -9.7      2.184      2.815
REMARK  9 active torsions:
REMARK  status: ('A' for Active; 'I' for Inactive)
REMARK    1  A    between atoms: O_2  and  C_3 
REMARK    2  A    between atoms: C_5  and  O_6 
REMARK    3  A    between atoms: C_9  and  C_10 
REMARK       I    between atoms: C_10  and  N_11 
REMARK    4  A    between atoms: N_11  and  C_12 
REMARK    5  A    between atoms: C_12  and  N_13 
REMARK    6  A    between atoms: N_13  and  C_14 
REMARK    7  A    between atoms: C_17  and  N_18 
REMARK    8  A    between atoms: N_21  and  C_23 
REMARK    9  A    between atoms: C_23  and  C_24 
ROOT
HETATM    1  C   UNL     1       6.979  30.897  58.885  1.00  0.00     0.034 A 
HETATM    2  C   UNL     1       7.876  29.850  58.681  1.00  0.00     0.032 A 
HETATM    3  C   UNL     1       7.622  28.844  57.731  1.00  0.00     0.031 A 
HETATM    4  C   UNL     1       6.458  28.832  56.959  1.00  0.00     0.030 A 
HETATM    5  C   UNL     1       5.536  29.861  57.226  1.00  0.00     0.031 A 
HETATM    6  C   UNL     1       5.787  30.875  58.168  1.00  0.00     0.032 A 
ENDROOT
BRANCH   1   7
HETATM    7  N   UNL     1       7.170  31.923  59.844  1.00  0.00    -0.333 N 
HETATM    8  H   UNL     1       7.238  32.862  59.472  1.00  0.00     0.168 HD
BRANCH   7   9
HETATM    9  C   UNL     1       7.463  31.803  61.174  1.00  0.00     0.179 C 
HETATM   10  S   UNL     1       8.944  32.096  61.908  1.00  0.00    -0.040 SA
BRANCH   9  11
HETATM   11  N   UNL     1       6.442  31.396  62.025  1.00  0.00    -0.299 N 
HETATM   12  C   UNL     1       5.448  31.862  62.892  1.00  0.00     0.258 C 
HETATM   13  O   UNL     1       4.628  31.051  63.325  1.00  0.00    -0.267 OA
HETATM   14  H   UNL     1       6.340  30.387  61.970  1.00  0.00     0.171 HD
BRANCH  12  15
HETATM   15  C   UNL     1       5.385  33.244  63.395  1.00  0.00     0.037 A 
HETATM   16  C   UNL     1       5.386  33.577  64.749  1.00  0.00     0.054 A 
HETATM   17  C   UNL     1       5.359  34.924  65.138  1.00  0.00     0.071 A 
HETATM   18  C   UNL     1       5.431  35.931  64.170  1.00  0.00     0.073 A 
HETATM   19  C   UNL     1       5.520  35.592  62.820  1.00  0.00     0.071 A 
HETATM   20  C   UNL     1       5.463  34.257  62.432  1.00  0.00     0.054 A 
BRANCH  17  21
HETATM   21  O   UNL     1       5.259  35.125  66.490  1.00  0.00    -0.356 OA
HETATM   22  C   UNL     1       6.084  34.314  67.320  1.00  0.00     0.210 C 
ENDBRANCH  17  21
BRANCH  19  23
HETATM   23  O   UNL     1       5.617  36.511  61.812  1.00  0.00    -0.356 OA
HETATM   24  C   UNL     1       5.912  37.833  62.265  1.00  0.00     0.210 C 
ENDBRANCH  19  23
ENDBRANCH  12  15
ENDBRANCH   9  11
ENDBRANCH   7   9
ENDBRANCH   1   7
BRANCH   4  25
HETATM   25  N   UNL     1       6.171  27.842  56.019  1.00  0.00    -0.378 N 
HETATM   26  C   UNL     1       5.141  26.815  56.272  1.00  0.00     0.150 C 
HETATM   27  C   UNL     1       5.762  25.513  56.825  1.00  0.00     0.255 C 
HETATM   28  N   UNL     1       6.876  25.022  55.901  1.00  0.00    -0.064 N 
HETATM   29  H   UNL     1       6.447  24.841  54.980  1.00  0.00     0.280 HD
HETATM   30  C   UNL     1       7.927  26.115  55.698  1.00  0.00     0.255 C 
HETATM   31  C   UNL     1       7.265  27.390  55.133  1.00  0.00     0.150 C 
BRANCH  28  32
HETATM   32  C   UNL     1       7.460  23.706  56.353  1.00  0.00     0.276 C 
BRANCH  32  33
HETATM   33  C   UNL     1       7.658  22.711  55.245  1.00  0.00     0.006 A 
HETATM   34  C   UNL     1       7.900  21.366  55.542  1.00  0.00     0.124 A 
HETATM   35  F   UNL     1       7.917  20.980  56.828  1.00  0.00    -0.206 F 
HETATM   36  C   UNL     1       8.077  20.416  54.544  1.00  0.00     0.043 A 
HETATM   37  C   UNL     1       8.022  20.812  53.210  1.00  0.00     0.003 A 
HETATM   38  C   UNL     1       7.798  22.151  52.888  1.00  0.00     0.001 A 
HETATM   39  C   UNL     1       7.620  23.101  53.899  1.00  0.00     0.012 A 
ENDBRANCH  32  33
ENDBRANCH  28  32
ENDBRANCH   4  25
TORSDOF 9
ENDMDL
MODEL 7
REMARK VINA RESULT:      -9.7      2.473      3.564
REMARK  9 active torsions:
REMARK  status: ('A' for Active; 'I' for Inactive)
REMARK    1  A    between atoms: O_2  and  C_3 
REMARK    2  A    between atoms: C_5  and  O_6 
REMARK    3  A    between atoms: C_9  and  C_10 
REMARK       I    between atoms: C_10  and  N_11 
REMARK    4  A    between atoms: N_11  and  C_12 
REMARK    5  A    between atoms: C_12  and  N_13 
REMARK    6  A    between atoms: N_13  and  C_14 
REMARK    7  A    between atoms: C_17  and  N_18 
REMARK    8  A    between atoms: N_21  and  C_23 
REMARK    9  A    between atoms: C_23  and  C_24 
ROOT
HETATM    1  C   UNL     1       7.063  30.717  58.872  1.00  0.00     0.034 A 
HETATM    2  C   UNL     1       5.909  30.786  58.094  1.00  0.00     0.032 A 
HETATM    3  C   UNL     1       5.617  29.805  57.129  1.00  0.00     0.031 A 
HETATM    4  C   UNL     1       6.470  28.725  56.890  1.00  0.00     0.030 A 
HETATM    5  C   UNL     1       7.661  28.709  57.639  1.00  0.00     0.031 A 
HETATM    6  C   UNL     1       7.956  29.682  58.611  1.00  0.00     0.032 A 
ENDROOT
BRANCH   1   7
HETATM    7  N   UNL     1       7.421  31.689  59.839  1.00  0.00    -0.333 N 
HETATM    8  H   UNL     1       7.533  32.633  59.489  1.00  0.00     0.168 HD
BRANCH   7   9
HETATM    9  C   UNL     1       7.819  31.498  61.133  1.00  0.00     0.179 C 
HETATM   10  S   UNL     1       9.393  31.538  61.717  1.00  0.00    -0.040 SA
BRANCH   9  11
HETATM   11  N   UNL     1       6.834  31.240  62.079  1.00  0.00    -0.299 N 
HETATM   12  C   UNL     1       5.581  31.657  62.540  1.00  0.00     0.258 C 
HETATM   13  O   UNL     1       5.004  30.954  63.371  1.00  0.00    -0.267 OA
HETATM   14  H   UNL     1       7.087  30.413  62.612  1.00  0.00     0.171 HD
BRANCH  12  15
HETATM   15  C   UNL     1       4.957  32.937  62.165  1.00  0.00     0.037 A 
HETATM   16  C   UNL     1       5.576  34.177  62.318  1.00  0.00     0.054 A 
HETATM   17  C   UNL     1       4.921  35.343  61.900  1.00  0.00     0.071 A 
HETATM   18  C   UNL     1       3.691  35.253  61.240  1.00  0.00     0.073 A 
HETATM   19  C   UNL     1       3.116  34.003  61.009  1.00  0.00     0.071 A 
HETATM   20  C   UNL     1       3.728  32.854  61.498  1.00  0.00     0.054 A 
BRANCH  17  21
HETATM   21  O   UNL     1       5.581  36.506  62.196  1.00  0.00    -0.356 OA
HETATM   22  C   UNL     1       5.120  37.686  61.544  1.00  0.00     0.210 C 
ENDBRANCH  17  21
BRANCH  19  23
HETATM   23  O   UNL     1       1.929  33.823  60.353  1.00  0.00    -0.356 OA
HETATM   24  C   UNL     1       1.028  34.923  60.481  1.00  0.00     0.210 C 
ENDBRANCH  19  23
ENDBRANCH  12  15
ENDBRANCH   9  11
ENDBRANCH   7   9
ENDBRANCH   1   7
BRANCH   4  25
HETATM   25  N   UNL     1       6.215  27.744  55.932  1.00  0.00    -0.378 N 
HETATM   26  C   UNL     1       5.136  26.753  56.112  1.00  0.00     0.150 C 
HETATM   27  C   UNL     1       5.673  25.431  56.704  1.00  0.00     0.255 C 
HETATM   28  N   UNL     1       6.830  24.902  55.857  1.00  0.00    -0.064 N 
HETATM   29  H   UNL     1       6.459  24.735  54.909  1.00  0.00     0.280 HD
HETATM   30  C   UNL     1       7.930  25.959  55.729  1.00  0.00     0.255 C 
HETATM   31  C   UNL     1       7.351  27.255  55.122  1.00  0.00     0.150 C 
BRANCH  28  32
HETATM   32  C   UNL     1       7.338  23.567  56.346  1.00  0.00     0.276 C 
BRANCH  32  33
HETATM   33  C   UNL     1       7.627  22.583  55.248  1.00  0.00     0.006 A 
HETATM   34  C   UNL     1       7.972  21.264  55.560  1.00  0.00     0.124 A 
HETATM   35  F   UNL     1       8.004  20.890  56.849  1.00  0.00    -0.206 F 
HETATM   36  C   UNL     1       8.235  20.323  54.571  1.00  0.00     0.043 A 
HETATM   37  C   UNL     1       8.164  20.704  53.233  1.00  0.00     0.003 A 
HETATM   38  C   UNL     1       7.838  22.019  52.898  1.00  0.00     0.001 A 
HETATM   39  C   UNL     1       7.574  22.959  53.899  1.00  0.00     0.012 A 
ENDBRANCH  32  33
ENDBRANCH  28  32
ENDBRANCH   4  25
TORSDOF 9
ENDMDL
MODEL 8
REMARK VINA RESULT:      -9.6      6.144      9.317
REMARK  9 active torsions:
REMARK  status: ('A' for Active; 'I' for Inactive)
REMARK    1  A    between atoms: O_2  and  C_3 
REMARK    2  A    between atoms: C_5  and  O_6 
REMARK    3  A    between atoms: C_9  and  C_10 
REMARK       I    between atoms: C_10  and  N_11 
REMARK    4  A    between atoms: N_11  and  C_12 
REMARK    5  A    between atoms: C_12  and  N_13 
REMARK    6  A    between atoms: N_13  and  C_14 
REMARK    7  A    between atoms: C_17  and  N_18 
REMARK    8  A    between atoms: N_21  and  C_23 
REMARK    9  A    between atoms: C_23  and  C_24 
ROOT
HETATM    1  C   UNL     1       4.775  29.846  54.455  1.00  0.00     0.034 A 
HETATM    2  C   UNL     1       4.640  28.523  54.038  1.00  0.00     0.032 A 
HETATM    3  C   UNL     1       4.992  27.451  54.878  1.00  0.00     0.031 A 
HETATM    4  C   UNL     1       5.509  27.655  56.160  1.00  0.00     0.030 A 
HETATM    5  C   UNL     1       5.699  28.997  56.537  1.00  0.00     0.031 A 
HETATM    6  C   UNL     1       5.341  30.074  55.706  1.00  0.00     0.032 A 
ENDROOT
BRANCH   1   7
HETATM    7  N   UNL     1       4.461  30.964  53.643  1.00  0.00    -0.333 N 
HETATM    8  H   UNL     1       4.320  31.837  54.137  1.00  0.00     0.168 HD
BRANCH   7   9
HETATM    9  C   UNL     1       4.136  30.990  52.316  1.00  0.00     0.179 C 
HETATM   10  S   UNL     1       2.595  31.108  51.659  1.00  0.00    -0.040 SA
BRANCH   9  11
HETATM   11  N   UNL     1       5.175  30.910  51.396  1.00  0.00    -0.299 N 
HETATM   12  C   UNL     1       5.632  30.210  50.274  1.00  0.00     0.258 C 
HETATM   13  O   UNL     1       6.613  30.652  49.673  1.00  0.00    -0.267 OA
HETATM   14  H   UNL     1       5.833  31.665  51.563  1.00  0.00     0.171 HD
BRANCH  12  15
HETATM   15  C   UNL     1       5.070  28.924  49.828  1.00  0.00     0.037 A 
HETATM   16  C   UNL     1       4.402  28.748  48.617  1.00  0.00     0.054 A 
HETATM   17  C   UNL     1       3.929  27.479  48.257  1.00  0.00     0.071 A 
HETATM   18  C   UNL     1       4.215  26.373  49.064  1.00  0.00     0.073 A 
HETATM   19  C   UNL     1       4.961  26.540  50.231  1.00  0.00     0.071 A 
HETATM   20  C   UNL     1       5.357  27.812  50.629  1.00  0.00     0.054 A 
BRANCH  17  21
HETATM   21  O   UNL     1       3.200  27.449  47.097  1.00  0.00    -0.356 OA
HETATM   22  C   UNL     1       1.902  26.867  47.172  1.00  0.00     0.210 C 
ENDBRANCH  17  21
BRANCH  19  23
HETATM   23  O   UNL     1       5.305  25.511  51.065  1.00  0.00    -0.356 OA
HETATM   24  C   UNL     1       6.458  25.779  51.863  1.00  0.00     0.210 C 
ENDBRANCH  19  23
ENDBRANCH  12  15
ENDBRANCH   9  11
ENDBRANCH   7   9
ENDBRANCH   1   7
BRANCH   4  25
HETATM   25  N   UNL     1       5.880  26.614  57.011  1.00  0.00    -0.378 N 
HETATM   26  C   UNL     1       7.113  26.683  57.821  1.00  0.00     0.150 C 
HETATM   27  C   UNL     1       8.289  25.963  57.123  1.00  0.00     0.255 C 
HETATM   28  N   UNL     1       7.896  24.532  56.760  1.00  0.00    -0.064 N 
HETATM   29  H   UNL     1       7.664  24.049  57.642  1.00  0.00     0.280 HD
HETATM   30  C   UNL     1       6.630  24.524  55.900  1.00  0.00     0.255 C 
HETATM   31  C   UNL     1       5.480  25.240  56.641  1.00  0.00     0.150 C 
BRANCH  28  32
HETATM   32  C   UNL     1       9.038  23.757  56.151  1.00  0.00     0.276 C 
BRANCH  32  33
HETATM   33  C   UNL     1       8.608  22.672  55.205  1.00  0.00     0.006 A 
HETATM   34  C   UNL     1       8.406  21.370  55.675  1.00  0.00     0.124 A 
HETATM   35  F   UNL     1       8.569  21.121  56.984  1.00  0.00    -0.206 F 
HETATM   36  C   UNL     1       7.997  20.344  54.831  1.00  0.00     0.043 A 
HETATM   37  C   UNL     1       7.792  20.613  53.481  1.00  0.00     0.003 A 
HETATM   38  C   UNL     1       8.004  21.901  52.986  1.00  0.00     0.001 A 
HETATM   39  C   UNL     1       8.414  22.928  53.841  1.00  0.00     0.012 A 
ENDBRANCH  32  33
ENDBRANCH  28  32
ENDBRANCH   4  25
TORSDOF 9
ENDMDL
MODEL 9
REMARK VINA RESULT:      -9.4      5.990      8.940
REMARK  9 active torsions:
REMARK  status: ('A' for Active; 'I' for Inactive)
REMARK    1  A    between atoms: O_2  and  C_3 
REMARK    2  A    between atoms: C_5  and  O_6 
REMARK    3  A    between atoms: C_9  and  C_10 
REMARK       I    between atoms: C_10  and  N_11 
REMARK    4  A    between atoms: N_11  and  C_12 
REMARK    5  A    between atoms: C_12  and  N_13 
REMARK    6  A    between atoms: N_13  and  C_14 
REMARK    7  A    between atoms: C_17  and  N_18 
REMARK    8  A    between atoms: N_21  and  C_23 
REMARK    9  A    between atoms: C_23  and  C_24 
ROOT
HETATM    1  C   UNL     1       4.699  30.234  54.465  1.00  0.00     0.034 A 
HETATM    2  C   UNL     1       5.471  30.391  55.615  1.00  0.00     0.032 A 
HETATM    3  C   UNL     1       5.836  29.289  56.409  1.00  0.00     0.031 A 
HETATM    4  C   UNL     1       5.435  27.987  56.096  1.00  0.00     0.030 A 
HETATM    5  C   UNL     1       4.603  27.857  54.970  1.00  0.00     0.031 A 
HETATM    6  C   UNL     1       4.240  28.954  54.167  1.00  0.00     0.032 A 
ENDROOT
BRANCH   1   7
HETATM    7  N   UNL     1       4.280  31.309  53.643  1.00  0.00    -0.333 N 
HETATM    8  H   UNL     1       4.027  32.159  54.132  1.00  0.00     0.168 HD
BRANCH   7   9
HETATM    9  C   UNL     1       3.990  31.299  52.307  1.00  0.00     0.179 C 
HETATM   10  S   UNL     1       2.463  31.308  51.609  1.00  0.00    -0.040 SA
BRANCH   9  11
HETATM   11  N   UNL     1       5.057  31.276  51.416  1.00  0.00    -0.299 N 
HETATM   12  C   UNL     1       5.704  30.489  50.457  1.00  0.00     0.258 C 
HETATM   13  O   UNL     1       6.584  31.014  49.773  1.00  0.00    -0.267 OA
HETATM   14  H   UNL     1       5.520  32.180  51.422  1.00  0.00     0.171 HD
BRANCH  12  15
HETATM   15  C   UNL     1       5.465  29.047  50.287  1.00  0.00     0.037 A 
HETATM   16  C   UNL     1       5.653  28.104  51.297  1.00  0.00     0.054 A 
HETATM   17  C   UNL     1       5.366  26.754  51.056  1.00  0.00     0.071 A 
HETATM   18  C   UNL     1       4.798  26.368  49.838  1.00  0.00     0.073 A 
HETATM   19  C   UNL     1       4.528  27.328  48.862  1.00  0.00     0.071 A 
HETATM   20  C   UNL     1       4.891  28.654  49.071  1.00  0.00     0.054 A 
BRANCH  17  21
HETATM   21  O   UNL     1       5.687  25.910  52.086  1.00  0.00    -0.356 OA
HETATM   22  C   UNL     1       4.815  24.805  52.303  1.00  0.00     0.210 C 
ENDBRANCH  17  21
BRANCH  19  23
HETATM   23  O   UNL     1       3.954  27.041  47.654  1.00  0.00    -0.356 OA
HETATM   24  C   UNL     1       2.642  27.582  47.498  1.00  0.00     0.210 C 
ENDBRANCH  19  23
ENDBRANCH  12  15
ENDBRANCH   9  11
ENDBRANCH   7   9
ENDBRANCH   1   7
BRANCH   4  25
HETATM   25  N   UNL     1       5.769  26.876  56.870  1.00  0.00    -0.378 N 
HETATM   26  C   UNL     1       6.975  26.865  57.722  1.00  0.00     0.150 C 
HETATM   27  C   UNL     1       8.168  26.193  57.006  1.00  0.00     0.255 C 
HETATM   28  N   UNL     1       7.776  24.801  56.514  1.00  0.00    -0.064 N 
HETATM   29  H   UNL     1       7.512  24.250  57.345  1.00  0.00     0.280 HD
HETATM   30  C   UNL     1       6.540  24.877  55.615  1.00  0.00     0.255 C 
HETATM   31  C   UNL     1       5.372  25.542  56.374  1.00  0.00     0.150 C 
BRANCH  28  32
HETATM   32  C   UNL     1       8.933  24.068  55.880  1.00  0.00     0.276 C 
BRANCH  32  33
HETATM   33  C   UNL     1       8.537  22.821  55.141  1.00  0.00     0.006 A 
HETATM   34  C   UNL     1       8.260  21.644  55.845  1.00  0.00     0.124 A 
HETATM   35  F   UNL     1       8.320  21.663  57.186  1.00  0.00    -0.206 F 
HETATM   36  C   UNL     1       7.880  20.476  55.196  1.00  0.00     0.043 A 
HETATM   37  C   UNL     1       7.782  20.469  53.807  1.00  0.00     0.003 A 
HETATM   38  C   UNL     1       8.070  21.627  53.082  1.00  0.00     0.001 A 
HETATM   39  C   UNL     1       8.450  22.799  53.743  1.00  0.00     0.012 A 
ENDBRANCH  32  33
ENDBRANCH  28  32
ENDBRANCH   4  25
TORSDOF 9
ENDMDL
MODEL 10
REMARK VINA RESULT:      -9.2      1.836      2.924
REMARK  9 active torsions:
REMARK  status: ('A' for Active; 'I' for Inactive)
REMARK    1  A    between atoms: O_2  and  C_3 
REMARK    2  A    between atoms: C_5  and  O_6 
REMARK    3  A    between atoms: C_9  and  C_10 
REMARK       I    between atoms: C_10  and  N_11 
REMARK    4  A    between atoms: N_11  and  C_12 
REMARK    5  A    between atoms: C_12  and  N_13 
REMARK    6  A    between atoms: N_13  and  C_14 
REMARK    7  A    between atoms: C_17  and  N_18 
REMARK    8  A    between atoms: N_21  and  C_23 
REMARK    9  A    between atoms: C_23  and  C_24 
ROOT
HETATM    1  C   UNL     1       5.954  30.867  58.254  1.00  0.00     0.034 A 
HETATM    2  C   UNL     1       4.726  30.593  57.655  1.00  0.00     0.032 A 
HETATM    3  C   UNL     1       4.500  29.387  56.967  1.00  0.00     0.031 A 
HETATM    4  C   UNL     1       5.493  28.414  56.835  1.00  0.00     0.030 A 
HETATM    5  C   UNL     1       6.745  28.737  57.390  1.00  0.00     0.031 A 
HETATM    6  C   UNL     1       6.976  29.938  58.086  1.00  0.00     0.032 A 
ENDROOT
BRANCH   1   7
HETATM    7  N   UNL     1       6.246  32.074  58.937  1.00  0.00    -0.333 N 
HETATM    8  H   UNL     1       6.935  32.671  58.495  1.00  0.00     0.168 HD
BRANCH   7   9
HETATM    9  C   UNL     1       5.871  32.454  60.195  1.00  0.00     0.179 C 
HETATM   10  S   UNL     1       4.323  32.864  60.703  1.00  0.00    -0.040 SA
BRANCH   9  11
HETATM   11  N   UNL     1       6.859  32.517  61.171  1.00  0.00    -0.299 N 
HETATM   12  C   UNL     1       7.120  32.932  62.481  1.00  0.00     0.258 C 
HETATM   13  O   UNL     1       8.191  32.600  62.993  1.00  0.00    -0.267 OA
HETATM   14  H   UNL     1       7.696  32.050  60.834  1.00  0.00     0.171 HD
BRANCH  12  15
HETATM   15  C   UNL     1       6.234  33.823  63.249  1.00  0.00     0.037 A 
HETATM   16  C   UNL     1       5.627  33.465  64.452  1.00  0.00     0.054 A 
HETATM   17  C   UNL     1       4.826  34.391  65.134  1.00  0.00     0.071 A 
HETATM   18  C   UNL     1       4.717  35.702  64.658  1.00  0.00     0.073 A 
HETATM   19  C   UNL     1       5.398  36.080  63.502  1.00  0.00     0.071 A 
HETATM   20  C   UNL     1       6.125  35.138  62.782  1.00  0.00     0.054 A 
BRANCH  17  21
HETATM   21  O   UNL     1       4.201  33.894  66.247  1.00  0.00    -0.356 OA
HETATM   22  C   UNL     1       4.771  34.237  67.507  1.00  0.00     0.210 C 
ENDBRANCH  17  21
BRANCH  19  23
HETATM   23  O   UNL     1       5.364  37.345  62.982  1.00  0.00    -0.356 OA
HETATM   24  C   UNL     1       5.996  38.324  63.808  1.00  0.00     0.210 C 
ENDBRANCH  19  23
ENDBRANCH  12  15
ENDBRANCH   9  11
ENDBRANCH   7   9
ENDBRANCH   1   7
BRANCH   4  25
HETATM   25  N   UNL     1       5.304  27.214  56.148  1.00  0.00    -0.378 N 
HETATM   26  C   UNL     1       5.062  25.946  56.863  1.00  0.00     0.150 C 
HETATM   27  C   UNL     1       6.368  25.141  57.047  1.00  0.00     0.255 C 
HETATM   28  N   UNL     1       7.062  24.940  55.701  1.00  0.00    -0.064 N 
HETATM   29  H   UNL     1       6.409  24.414  55.100  1.00  0.00     0.280 HD
HETATM   30  C   UNL     1       7.313  26.287  55.019  1.00  0.00     0.255 C 
HETATM   31  C   UNL     1       5.982  27.049  54.844  1.00  0.00     0.150 C 
BRANCH  28  32
HETATM   32  C   UNL     1       8.301  24.087  55.814  1.00  0.00     0.276 C 
BRANCH  32  33
HETATM   33  C   UNL     1       8.234  22.803  55.037  1.00  0.00     0.006 A 
HETATM   34  C   UNL     1       8.300  21.574  55.703  1.00  0.00     0.124 A 
HETATM   35  F   UNL     1       8.389  21.567  57.043  1.00  0.00    -0.206 F 
HETATM   36  C   UNL     1       8.230  20.366  55.019  1.00  0.00     0.043 A 
HETATM   37  C   UNL     1       8.100  20.376  53.632  1.00  0.00     0.003 A 
HETATM   38  C   UNL     1       8.049  21.590  52.945  1.00  0.00     0.001 A 
HETATM   39  C   UNL     1       8.119  22.800  53.641  1.00  0.00     0.012 A 
ENDBRANCH  32  33
ENDBRANCH  28  32
ENDBRANCH   4  25
TORSDOF 9
ENDMDL
