MODEL 1
REMARK VINA RESULT:     -10.8      0.000      0.000
REMARK  4 active torsions:
REMARK  status: ('A' for Active; 'I' for Inactive)
REMARK    1  A    between atoms: C_8  and  C_9 
REMARK    2  A    between atoms: N_10  and  N_11 
REMARK       I    between atoms: N_11  and  C_12 
REMARK    3  A    between atoms: C_12  and  C_13 
REMARK    4  A    between atoms: C_17  and  C_18 
ROOT
HETATM    1  N   UNL     1       7.875  28.575  58.220  1.00  0.00    -0.242 N 
HETATM    2  C   UNL     1       8.554  29.784  58.244  1.00  0.00     0.292 C 
HETATM    3  O   UNL     1       9.581  30.040  57.619  1.00  0.00    -0.264 OA
HETATM    4  H   UNL     1       7.032  28.502  58.784  1.00  0.00     0.192 HD
ENDROOT
BRANCH   2   5
HETATM    5  C   UNL     1       7.906  30.779  59.114  1.00  0.00     0.148 A 
HETATM    6  N   UNL     1       7.172  31.805  58.636  1.00  0.00    -0.169 NA
HETATM    7  N   UNL     1       6.777  32.459  59.746  1.00  0.00    -0.277 N 
HETATM    8  H   UNL     1       6.216  33.297  59.634  1.00  0.00     0.189 HD
HETATM    9  C   UNL     1       7.213  31.904  60.922  1.00  0.00     0.063 A 
HETATM   10  C   UNL     1       7.956  30.809  60.530  1.00  0.00     0.071 A 
BRANCH   9  11
HETATM   11  C   UNL     1       6.923  32.441  62.253  1.00  0.00    -0.005 A 
HETATM   12  C   UNL     1       5.605  32.635  62.690  1.00  0.00     0.053 A 
HETATM   13  C   UNL     1       5.404  33.128  63.965  1.00  0.00     0.106 A 
HETATM   14  C   UNL     1       6.451  33.429  64.803  1.00  0.00     0.105 A 
HETATM   15  O   UNL     1       4.196  33.364  64.542  1.00  0.00    -0.323 OA
HETATM   16  O   UNL     1       6.035  33.894  66.010  1.00  0.00    -0.323 OA
HETATM   17  C   UNL     1       7.759  33.256  64.413  1.00  0.00     0.040 A 
HETATM   18  C   UNL     1       4.604  33.836  65.845  1.00  0.00     0.352 A 
HETATM   19  C   UNL     1       7.991  32.755  63.127  1.00  0.00     0.017 A 
ENDBRANCH   9  11
ENDBRANCH   2   5
BRANCH   1  20
HETATM   20  N   UNL     1       8.329  27.543  57.456  1.00  0.00    -0.183 NA
HETATM   21  C   UNL     1       7.620  26.461  57.474  1.00  0.00     0.152 C 
BRANCH  21  22
HETATM   22  C   UNL     1       8.053  25.330  56.678  1.00  0.00     0.011 A 
HETATM   23  C   UNL     1       7.652  24.980  55.349  1.00  0.00     0.004 A 
HETATM   24  C   UNL     1       6.773  25.546  54.400  1.00  0.00     0.014 A 
HETATM   25  C   UNL     1       8.334  23.812  55.001  1.00  0.00     0.043 A 
HETATM   26  C   UNL     1       6.610  24.929  53.153  1.00  0.00     0.001 A 
HETATM   27  C   UNL     1       7.306  23.765  52.840  1.00  0.00     0.002 A 
HETATM   28  C   UNL     1       8.183  23.182  53.759  1.00  0.00     0.030 A 
HETATM   29  N   UNL     1       9.118  23.462  56.076  1.00  0.00    -0.364 N 
HETATM   30  H   UNL     1       9.724  22.654  56.108  1.00  0.00     0.165 HD
HETATM   31  C   UNL     1       8.958  24.366  57.086  1.00  0.00     0.102 A 
ENDBRANCH  21  22
ENDBRANCH   1  20
TORSDOF 4
ENDMDL
MODEL 2
REMARK VINA RESULT:     -10.7      1.577      2.012
REMARK  4 active torsions:
REMARK  status: ('A' for Active; 'I' for Inactive)
REMARK    1  A    between atoms: C_8  and  C_9 
REMARK    2  A    between atoms: N_10  and  N_11 
REMARK       I    between atoms: N_11  and  C_12 
REMARK    3  A    between atoms: C_12  and  C_13 
REMARK    4  A    between atoms: C_17  and  C_18 
ROOT
HETATM    1  N   UNL     1       7.629  29.287  58.419  1.00  0.00    -0.242 N 
HETATM    2  C   UNL     1       8.564  30.222  58.835  1.00  0.00     0.292 C 
HETATM    3  O   UNL     1       9.447  30.711  58.134  1.00  0.00    -0.264 OA
HETATM    4  H   UNL     1       6.949  28.969  59.105  1.00  0.00     0.192 HD
ENDROOT
BRANCH   2   5
HETATM    5  C   UNL     1       8.396  30.600  60.248  1.00  0.00     0.148 A 
HETATM    6  N   UNL     1       9.086  30.017  61.250  1.00  0.00    -0.169 NA
HETATM    7  N   UNL     1       8.633  30.643  62.355  1.00  0.00    -0.277 N 
HETATM    8  H   UNL     1       9.003  30.352  63.255  1.00  0.00     0.189 HD
HETATM    9  C   UNL     1       7.688  31.608  62.119  1.00  0.00     0.063 A 
HETATM   10  C   UNL     1       7.515  31.591  60.750  1.00  0.00     0.071 A 
BRANCH   9  11
HETATM   11  C   UNL     1       7.041  32.411  63.158  1.00  0.00    -0.005 A 
HETATM   12  C   UNL     1       5.646  32.534  63.222  1.00  0.00     0.053 A 
HETATM   13  C   UNL     1       5.102  33.293  64.241  1.00  0.00     0.106 A 
HETATM   14  C   UNL     1       5.885  33.920  65.179  1.00  0.00     0.105 A 
HETATM   15  O   UNL     1       3.775  33.505  64.449  1.00  0.00    -0.323 OA
HETATM   16  O   UNL     1       5.152  34.608  66.094  1.00  0.00    -0.323 OA
HETATM   17  C   UNL     1       7.257  33.827  65.152  1.00  0.00     0.040 A 
HETATM   18  C   UNL     1       3.814  34.328  65.635  1.00  0.00     0.352 A 
HETATM   19  C   UNL     1       7.835  33.063  64.132  1.00  0.00     0.017 A 
ENDBRANCH   9  11
ENDBRANCH   2   5
BRANCH   1  20
HETATM   20  N   UNL     1       7.630  28.833  57.135  1.00  0.00    -0.183 NA
HETATM   21  C   UNL     1       7.392  27.572  56.972  1.00  0.00     0.152 C 
BRANCH  21  22
HETATM   22  C   UNL     1       7.379  27.032  55.628  1.00  0.00     0.011 A 
HETATM   23  C   UNL     1       7.381  25.656  55.229  1.00  0.00     0.004 A 
HETATM   24  C   UNL     1       7.393  24.426  55.922  1.00  0.00     0.014 A 
HETATM   25  C   UNL     1       7.364  25.626  53.832  1.00  0.00     0.043 A 
HETATM   26  C   UNL     1       7.388  23.226  55.200  1.00  0.00     0.001 A 
HETATM   27  C   UNL     1       7.372  23.233  53.808  1.00  0.00     0.002 A 
HETATM   28  C   UNL     1       7.360  24.435  53.095  1.00  0.00     0.030 A 
HETATM   29  N   UNL     1       7.356  26.931  53.397  1.00  0.00    -0.364 N 
HETATM   30  H   UNL     1       7.343  27.215  52.427  1.00  0.00     0.165 HD
HETATM   31  C   UNL     1       7.363  27.781  54.465  1.00  0.00     0.102 A 
ENDBRANCH  21  22
ENDBRANCH   1  20
TORSDOF 4
ENDMDL
MODEL 3
REMARK VINA RESULT:     -10.2      1.610      2.289
REMARK  4 active torsions:
REMARK  status: ('A' for Active; 'I' for Inactive)
REMARK    1  A    between atoms: C_8  and  C_9 
REMARK    2  A    between atoms: N_10  and  N_11 
REMARK       I    between atoms: N_11  and  C_12 
REMARK    3  A    between atoms: C_12  and  C_13 
REMARK    4  A    between atoms: C_17  and  C_18 
ROOT
HETATM    1  N   UNL     1       8.105  28.378  56.857  1.00  0.00    -0.242 N 
HETATM    2  C   UNL     1       9.052  29.385  56.742  1.00  0.00     0.292 C 
HETATM    3  O   UNL     1       9.807  29.551  55.787  1.00  0.00    -0.264 OA
HETATM    4  H   UNL     1       7.542  28.360  57.703  1.00  0.00     0.192 HD
ENDROOT
BRANCH   2   5
HETATM    5  C   UNL     1       9.069  30.279  57.911  1.00  0.00     0.148 A 
HETATM    6  N   UNL     1      10.084  31.128  58.171  1.00  0.00    -0.169 NA
HETATM    7  N   UNL     1       9.706  31.740  59.311  1.00  0.00    -0.277 N 
HETATM    8  H   UNL     1      10.336  32.423  59.719  1.00  0.00     0.189 HD
HETATM    9  C   UNL     1       8.491  31.335  59.800  1.00  0.00     0.063 A 
HETATM   10  C   UNL     1       8.062  30.378  58.903  1.00  0.00     0.071 A 
BRANCH   9  11
HETATM   11  C   UNL     1       7.877  31.845  61.027  1.00  0.00    -0.005 A 
HETATM   12  C   UNL     1       6.520  32.200  61.070  1.00  0.00     0.053 A 
HETATM   13  C   UNL     1       6.002  32.657  62.267  1.00  0.00     0.106 A 
HETATM   14  C   UNL     1       6.772  32.770  63.399  1.00  0.00     0.105 A 
HETATM   15  O   UNL     1       4.712  33.033  62.480  1.00  0.00    -0.323 OA
HETATM   16  O   UNL     1       6.068  33.233  64.465  1.00  0.00    -0.323 OA
HETATM   17  C   UNL     1       8.107  32.435  63.400  1.00  0.00     0.040 A 
HETATM   18  C   UNL     1       4.758  33.382  63.880  1.00  0.00     0.352 A 
HETATM   19  C   UNL     1       8.658  31.967  62.201  1.00  0.00     0.017 A 
ENDBRANCH   9  11
ENDBRANCH   2   5
BRANCH   1  20
HETATM   20  N   UNL     1       7.945  27.465  55.858  1.00  0.00    -0.183 NA
HETATM   21  C   UNL     1       7.147  26.477  56.108  1.00  0.00     0.152 C 
BRANCH  21  22
HETATM   22  C   UNL     1       6.935  25.475  55.082  1.00  0.00     0.011 A 
HETATM   23  C   UNL     1       7.663  24.260  54.872  1.00  0.00     0.004 A 
HETATM   24  C   UNL     1       8.753  23.636  55.518  1.00  0.00     0.014 A 
HETATM   25  C   UNL     1       7.097  23.620  53.767  1.00  0.00     0.043 A 
HETATM   26  C   UNL     1       9.230  22.409  55.039  1.00  0.00     0.001 A 
HETATM   27  C   UNL     1       8.642  21.800  53.934  1.00  0.00     0.002 A 
HETATM   28  C   UNL     1       7.563  22.394  53.275  1.00  0.00     0.030 A 
HETATM   29  N   UNL     1       6.067  24.415  53.320  1.00  0.00    -0.364 N 
HETATM   30  H   UNL     1       5.476  24.201  52.528  1.00  0.00     0.165 HD
HETATM   31  C   UNL     1       5.961  25.529  54.101  1.00  0.00     0.102 A 
ENDBRANCH  21  22
ENDBRANCH   1  20
TORSDOF 4
ENDMDL
MODEL 4
REMARK VINA RESULT:      -9.8      2.805     10.914
REMARK  4 active torsions:
REMARK  status: ('A' for Active; 'I' for Inactive)
REMARK    1  A    between atoms: C_8  and  C_9 
REMARK    2  A    between atoms: N_10  and  N_11 
REMARK       I    between atoms: N_11  and  C_12 
REMARK    3  A    between atoms: C_12  and  C_13 
REMARK    4  A    between atoms: C_17  and  C_18 
ROOT
HETATM    1  N   UNL     1       6.909  31.004  58.233  1.00  0.00    -0.242 N 
HETATM    2  C   UNL     1       7.737  29.915  58.459  1.00  0.00     0.292 C 
HETATM    3  O   UNL     1       8.457  29.757  59.443  1.00  0.00    -0.264 OA
HETATM    4  H   UNL     1       6.362  31.005  57.376  1.00  0.00     0.192 HD
ENDROOT
BRANCH   2   5
HETATM    5  C   UNL     1       7.671  28.920  57.377  1.00  0.00     0.148 A 
HETATM    6  N   UNL     1       7.501  29.256  56.082  1.00  0.00    -0.169 NA
HETATM    7  N   UNL     1       7.494  28.069  55.442  1.00  0.00    -0.277 N 
HETATM    8  H   UNL     1       7.356  28.068  54.437  1.00  0.00     0.189 HD
HETATM    9  C   UNL     1       7.657  26.979  56.259  1.00  0.00     0.063 A 
HETATM   10  C   UNL     1       7.769  27.514  57.526  1.00  0.00     0.071 A 
BRANCH   9  11
HETATM   11  C   UNL     1       7.670  25.590  55.798  1.00  0.00    -0.005 A 
HETATM   12  C   UNL     1       7.982  24.536  56.670  1.00  0.00     0.053 A 
HETATM   13  C   UNL     1       7.957  23.247  56.172  1.00  0.00     0.106 A 
HETATM   14  C   UNL     1       7.640  22.977  54.863  1.00  0.00     0.105 A 
HETATM   15  O   UNL     1       8.224  22.118  56.882  1.00  0.00    -0.323 OA
HETATM   16  O   UNL     1       7.670  21.648  54.582  1.00  0.00    -0.323 OA
HETATM   17  C   UNL     1       7.330  23.982  53.975  1.00  0.00     0.040 A 
HETATM   18  C   UNL     1       8.025  21.107  55.871  1.00  0.00     0.352 A 
HETATM   19  C   UNL     1       7.345  25.297  54.452  1.00  0.00     0.017 A 
ENDBRANCH   9  11
ENDBRANCH   2   5
BRANCH   1  20
HETATM   20  N   UNL     1       6.837  32.018  59.141  1.00  0.00    -0.183 NA
HETATM   21  C   UNL     1       5.788  32.036  59.898  1.00  0.00     0.152 C 
BRANCH  21  22
HETATM   22  C   UNL     1       5.657  33.090  60.884  1.00  0.00     0.011 A 
HETATM   23  C   UNL     1       6.316  33.200  62.151  1.00  0.00     0.004 A 
HETATM   24  C   UNL     1       7.249  32.405  62.852  1.00  0.00     0.014 A 
HETATM   25  C   UNL     1       5.876  34.383  62.748  1.00  0.00     0.043 A 
HETATM   26  C   UNL     1       7.703  32.821  64.110  1.00  0.00     0.001 A 
HETATM   27  C   UNL     1       7.243  34.006  64.677  1.00  0.00     0.002 A 
HETATM   28  C   UNL     1       6.319  34.812  64.006  1.00  0.00     0.030 A 
HETATM   29  N   UNL     1       4.984  34.970  61.881  1.00  0.00    -0.364 N 
HETATM   30  H   UNL     1       4.503  35.843  62.052  1.00  0.00     0.165 HD
HETATM   31  C   UNL     1       4.846  34.204  60.761  1.00  0.00     0.102 A 
ENDBRANCH  21  22
ENDBRANCH   1  20
TORSDOF 4
ENDMDL
MODEL 5
REMARK VINA RESULT:      -9.7      2.591     10.693
REMARK  4 active torsions:
REMARK  status: ('A' for Active; 'I' for Inactive)
REMARK    1  A    between atoms: C_8  and  C_9 
REMARK    2  A    between atoms: N_10  and  N_11 
REMARK       I    between atoms: N_11  and  C_12 
REMARK    3  A    between atoms: C_12  and  C_13 
REMARK    4  A    between atoms: C_17  and  C_18 
ROOT
HETATM    1  N   UNL     1       7.430  31.150  60.200  1.00  0.00    -0.242 N 
HETATM    2  C   UNL     1       8.466  31.382  59.307  1.00  0.00     0.292 C 
HETATM    3  O   UNL     1       9.139  32.408  59.244  1.00  0.00    -0.264 OA
HETATM    4  H   UNL     1       6.958  30.251  60.145  1.00  0.00     0.192 HD
ENDROOT
BRANCH   2   5
HETATM    5  C   UNL     1       8.703  30.241  58.409  1.00  0.00     0.148 A 
HETATM    6  N   UNL     1       9.814  30.120  57.654  1.00  0.00    -0.169 NA
HETATM    7  N   UNL     1       9.628  28.959  56.995  1.00  0.00    -0.277 N 
HETATM    8  H   UNL     1      10.342  28.662  56.337  1.00  0.00     0.189 HD
HETATM    9  C   UNL     1       8.453  28.317  57.290  1.00  0.00     0.063 A 
HETATM   10  C   UNL     1       7.833  29.140  58.207  1.00  0.00     0.071 A 
BRANCH   9  11
HETATM   11  C   UNL     1       8.024  27.051  56.693  1.00  0.00    -0.005 A 
HETATM   12  C   UNL     1       7.524  26.995  55.383  1.00  0.00     0.053 A 
HETATM   13  C   UNL     1       7.156  25.763  54.876  1.00  0.00     0.106 A 
HETATM   14  C   UNL     1       7.266  24.609  55.614  1.00  0.00     0.105 A 
HETATM   15  O   UNL     1       6.663  25.535  53.630  1.00  0.00    -0.323 OA
HETATM   16  O   UNL     1       6.855  23.511  54.927  1.00  0.00    -0.323 OA
HETATM   17  C   UNL     1       7.750  24.620  56.902  1.00  0.00     0.040 A 
HETATM   18  C   UNL     1       6.489  24.102  53.664  1.00  0.00     0.352 A 
HETATM   19  C   UNL     1       8.133  25.854  57.440  1.00  0.00     0.017 A 
ENDBRANCH   9  11
ENDBRANCH   2   5
BRANCH   1  20
HETATM   20  N   UNL     1       7.081  32.099  61.114  1.00  0.00    -0.183 NA
HETATM   21  C   UNL     1       7.272  31.795  62.357  1.00  0.00     0.152 C 
BRANCH  21  22
HETATM   22  C   UNL     1       6.921  32.765  63.374  1.00  0.00     0.011 A 
HETATM   23  C   UNL     1       5.654  33.397  63.592  1.00  0.00     0.004 A 
HETATM   24  C   UNL     1       4.392  33.323  62.964  1.00  0.00     0.014 A 
HETATM   25  C   UNL     1       5.797  34.254  64.686  1.00  0.00     0.043 A 
HETATM   26  C   UNL     1       3.332  34.100  63.449  1.00  0.00     0.001 A 
HETATM   27  C   UNL     1       3.510  34.944  64.541  1.00  0.00     0.002 A 
HETATM   28  C   UNL     1       4.748  35.038  65.182  1.00  0.00     0.030 A 
HETATM   29  N   UNL     1       7.100  34.150  65.116  1.00  0.00    -0.364 N 
HETATM   30  H   UNL     1       7.491  34.659  65.897  1.00  0.00     0.165 HD
HETATM   31  C   UNL     1       7.781  33.260  64.338  1.00  0.00     0.102 A 
ENDBRANCH  21  22
ENDBRANCH   1  20
TORSDOF 4
ENDMDL
MODEL 6
REMARK VINA RESULT:      -9.4      8.690     12.876
REMARK  4 active torsions:
REMARK  status: ('A' for Active; 'I' for Inactive)
REMARK    1  A    between atoms: C_8  and  C_9 
REMARK    2  A    between atoms: N_10  and  N_11 
REMARK       I    between atoms: N_11  and  C_12 
REMARK    3  A    between atoms: C_12  and  C_13 
REMARK    4  A    between atoms: C_17  and  C_18 
ROOT
HETATM    1  N   UNL     1       4.691  25.443  51.375  1.00  0.00    -0.242 N 
HETATM    2  C   UNL     1       5.006  26.703  50.889  1.00  0.00     0.292 C 
HETATM    3  O   UNL     1       5.734  27.522  51.446  1.00  0.00    -0.264 OA
HETATM    4  H   UNL     1       4.078  24.864  50.807  1.00  0.00     0.192 HD
ENDROOT
BRANCH   2   5
HETATM    5  C   UNL     1       4.372  26.983  49.592  1.00  0.00     0.148 A 
HETATM    6  N   UNL     1       4.798  26.440  48.433  1.00  0.00    -0.169 NA
HETATM    7  N   UNL     1       3.960  26.954  47.511  1.00  0.00    -0.277 N 
HETATM    8  H   UNL     1       4.102  26.698  46.539  1.00  0.00     0.189 HD
HETATM    9  C   UNL     1       3.006  27.800  48.015  1.00  0.00     0.063 A 
HETATM   10  C   UNL     1       3.261  27.836  49.371  1.00  0.00     0.071 A 
BRANCH   9  11
HETATM   11  C   UNL     1       1.995  28.488  47.210  1.00  0.00    -0.005 A 
HETATM   12  C   UNL     1       0.819  27.839  46.806  1.00  0.00     0.053 A 
HETATM   13  C   UNL     1      -0.101  28.554  46.063  1.00  0.00     0.106 A 
HETATM   14  C   UNL     1       0.107  29.867  45.715  1.00  0.00     0.105 A 
HETATM   15  O   UNL     1      -1.288  28.078  45.602  1.00  0.00    -0.323 OA
HETATM   16  O   UNL     1      -0.920  30.382  44.990  1.00  0.00    -0.323 OA
HETATM   17  C   UNL     1       1.247  30.540  46.088  1.00  0.00     0.040 A 
HETATM   18  C   UNL     1      -1.809  29.249  44.936  1.00  0.00     0.352 A 
HETATM   19  C   UNL     1       2.195  29.840  46.844  1.00  0.00     0.017 A 
ENDBRANCH   9  11
ENDBRANCH   2   5
BRANCH   1  20
HETATM   20  N   UNL     1       5.202  25.012  52.562  1.00  0.00    -0.183 NA
HETATM   21  C   UNL     1       6.300  24.331  52.500  1.00  0.00     0.152 C 
BRANCH  21  22
HETATM   22  C   UNL     1       6.892  23.848  53.731  1.00  0.00     0.011 A 
HETATM   23  C   UNL     1       7.554  22.599  53.961  1.00  0.00     0.004 A 
HETATM   24  C   UNL     1       7.855  21.477  53.159  1.00  0.00     0.014 A 
HETATM   25  C   UNL     1       7.957  22.580  55.299  1.00  0.00     0.043 A 
HETATM   26  C   UNL     1       8.539  20.390  53.719  1.00  0.00     0.001 A 
HETATM   27  C   UNL     1       8.925  20.405  55.057  1.00  0.00     0.002 A 
HETATM   28  C   UNL     1       8.641  21.502  55.874  1.00  0.00     0.030 A 
HETATM   29  N   UNL     1       7.554  23.769  55.862  1.00  0.00    -0.364 N 
HETATM   30  H   UNL     1       7.711  24.033  56.825  1.00  0.00     0.165 HD
HETATM   31  C   UNL     1       6.916  24.536  54.931  1.00  0.00     0.102 A 
ENDBRANCH  21  22
ENDBRANCH   1  20
TORSDOF 4
ENDMDL
MODEL 7
REMARK VINA RESULT:      -9.3      2.699     10.825
REMARK  4 active torsions:
REMARK  status: ('A' for Active; 'I' for Inactive)
REMARK    1  A    between atoms: C_8  and  C_9 
REMARK    2  A    between atoms: N_10  and  N_11 
REMARK       I    between atoms: N_11  and  C_12 
REMARK    3  A    between atoms: C_12  and  C_13 
REMARK    4  A    between atoms: C_17  and  C_18 
ROOT
HETATM    1  N   UNL     1       6.325  31.544  60.157  1.00  0.00    -0.242 N 
HETATM    2  C   UNL     1       7.365  31.536  59.239  1.00  0.00     0.292 C 
HETATM    3  O   UNL     1       8.341  32.283  59.258  1.00  0.00    -0.264 OA
HETATM    4  H   UNL     1       5.580  30.866  60.024  1.00  0.00     0.192 HD
ENDROOT
BRANCH   2   5
HETATM    5  C   UNL     1       7.193  30.508  58.200  1.00  0.00     0.148 A 
HETATM    6  N   UNL     1       6.514  30.729  57.056  1.00  0.00    -0.169 NA
HETATM    7  N   UNL     1       6.595  29.551  56.405  1.00  0.00    -0.277 N 
HETATM    8  H   UNL     1       6.130  29.467  55.506  1.00  0.00     0.189 HD
HETATM    9  C   UNL     1       7.299  28.578  57.068  1.00  0.00     0.063 A 
HETATM   10  C   UNL     1       7.693  29.183  58.244  1.00  0.00     0.071 A 
BRANCH   9  11
HETATM   11  C   UNL     1       7.511  27.219  56.569  1.00  0.00    -0.005 A 
HETATM   12  C   UNL     1       8.041  26.214  57.392  1.00  0.00     0.053 A 
HETATM   13  C   UNL     1       8.198  24.948  56.861  1.00  0.00     0.106 A 
HETATM   14  C   UNL     1       7.851  24.654  55.564  1.00  0.00     0.105 A 
HETATM   15  O   UNL     1       8.687  23.866  57.524  1.00  0.00    -0.323 OA
HETATM   16  O   UNL     1       8.080  23.354  55.246  1.00  0.00    -0.323 OA
HETATM   17  C   UNL     1       7.330  25.610  54.723  1.00  0.00     0.040 A 
HETATM   18  C   UNL     1       8.595  22.855  56.497  1.00  0.00     0.352 A 
HETATM   19  C   UNL     1       7.159  26.901  55.236  1.00  0.00     0.017 A 
ENDBRANCH   9  11
ENDBRANCH   2   5
BRANCH   1  20
HETATM   20  N   UNL     1       6.327  32.426  61.196  1.00  0.00    -0.183 NA
HETATM   21  C   UNL     1       6.551  31.930  62.369  1.00  0.00     0.152 C 
BRANCH  21  22
HETATM   22  C   UNL     1       6.567  32.821  63.512  1.00  0.00     0.011 A 
HETATM   23  C   UNL     1       5.476  33.566  64.065  1.00  0.00     0.004 A 
HETATM   24  C   UNL     1       4.108  33.704  63.743  1.00  0.00     0.014 A 
HETATM   25  C   UNL     1       5.971  34.281  65.159  1.00  0.00     0.043 A 
HETATM   26  C   UNL     1       3.296  34.542  64.519  1.00  0.00     0.001 A 
HETATM   27  C   UNL     1       3.824  35.239  65.602  1.00  0.00     0.002 A 
HETATM   28  C   UNL     1       5.173  35.122  65.944  1.00  0.00     0.030 A 
HETATM   29  N   UNL     1       7.310  33.984  65.267  1.00  0.00    -0.364 N 
HETATM   30  H   UNL     1       7.929  34.359  65.973  1.00  0.00     0.165 HD
HETATM   31  C   UNL     1       7.677  33.109  64.285  1.00  0.00     0.102 A 
ENDBRANCH  21  22
ENDBRANCH   1  20
TORSDOF 4
ENDMDL
MODEL 8
REMARK VINA RESULT:      -9.1      8.358     11.070
REMARK  4 active torsions:
REMARK  status: ('A' for Active; 'I' for Inactive)
REMARK    1  A    between atoms: C_8  and  C_9 
REMARK    2  A    between atoms: N_10  and  N_11 
REMARK       I    between atoms: N_11  and  C_12 
REMARK    3  A    between atoms: C_12  and  C_13 
REMARK    4  A    between atoms: C_17  and  C_18 
ROOT
HETATM    1  N   UNL     1       6.048  26.251  52.778  1.00  0.00    -0.242 N 
HETATM    2  C   UNL     1       5.221  25.779  51.770  1.00  0.00     0.292 C 
HETATM    3  O   UNL     1       4.650  24.691  51.764  1.00  0.00    -0.264 OA
HETATM    4  H   UNL     1       6.453  27.175  52.656  1.00  0.00     0.192 HD
ENDROOT
BRANCH   2   5
HETATM    5  C   UNL     1       5.074  26.739  50.664  1.00  0.00     0.148 A 
HETATM    6  N   UNL     1       4.637  26.385  49.439  1.00  0.00    -0.169 NA
HETATM    7  N   UNL     1       4.658  27.542  48.746  1.00  0.00    -0.277 N 
HETATM    8  H   UNL     1       4.382  27.520  47.769  1.00  0.00     0.189 HD
HETATM    9  C   UNL     1       5.081  28.631  49.464  1.00  0.00     0.063 A 
HETATM   10  C   UNL     1       5.362  28.126  50.717  1.00  0.00     0.071 A 
BRANCH   9  11
HETATM   11  C   UNL     1       5.198  29.987  48.927  1.00  0.00    -0.005 A 
HETATM   12  C   UNL     1       4.578  30.350  47.722  1.00  0.00     0.053 A 
HETATM   13  C   UNL     1       4.715  31.653  47.283  1.00  0.00     0.106 A 
HETATM   14  C   UNL     1       5.435  32.588  47.987  1.00  0.00     0.105 A 
HETATM   15  O   UNL     1       4.173  32.168  46.147  1.00  0.00    -0.323 OA
HETATM   16  O   UNL     1       5.440  33.805  47.384  1.00  0.00    -0.323 OA
HETATM   17  C   UNL     1       6.061  32.273  49.171  1.00  0.00     0.040 A 
HETATM   18  C   UNL     1       4.624  33.537  46.226  1.00  0.00     0.352 A 
HETATM   19  C   UNL     1       5.937  30.960  49.641  1.00  0.00     0.017 A 
ENDBRANCH   9  11
ENDBRANCH   2   5
BRANCH   1  20
HETATM   20  N   UNL     1       6.286  25.495  53.887  1.00  0.00    -0.183 NA
HETATM   21  C   UNL     1       7.454  24.943  53.964  1.00  0.00     0.152 C 
BRANCH  21  22
HETATM   22  C   UNL     1       7.765  24.129  55.121  1.00  0.00     0.011 A 
HETATM   23  C   UNL     1       7.962  22.711  55.176  1.00  0.00     0.004 A 
HETATM   24  C   UNL     1       7.932  21.672  54.221  1.00  0.00     0.014 A 
HETATM   25  C   UNL     1       8.241  22.380  56.504  1.00  0.00     0.043 A 
HETATM   26  C   UNL     1       8.180  20.354  54.626  1.00  0.00     0.001 A 
HETATM   27  C   UNL     1       8.454  20.059  55.959  1.00  0.00     0.002 A 
HETATM   28  C   UNL     1       8.490  21.067  56.926  1.00  0.00     0.030 A 
HETATM   29  N   UNL     1       8.213  23.548  57.230  1.00  0.00    -0.364 N 
HETATM   30  H   UNL     1       8.380  23.612  58.225  1.00  0.00     0.165 HD
HETATM   31  C   UNL     1       7.930  24.602  56.411  1.00  0.00     0.102 A 
ENDBRANCH  21  22
ENDBRANCH   1  20
TORSDOF 4
ENDMDL
MODEL 9
REMARK VINA RESULT:      -9.0      2.680     10.798
REMARK  4 active torsions:
REMARK  status: ('A' for Active; 'I' for Inactive)
REMARK    1  A    between atoms: C_8  and  C_9 
REMARK    2  A    between atoms: N_10  and  N_11 
REMARK       I    between atoms: N_11  and  C_12 
REMARK    3  A    between atoms: C_12  and  C_13 
REMARK    4  A    between atoms: C_17  and  C_18 
ROOT
HETATM    1  N   UNL     1       6.866  31.558  59.564  1.00  0.00    -0.242 N 
HETATM    2  C   UNL     1       8.193  31.533  59.162  1.00  0.00     0.292 C 
HETATM    3  O   UNL     1       9.032  32.396  59.413  1.00  0.00    -0.264 OA
HETATM    4  H   UNL     1       6.280  30.774  59.289  1.00  0.00     0.192 HD
ENDROOT
BRANCH   2   5
HETATM    5  C   UNL     1       8.525  30.331  58.382  1.00  0.00     0.148 A 
HETATM    6  N   UNL     1       9.745  30.115  57.849  1.00  0.00    -0.169 NA
HETATM    7  N   UNL     1       9.616  28.926  57.227  1.00  0.00    -0.277 N 
HETATM    8  H   UNL     1      10.419  28.558  56.726  1.00  0.00     0.189 HD
HETATM    9  C   UNL     1       8.373  28.356  57.335  1.00  0.00     0.063 A 
HETATM   10  C   UNL     1       7.645  29.261  58.081  1.00  0.00     0.071 A 
BRANCH   9  11
HETATM   11  C   UNL     1       7.990  27.078  56.735  1.00  0.00    -0.005 A 
HETATM   12  C   UNL     1       7.419  27.014  55.455  1.00  0.00     0.053 A 
HETATM   13  C   UNL     1       7.099  25.772  54.942  1.00  0.00     0.106 A 
HETATM   14  C   UNL     1       7.322  24.613  55.646  1.00  0.00     0.105 A 
HETATM   15  O   UNL     1       6.550  25.536  53.720  1.00  0.00    -0.323 OA
HETATM   16  O   UNL     1       6.941  23.504  54.960  1.00  0.00    -0.323 OA
HETATM   17  C   UNL     1       7.878  24.631  56.905  1.00  0.00     0.040 A 
HETATM   18  C   UNL     1       6.467  24.095  53.733  1.00  0.00     0.352 A 
HETATM   19  C   UNL     1       8.215  25.876  57.448  1.00  0.00     0.017 A 
ENDBRANCH   9  11
ENDBRANCH   2   5
BRANCH   1  20
HETATM   20  N   UNL     1       6.389  32.596  60.307  1.00  0.00    -0.183 NA
HETATM   21  C   UNL     1       5.131  32.555  60.608  1.00  0.00     0.152 C 
BRANCH  21  22
HETATM   22  C   UNL     1       4.567  33.630  61.398  1.00  0.00     0.011 A 
HETATM   23  C   UNL     1       4.610  33.798  62.820  1.00  0.00     0.004 A 
HETATM   24  C   UNL     1       5.162  33.055  63.886  1.00  0.00     0.014 A 
HETATM   25  C   UNL     1       3.933  34.982  63.121  1.00  0.00     0.043 A 
HETATM   26  C   UNL     1       5.019  33.520  65.200  1.00  0.00     0.001 A 
HETATM   27  C   UNL     1       4.337  34.705  65.464  1.00  0.00     0.002 A 
HETATM   28  C   UNL     1       3.780  35.460  64.429  1.00  0.00     0.030 A 
HETATM   29  N   UNL     1       3.494  35.514  61.931  1.00  0.00    -0.364 N 
HETATM   30  H   UNL     1       2.971  36.375  61.843  1.00  0.00     0.165 HD
HETATM   31  C   UNL     1       3.869  34.713  60.892  1.00  0.00     0.102 A 
ENDBRANCH  21  22
ENDBRANCH   1  20
TORSDOF 4
ENDMDL
MODEL 10
REMARK VINA RESULT:      -9.0      2.984     10.946
REMARK  4 active torsions:
REMARK  status: ('A' for Active; 'I' for Inactive)
REMARK    1  A    between atoms: C_8  and  C_9 
REMARK    2  A    between atoms: N_10  and  N_11 
REMARK       I    between atoms: N_11  and  C_12 
REMARK    3  A    between atoms: C_12  and  C_13 
REMARK    4  A    between atoms: C_17  and  C_18 
ROOT
HETATM    1  N   UNL     1       5.407  31.599  59.464  1.00  0.00    -0.242 N 
HETATM    2  C   UNL     1       6.554  31.588  58.685  1.00  0.00     0.292 C 
HETATM    3  O   UNL     1       7.586  32.211  58.924  1.00  0.00    -0.264 OA
HETATM    4  H   UNL     1       4.623  31.032  59.151  1.00  0.00     0.192 HD
ENDROOT
BRANCH   2   5
HETATM    5  C   UNL     1       6.424  30.725  57.501  1.00  0.00     0.148 A 
HETATM    6  N   UNL     1       5.713  31.078  56.410  1.00  0.00    -0.169 NA
HETATM    7  N   UNL     1       5.851  30.022  55.583  1.00  0.00    -0.277 N 
HETATM    8  H   UNL     1       5.376  30.050  54.687  1.00  0.00     0.189 HD
HETATM    9  C   UNL     1       6.622  29.003  56.082  1.00  0.00     0.063 A 
HETATM   10  C   UNL     1       7.000  29.441  57.335  1.00  0.00     0.071 A 
BRANCH   9  11
HETATM   11  C   UNL     1       6.904  27.752  55.376  1.00  0.00    -0.005 A 
HETATM   12  C   UNL     1       6.674  26.506  55.980  1.00  0.00     0.053 A 
HETATM   13  C   UNL     1       6.945  25.366  55.248  1.00  0.00     0.106 A 
HETATM   14  C   UNL     1       7.428  25.422  53.963  1.00  0.00     0.105 A 
HETATM   15  O   UNL     1       6.771  24.088  55.680  1.00  0.00    -0.323 OA
HETATM   16  O   UNL     1       7.620  24.189  53.424  1.00  0.00    -0.323 OA
HETATM   17  C   UNL     1       7.668  26.622  53.335  1.00  0.00     0.040 A 
HETATM   18  C   UNL     1       7.187  23.347  54.512  1.00  0.00     0.352 A 
HETATM   19  C   UNL     1       7.400  27.794  54.051  1.00  0.00     0.017 A 
ENDBRANCH   9  11
ENDBRANCH   2   5
BRANCH   1  20
HETATM   20  N   UNL     1       5.355  32.339  60.608  1.00  0.00    -0.183 NA
HETATM   21  C   UNL     1       4.312  32.169  61.354  1.00  0.00     0.152 C 
BRANCH  21  22
HETATM   22  C   UNL     1       4.203  32.928  62.584  1.00  0.00     0.011 A 
HETATM   23  C   UNL     1       5.219  33.170  63.564  1.00  0.00     0.004 A 
HETATM   24  C   UNL     1       6.576  32.803  63.693  1.00  0.00     0.014 A 
HETATM   25  C   UNL     1       4.648  33.951  64.572  1.00  0.00     0.043 A 
HETATM   26  C   UNL     1       7.303  33.225  64.813  1.00  0.00     0.001 A 
HETATM   27  C   UNL     1       6.702  34.002  65.800  1.00  0.00     0.002 A 
HETATM   28  C   UNL     1       5.361  34.381  65.699  1.00  0.00     0.030 A 
HETATM   29  N   UNL     1       3.337  34.173  64.222  1.00  0.00    -0.364 N 
HETATM   30  H   UNL     1       2.678  34.710  64.768  1.00  0.00     0.165 HD
HETATM   31  C   UNL     1       3.060  33.565  63.031  1.00  0.00     0.102 A 
ENDBRANCH  21  22
ENDBRANCH   1  20
TORSDOF 4
ENDMDL
