MODEL 1
REMARK VINA RESULT:     -10.8      0.000      0.000
REMARK  8 active torsions:
REMARK  status: ('A' for Active; 'I' for Inactive)
REMARK    1  A    between atoms: C_4  and  O_5 
REMARK    2  A    between atoms: O_5  and  C_6 
REMARK    3  A    between atoms: C_9  and  N_10 
REMARK    4  A    between atoms: N_10  and  C_11 
REMARK    5  A    between atoms: C_13  and  N_14 
REMARK    6  A    between atoms: C_16  and  C_17 
REMARK    7  A    between atoms: C_17  and  N_18 
REMARK    8  A    between atoms: N_22  and  C_23 
ROOT
HETATM    1  C   UNL     1       7.968  29.294  57.742  1.00  0.00     0.731 A 
HETATM    2  N   UNL     1       9.178  29.200  57.206  1.00  0.00    -0.031 NA
HETATM    3  C   UNL     1      10.082  30.072  57.618  1.00  0.00     0.219 A 
HETATM    4  N   UNL     1       9.866  31.006  58.531  1.00  0.00    -0.200 NA
HETATM    5  C   UNL     1       8.625  31.042  59.006  1.00  0.00     0.174 A 
HETATM    6  N   UNL     1       7.662  30.182  58.685  1.00  0.00    -0.045 NA
ENDROOT
BRANCH   1   7
HETATM    7  N   UNL     1       7.044  28.345  57.316  1.00  0.00    -0.188 N 
HETATM    8  H   UNL     1       6.107  28.724  57.393  1.00  0.00     0.184 HD
BRANCH   7   9
HETATM    9  C   UNL     1       7.109  26.962  57.095  1.00  0.00     0.049 A 
HETATM   10  C   UNL     1       6.007  26.175  56.740  1.00  0.00     0.033 A 
HETATM   11  C   UNL     1       6.132  24.790  56.572  1.00  0.00     0.039 A 
HETATM   12  C   UNL     1       7.365  24.174  56.755  1.00  0.00     0.076 A 
HETATM   13  C   UNL     1       8.466  24.926  57.153  1.00  0.00     0.039 A 
HETATM   14  C   UNL     1       8.335  26.309  57.318  1.00  0.00     0.033 A 
BRANCH  12  15
HETATM   15  O   UNL     1       7.420  22.811  56.605  1.00  0.00    -0.311 OA
BRANCH  15  16
HETATM   16  C   UNL     1       7.674  22.311  55.347  1.00  0.00     0.076 A 
HETATM   17  C   UNL     1       7.937  20.941  55.270  1.00  0.00     0.037 A 
HETATM   18  C   UNL     1       8.166  20.341  54.031  1.00  0.00     0.003 A 
HETATM   19  C   UNL     1       8.122  21.106  52.867  1.00  0.00     0.000 A 
HETATM   20  C   UNL     1       7.838  22.470  52.938  1.00  0.00     0.003 A 
HETATM   21  C   UNL     1       7.605  23.073  54.177  1.00  0.00     0.037 A 
ENDBRANCH  15  16
ENDBRANCH  12  15
ENDBRANCH   7   9
ENDBRANCH   1   7
BRANCH   3  22
HETATM   22  N   UNL     1      11.352  29.975  57.095  1.00  0.00    -0.270 NA
HETATM   23  H   UNL     1      12.043  29.921  57.835  1.00  0.00     0.127 HD
HETATM   24  H   UNL     1      11.423  29.251  56.393  1.00  0.00     0.127 HD
ENDBRANCH   3  22
BRANCH   5  25
HETATM   25  C   UNL     1       8.354  31.977  60.167  1.00  0.00     0.316 C 
BRANCH  25  26
HETATM   26  N   UNL     1       6.983  31.812  60.852  1.00  0.00    -0.061 N 
HETATM   27  H   UNL     1       6.606  30.932  60.477  1.00  0.00     0.280 HD
HETATM   28  C   UNL     1       7.106  31.652  62.365  1.00  0.00     0.255 C 
HETATM   29  C   UNL     1       5.710  31.395  62.984  1.00  0.00     0.152 C 
HETATM   30  N   UNL     1       4.702  32.407  62.572  1.00  0.00    -0.364 N 
HETATM   31  C   UNL     1       4.623  32.657  61.112  1.00  0.00     0.152 C 
HETATM   32  C   UNL     1       6.016  32.933  60.491  1.00  0.00     0.255 C 
BRANCH  30  33
HETATM   33  C   UNL     1       4.384  33.450  63.422  1.00  0.00     0.102 A 
HETATM   34  N   UNL     1       4.475  33.226  64.746  1.00  0.00    -0.352 N 
HETATM   35  H   UNL     1       4.817  32.315  65.042  1.00  0.00     0.166 HD
HETATM   36  C   UNL     1       4.219  34.151  65.684  1.00  0.00     0.089 A 
HETATM   37  C   UNL     1       3.838  35.429  65.311  1.00  0.00     0.017 A 
HETATM   38  C   UNL     1       3.748  35.728  63.959  1.00  0.00     0.005 A 
HETATM   39  C   UNL     1       4.028  34.742  63.012  1.00  0.00     0.048 A 
ENDBRANCH  30  33
ENDBRANCH  25  26
ENDBRANCH   5  25
TORSDOF 8
ENDMDL
MODEL 2
REMARK VINA RESULT:     -10.8      2.734     11.641
REMARK  8 active torsions:
REMARK  status: ('A' for Active; 'I' for Inactive)
REMARK    1  A    between atoms: C_4  and  O_5 
REMARK    2  A    between atoms: O_5  and  C_6 
REMARK    3  A    between atoms: C_9  and  N_10 
REMARK    4  A    between atoms: N_10  and  C_11 
REMARK    5  A    between atoms: C_13  and  N_14 
REMARK    6  A    between atoms: C_16  and  C_17 
REMARK    7  A    between atoms: C_17  and  N_18 
REMARK    8  A    between atoms: N_22  and  C_23 
ROOT
HETATM    1  C   UNL     1       8.580  31.410  59.307  1.00  0.00     0.731 A 
HETATM    2  N   UNL     1       9.814  31.419  58.818  1.00  0.00    -0.031 NA
HETATM    3  C   UNL     1      10.072  30.575  57.834  1.00  0.00     0.219 A 
HETATM    4  N   UNL     1       9.187  29.746  57.301  1.00  0.00    -0.200 NA
HETATM    5  C   UNL     1       7.981  29.789  57.857  1.00  0.00     0.174 A 
HETATM    6  N   UNL     1       7.616  30.632  58.820  1.00  0.00    -0.045 NA
ENDROOT
BRANCH   1   7
HETATM    7  N   UNL     1       8.326  32.330  60.318  1.00  0.00    -0.188 N 
HETATM    8  H   UNL     1       9.112  32.963  60.408  1.00  0.00     0.184 HD
BRANCH   7   9
HETATM    9  C   UNL     1       7.399  32.381  61.369  1.00  0.00     0.049 A 
HETATM   10  C   UNL     1       6.011  32.331  61.191  1.00  0.00     0.033 A 
HETATM   11  C   UNL     1       5.139  32.426  62.282  1.00  0.00     0.039 A 
HETATM   12  C   UNL     1       5.644  32.569  63.569  1.00  0.00     0.076 A 
HETATM   13  C   UNL     1       7.018  32.668  63.770  1.00  0.00     0.039 A 
HETATM   14  C   UNL     1       7.884  32.571  62.675  1.00  0.00     0.033 A 
BRANCH  12  15
HETATM   15  O   UNL     1       4.740  32.687  64.595  1.00  0.00    -0.311 OA
BRANCH  15  16
HETATM   16  C   UNL     1       4.717  33.870  65.300  1.00  0.00     0.076 A 
HETATM   17  C   UNL     1       4.273  34.996  64.600  1.00  0.00     0.037 A 
HETATM   18  C   UNL     1       4.179  36.229  65.247  1.00  0.00     0.003 A 
HETATM   19  C   UNL     1       4.518  36.338  66.595  1.00  0.00     0.000 A 
HETATM   20  C   UNL     1       4.942  35.212  67.301  1.00  0.00     0.003 A 
HETATM   21  C   UNL     1       5.033  33.975  66.658  1.00  0.00     0.037 A 
ENDBRANCH  15  16
ENDBRANCH  12  15
ENDBRANCH   7   9
ENDBRANCH   1   7
BRANCH   3  22
HETATM   22  N   UNL     1      11.338  30.587  57.294  1.00  0.00    -0.270 NA
HETATM   23  H   UNL     1      11.325  30.250  56.337  1.00  0.00     0.127 HD
HETATM   24  H   UNL     1      11.803  31.475  57.425  1.00  0.00     0.127 HD
ENDBRANCH   3  22
BRANCH   5  25
HETATM   25  C   UNL     1       6.881  28.987  57.191  1.00  0.00     0.316 C 
BRANCH  25  26
HETATM   26  N   UNL     1       6.941  27.462  57.405  1.00  0.00    -0.061 N 
HETATM   27  H   UNL     1       6.786  27.333  58.414  1.00  0.00     0.280 HD
HETATM   28  C   UNL     1       5.823  26.728  56.670  1.00  0.00     0.255 C 
HETATM   29  C   UNL     1       5.877  25.216  57.001  1.00  0.00     0.152 C 
HETATM   30  N   UNL     1       7.223  24.626  56.779  1.00  0.00    -0.364 N 
HETATM   31  C   UNL     1       8.346  25.369  57.402  1.00  0.00     0.152 C 
HETATM   32  C   UNL     1       8.306  26.881  57.059  1.00  0.00     0.255 C 
BRANCH  30  33
HETATM   33  C   UNL     1       7.485  23.918  55.621  1.00  0.00     0.102 A 
HETATM   34  N   UNL     1       7.535  22.576  55.708  1.00  0.00    -0.352 N 
HETATM   35  H   UNL     1       7.331  22.160  56.614  1.00  0.00     0.166 HD
HETATM   36  C   UNL     1       7.757  21.762  54.665  1.00  0.00     0.089 A 
HETATM   37  C   UNL     1       7.948  22.294  53.401  1.00  0.00     0.017 A 
HETATM   38  C   UNL     1       7.886  23.671  53.242  1.00  0.00     0.005 A 
HETATM   39  C   UNL     1       7.647  24.485  54.350  1.00  0.00     0.048 A 
ENDBRANCH  30  33
ENDBRANCH  25  26
ENDBRANCH   5  25
TORSDOF 8
ENDMDL
MODEL 3
REMARK VINA RESULT:     -10.1      2.136      2.722
REMARK  8 active torsions:
REMARK  status: ('A' for Active; 'I' for Inactive)
REMARK    1  A    between atoms: C_4  and  O_5 
REMARK    2  A    between atoms: O_5  and  C_6 
REMARK    3  A    between atoms: C_9  and  N_10 
REMARK    4  A    between atoms: N_10  and  C_11 
REMARK    5  A    between atoms: C_13  and  N_14 
REMARK    6  A    between atoms: C_16  and  C_17 
REMARK    7  A    between atoms: C_17  and  N_18 
REMARK    8  A    between atoms: N_22  and  C_23 
ROOT
HETATM    1  C   UNL     1       4.607  29.318  56.729  1.00  0.00     0.731 A 
HETATM    2  N   UNL     1       4.129  29.899  55.637  1.00  0.00    -0.031 NA
HETATM    3  C   UNL     1       4.219  31.216  55.572  1.00  0.00     0.219 A 
HETATM    4  N   UNL     1       4.765  31.979  56.505  1.00  0.00    -0.200 NA
HETATM    5  C   UNL     1       5.206  31.322  57.573  1.00  0.00     0.174 A 
HETATM    6  N   UNL     1       5.197  29.999  57.709  1.00  0.00    -0.045 NA
ENDROOT
BRANCH   1   7
HETATM    7  N   UNL     1       4.530  27.930  56.758  1.00  0.00    -0.188 N 
HETATM    8  H   UNL     1       3.657  27.646  57.191  1.00  0.00     0.184 HD
BRANCH   7   9
HETATM    9  C   UNL     1       5.472  26.904  56.595  1.00  0.00     0.049 A 
HETATM   10  C   UNL     1       5.248  25.572  56.963  1.00  0.00     0.033 A 
HETATM   11  C   UNL     1       6.246  24.602  56.810  1.00  0.00     0.039 A 
HETATM   12  C   UNL     1       7.483  24.952  56.280  1.00  0.00     0.076 A 
HETATM   13  C   UNL     1       7.747  26.278  55.948  1.00  0.00     0.039 A 
HETATM   14  C   UNL     1       6.745  27.242  56.104  1.00  0.00     0.033 A 
BRANCH  12  15
HETATM   15  O   UNL     1       8.432  23.966  56.180  1.00  0.00    -0.311 OA
BRANCH  15  16
HETATM   16  C   UNL     1       8.257  23.001  55.212  1.00  0.00     0.076 A 
HETATM   17  C   UNL     1       8.109  21.689  55.669  1.00  0.00     0.037 A 
HETATM   18  C   UNL     1       7.887  20.653  54.761  1.00  0.00     0.003 A 
HETATM   19  C   UNL     1       7.804  20.926  53.397  1.00  0.00     0.000 A 
HETATM   20  C   UNL     1       7.931  22.238  52.939  1.00  0.00     0.003 A 
HETATM   21  C   UNL     1       8.148  23.278  53.846  1.00  0.00     0.037 A 
ENDBRANCH  15  16
ENDBRANCH  12  15
ENDBRANCH   7   9
ENDBRANCH   1   7
BRANCH   3  22
HETATM   22  N   UNL     1       3.754  31.836  54.434  1.00  0.00    -0.270 NA
HETATM   23  H   UNL     1       4.524  32.150  53.854  1.00  0.00     0.127 HD
HETATM   24  H   UNL     1       3.057  31.283  53.953  1.00  0.00     0.127 HD
ENDBRANCH   3  22
BRANCH   5  25
HETATM   25  C   UNL     1       5.986  32.115  58.602  1.00  0.00     0.316 C 
BRANCH  25  26
HETATM   26  N   UNL     1       5.646  31.815  60.075  1.00  0.00    -0.061 N 
HETATM   27  H   UNL     1       5.537  30.793  60.117  1.00  0.00     0.280 HD
HETATM   28  C   UNL     1       6.781  32.196  61.022  1.00  0.00     0.255 C 
HETATM   29  C   UNL     1       6.422  31.784  62.470  1.00  0.00     0.152 C 
HETATM   30  N   UNL     1       5.093  32.291  62.901  1.00  0.00    -0.364 N 
HETATM   31  C   UNL     1       3.981  32.021  61.956  1.00  0.00     0.152 C 
HETATM   32  C   UNL     1       4.329  32.449  60.507  1.00  0.00     0.255 C 
BRANCH  30  33
HETATM   33  C   UNL     1       5.007  33.426  63.687  1.00  0.00     0.102 A 
HETATM   34  N   UNL     1       4.463  33.296  64.911  1.00  0.00    -0.352 N 
HETATM   35  H   UNL     1       4.188  32.361  65.202  1.00  0.00     0.166 HD
HETATM   36  C   UNL     1       4.337  34.304  65.788  1.00  0.00     0.089 A 
HETATM   37  C   UNL     1       4.785  35.571  65.455  1.00  0.00     0.017 A 
HETATM   38  C   UNL     1       5.376  35.764  64.215  1.00  0.00     0.005 A 
HETATM   39  C   UNL     1       5.496  34.690  63.331  1.00  0.00     0.048 A 
ENDBRANCH  30  33
ENDBRANCH  25  26
ENDBRANCH   5  25
TORSDOF 8
ENDMDL
MODEL 4
REMARK VINA RESULT:     -10.1      3.088     11.256
REMARK  8 active torsions:
REMARK  status: ('A' for Active; 'I' for Inactive)
REMARK    1  A    between atoms: C_4  and  O_5 
REMARK    2  A    between atoms: O_5  and  C_6 
REMARK    3  A    between atoms: C_9  and  N_10 
REMARK    4  A    between atoms: N_10  and  C_11 
REMARK    5  A    between atoms: C_13  and  N_14 
REMARK    6  A    between atoms: C_16  and  C_17 
REMARK    7  A    between atoms: C_17  and  N_18 
REMARK    8  A    between atoms: N_22  and  C_23 
ROOT
HETATM    1  C   UNL     1       8.421  30.004  59.064  1.00  0.00     0.731 A 
HETATM    2  N   UNL     1       9.639  30.041  58.539  1.00  0.00    -0.031 NA
HETATM    3  C   UNL     1       9.732  29.862  57.232  1.00  0.00     0.219 A 
HETATM    4  N   UNL     1       8.701  29.669  56.424  1.00  0.00    -0.200 NA
HETATM    5  C   UNL     1       7.519  29.631  57.030  1.00  0.00     0.174 A 
HETATM    6  N   UNL     1       7.323  29.843  58.329  1.00  0.00    -0.045 NA
ENDROOT
BRANCH   1   7
HETATM    7  N   UNL     1       8.348  30.229  60.434  1.00  0.00    -0.188 N 
HETATM    8  H   UNL     1       8.508  29.359  60.930  1.00  0.00     0.184 HD
BRANCH   7   9
HETATM    9  C   UNL     1       7.840  31.274  61.218  1.00  0.00     0.049 A 
HETATM   10  C   UNL     1       6.893  32.201  60.767  1.00  0.00     0.033 A 
HETATM   11  C   UNL     1       6.455  33.247  61.589  1.00  0.00     0.039 A 
HETATM   12  C   UNL     1       6.960  33.378  62.878  1.00  0.00     0.076 A 
HETATM   13  C   UNL     1       7.937  32.498  63.335  1.00  0.00     0.039 A 
HETATM   14  C   UNL     1       8.368  31.455  62.509  1.00  0.00     0.033 A 
BRANCH  12  15
HETATM   15  O   UNL     1       6.516  34.439  63.627  1.00  0.00    -0.311 OA
BRANCH  15  16
HETATM   16  C   UNL     1       5.538  35.244  63.085  1.00  0.00     0.076 A 
HETATM   17  C   UNL     1       4.218  34.900  63.392  1.00  0.00     0.037 A 
HETATM   18  C   UNL     1       3.164  35.683  62.920  1.00  0.00     0.003 A 
HETATM   19  C   UNL     1       3.426  36.815  62.150  1.00  0.00     0.000 A 
HETATM   20  C   UNL     1       4.743  37.172  61.859  1.00  0.00     0.003 A 
HETATM   21  C   UNL     1       5.801  36.393  62.334  1.00  0.00     0.037 A 
ENDBRANCH  15  16
ENDBRANCH  12  15
ENDBRANCH   7   9
ENDBRANCH   1   7
BRANCH   3  22
HETATM   22  N   UNL     1      10.984  29.924  56.664  1.00  0.00    -0.270 NA
HETATM   23  H   UNL     1      11.391  28.998  56.586  1.00  0.00     0.127 HD
HETATM   24  H   UNL     1      10.991  30.465  55.809  1.00  0.00     0.127 HD
ENDBRANCH   3  22
BRANCH   5  25
HETATM   25  C   UNL     1       6.289  29.577  56.148  1.00  0.00     0.316 C 
BRANCH  25  26
HETATM   26  N   UNL     1       5.754  28.166  55.831  1.00  0.00    -0.061 N 
HETATM   27  H   UNL     1       4.736  28.236  55.959  1.00  0.00     0.280 HD
HETATM   28  C   UNL     1       6.009  27.761  54.381  1.00  0.00     0.255 C 
HETATM   29  C   UNL     1       5.367  26.381  54.098  1.00  0.00     0.152 C 
HETATM   30  N   UNL     1       5.769  25.345  55.085  1.00  0.00    -0.364 N 
HETATM   31  C   UNL     1       5.623  25.742  56.507  1.00  0.00     0.152 C 
HETATM   32  C   UNL     1       6.281  27.115  56.800  1.00  0.00     0.255 C 
BRANCH  30  33
HETATM   33  C   UNL     1       6.764  24.439  54.769  1.00  0.00     0.102 A 
HETATM   34  N   UNL     1       7.574  24.029  55.763  1.00  0.00    -0.352 N 
HETATM   35  H   UNL     1       7.375  24.377  56.698  1.00  0.00     0.166 HD
HETATM   36  C   UNL     1       8.564  23.138  55.607  1.00  0.00     0.089 A 
HETATM   37  C   UNL     1       8.801  22.577  54.363  1.00  0.00     0.017 A 
HETATM   38  C   UNL     1       7.986  22.943  53.302  1.00  0.00     0.005 A 
HETATM   39  C   UNL     1       6.961  23.868  53.504  1.00  0.00     0.048 A 
ENDBRANCH  30  33
ENDBRANCH  25  26
ENDBRANCH   5  25
TORSDOF 8
ENDMDL
MODEL 5
REMARK VINA RESULT:     -10.0      4.744      9.333
REMARK  8 active torsions:
REMARK  status: ('A' for Active; 'I' for Inactive)
REMARK    1  A    between atoms: C_4  and  O_5 
REMARK    2  A    between atoms: O_5  and  C_6 
REMARK    3  A    between atoms: C_9  and  N_10 
REMARK    4  A    between atoms: N_10  and  C_11 
REMARK    5  A    between atoms: C_13  and  N_14 
REMARK    6  A    between atoms: C_16  and  C_17 
REMARK    7  A    between atoms: C_17  and  N_18 
REMARK    8  A    between atoms: N_22  and  C_23 
ROOT
HETATM    1  C   UNL     1       5.578  29.579  56.785  1.00  0.00     0.731 A 
HETATM    2  N   UNL     1       4.948  30.279  57.719  1.00  0.00    -0.031 NA
HETATM    3  C   UNL     1       3.923  31.016  57.324  1.00  0.00     0.219 A 
HETATM    4  N   UNL     1       3.482  31.084  56.078  1.00  0.00    -0.200 NA
HETATM    5  C   UNL     1       4.177  30.366  55.202  1.00  0.00     0.174 A 
HETATM    6  N   UNL     1       5.192  29.563  55.511  1.00  0.00    -0.045 NA
ENDROOT
BRANCH   1   7
HETATM    7  N   UNL     1       6.630  28.788  57.231  1.00  0.00    -0.188 N 
HETATM    8  H   UNL     1       7.426  29.374  57.457  1.00  0.00     0.184 HD
BRANCH   7   9
HETATM    9  C   UNL     1       6.907  27.415  57.160  1.00  0.00     0.049 A 
HETATM   10  C   UNL     1       8.199  26.876  57.174  1.00  0.00     0.033 A 
HETATM   11  C   UNL     1       8.410  25.497  57.060  1.00  0.00     0.039 A 
HETATM   12  C   UNL     1       7.326  24.635  56.933  1.00  0.00     0.076 A 
HETATM   13  C   UNL     1       6.033  25.147  56.870  1.00  0.00     0.039 A 
HETATM   14  C   UNL     1       5.831  26.527  56.985  1.00  0.00     0.033 A 
BRANCH  12  15
HETATM   15  O   UNL     1       7.594  23.296  56.796  1.00  0.00    -0.311 OA
BRANCH  15  16
HETATM   16  C   UNL     1       7.718  22.792  55.520  1.00  0.00     0.076 A 
HETATM   17  C   UNL     1       7.872  21.408  55.416  1.00  0.00     0.037 A 
HETATM   18  C   UNL     1       7.965  20.806  54.160  1.00  0.00     0.003 A 
HETATM   19  C   UNL     1       7.894  21.586  53.006  1.00  0.00     0.000 A 
HETATM   20  C   UNL     1       7.720  22.966  53.106  1.00  0.00     0.003 A 
HETATM   21  C   UNL     1       7.622  23.570  54.361  1.00  0.00     0.037 A 
ENDBRANCH  15  16
ENDBRANCH  12  15
ENDBRANCH   7   9
ENDBRANCH   1   7
BRANCH   3  22
HETATM   22  N   UNL     1       3.239  31.728  58.282  1.00  0.00    -0.270 NA
HETATM   23  H   UNL     1       3.599  32.674  58.354  1.00  0.00     0.127 HD
HETATM   24  H   UNL     1       2.236  31.662  58.167  1.00  0.00     0.127 HD
ENDBRANCH   3  22
BRANCH   5  25
HETATM   25  C   UNL     1       3.628  30.271  53.793  1.00  0.00     0.316 C 
BRANCH  25  26
HETATM   26  N   UNL     1       4.450  29.412  52.812  1.00  0.00    -0.061 N 
HETATM   27  H   UNL     1       5.391  29.369  53.225  1.00  0.00     0.280 HD
HETATM   28  C   UNL     1       3.926  27.982  52.713  1.00  0.00     0.255 C 
HETATM   29  C   UNL     1       4.845  27.145  51.791  1.00  0.00     0.152 C 
HETATM   30  N   UNL     1       5.076  27.787  50.470  1.00  0.00    -0.364 N 
HETATM   31  C   UNL     1       5.497  29.209  50.528  1.00  0.00     0.152 C 
HETATM   32  C   UNL     1       4.568  30.055  51.436  1.00  0.00     0.255 C 
BRANCH  30  33
HETATM   33  C   UNL     1       4.356  27.374  49.365  1.00  0.00     0.102 A 
HETATM   34  N   UNL     1       4.000  26.077  49.302  1.00  0.00    -0.352 N 
HETATM   35  H   UNL     1       4.244  25.488  50.094  1.00  0.00     0.166 HD
HETATM   36  C   UNL     1       3.282  25.543  48.302  1.00  0.00     0.089 A 
HETATM   37  C   UNL     1       2.857  26.339  47.252  1.00  0.00     0.017 A 
HETATM   38  C   UNL     1       3.174  27.690  47.271  1.00  0.00     0.005 A 
HETATM   39  C   UNL     1       3.917  28.212  48.332  1.00  0.00     0.048 A 
ENDBRANCH  30  33
ENDBRANCH  25  26
ENDBRANCH   5  25
TORSDOF 8
ENDMDL
MODEL 6
REMARK VINA RESULT:      -9.9      3.265      5.324
REMARK  8 active torsions:
REMARK  status: ('A' for Active; 'I' for Inactive)
REMARK    1  A    between atoms: C_4  and  O_5 
REMARK    2  A    between atoms: O_5  and  C_6 
REMARK    3  A    between atoms: C_9  and  N_10 
REMARK    4  A    between atoms: N_10  and  C_11 
REMARK    5  A    between atoms: C_13  and  N_14 
REMARK    6  A    between atoms: C_16  and  C_17 
REMARK    7  A    between atoms: C_17  and  N_18 
REMARK    8  A    between atoms: N_22  and  C_23 
ROOT
HETATM    1  C   UNL     1       4.007  28.081  53.289  1.00  0.00     0.731 A 
HETATM    2  N   UNL     1       3.769  29.122  52.501  1.00  0.00    -0.031 NA
HETATM    3  C   UNL     1       3.547  30.282  53.095  1.00  0.00     0.219 A 
HETATM    4  N   UNL     1       3.564  30.472  54.405  1.00  0.00    -0.200 NA
HETATM    5  C   UNL     1       3.794  29.377  55.123  1.00  0.00     0.174 A 
HETATM    6  N   UNL     1       4.070  28.179  54.615  1.00  0.00    -0.045 NA
ENDROOT
BRANCH   1   7
HETATM    7  N   UNL     1       4.270  26.880  52.640  1.00  0.00    -0.188 N 
HETATM    8  H   UNL     1       3.433  26.558  52.166  1.00  0.00     0.184 HD
BRANCH   7   9
HETATM    9  C   UNL     1       5.297  25.931  52.738  1.00  0.00     0.049 A 
HETATM   10  C   UNL     1       5.351  24.937  53.722  1.00  0.00     0.033 A 
HETATM   11  C   UNL     1       6.426  24.043  53.789  1.00  0.00     0.039 A 
HETATM   12  C   UNL     1       7.463  24.129  52.866  1.00  0.00     0.076 A 
HETATM   13  C   UNL     1       7.457  25.137  51.906  1.00  0.00     0.039 A 
HETATM   14  C   UNL     1       6.379  26.026  51.845  1.00  0.00     0.033 A 
BRANCH  12  15
HETATM   15  O   UNL     1       8.505  23.245  52.999  1.00  0.00    -0.311 OA
BRANCH  15  16
HETATM   16  C   UNL     1       8.469  22.364  54.058  1.00  0.00     0.076 A 
HETATM   17  C   UNL     1       8.254  21.022  53.735  1.00  0.00     0.037 A 
HETATM   18  C   UNL     1       8.242  20.054  54.740  1.00  0.00     0.003 A 
HETATM   19  C   UNL     1       8.457  20.423  56.067  1.00  0.00     0.000 A 
HETATM   20  C   UNL     1       8.693  21.760  56.390  1.00  0.00     0.003 A 
HETATM   21  C   UNL     1       8.709  22.730  55.386  1.00  0.00     0.037 A 
ENDBRANCH  15  16
ENDBRANCH  12  15
ENDBRANCH   7   9
ENDBRANCH   1   7
BRANCH   3  22
HETATM   22  N   UNL     1       3.325  31.380  52.295  1.00  0.00    -0.270 NA
HETATM   23  H   UNL     1       3.540  32.237  52.792  1.00  0.00     0.127 HD
HETATM   24  H   UNL     1       3.767  31.291  51.390  1.00  0.00     0.127 HD
ENDBRANCH   3  22
BRANCH   5  25
HETATM   25  C   UNL     1       3.988  29.555  56.615  1.00  0.00     0.316 C 
BRANCH  25  26
HETATM   26  N   UNL     1       5.217  30.385  57.035  1.00  0.00    -0.061 N 
HETATM   27  H   UNL     1       5.530  30.847  56.171  1.00  0.00     0.280 HD
HETATM   28  C   UNL     1       4.863  31.478  58.040  1.00  0.00     0.255 C 
HETATM   29  C   UNL     1       6.114  32.336  58.349  1.00  0.00     0.152 C 
HETATM   30  N   UNL     1       7.289  31.519  58.748  1.00  0.00    -0.364 N 
HETATM   31  C   UNL     1       7.605  30.387  57.842  1.00  0.00     0.152 C 
HETATM   32  C   UNL     1       6.359  29.514  57.544  1.00  0.00     0.255 C 
BRANCH  30  33
HETATM   33  C   UNL     1       7.614  31.382  60.085  1.00  0.00     0.102 A 
HETATM   34  N   UNL     1       8.707  30.658  60.391  1.00  0.00    -0.352 N 
HETATM   35  H   UNL     1       9.255  30.293  59.615  1.00  0.00     0.166 HD
HETATM   36  C   UNL     1       9.153  30.461  61.640  1.00  0.00     0.089 A 
HETATM   37  C   UNL     1       8.479  31.022  62.712  1.00  0.00     0.017 A 
HETATM   38  C   UNL     1       7.357  31.797  62.461  1.00  0.00     0.005 A 
HETATM   39  C   UNL     1       6.926  31.986  61.146  1.00  0.00     0.048 A 
ENDBRANCH  30  33
ENDBRANCH  25  26
ENDBRANCH   5  25
TORSDOF 8
ENDMDL
MODEL 7
REMARK VINA RESULT:      -9.9      9.073     10.727
REMARK  8 active torsions:
REMARK  status: ('A' for Active; 'I' for Inactive)
REMARK    1  A    between atoms: C_4  and  O_5 
REMARK    2  A    between atoms: O_5  and  C_6 
REMARK    3  A    between atoms: C_9  and  N_10 
REMARK    4  A    between atoms: N_10  and  C_11 
REMARK    5  A    between atoms: C_13  and  N_14 
REMARK    6  A    between atoms: C_16  and  C_17 
REMARK    7  A    between atoms: C_17  and  N_18 
REMARK    8  A    between atoms: N_22  and  C_23 
ROOT
HETATM    1  C   UNL     1       4.253  26.442  49.801  1.00  0.00     0.731 A 
HETATM    2  N   UNL     1       3.733  25.513  49.008  1.00  0.00    -0.031 NA
HETATM    3  C   UNL     1       3.625  25.815  47.726  1.00  0.00     0.219 A 
HETATM    4  N   UNL     1       4.014  26.960  47.187  1.00  0.00    -0.200 NA
HETATM    5  C   UNL     1       4.510  27.841  48.051  1.00  0.00     0.174 A 
HETATM    6  N   UNL     1       4.696  27.612  49.348  1.00  0.00    -0.045 NA
ENDROOT
BRANCH   1   7
HETATM    7  N   UNL     1       4.386  26.087  51.139  1.00  0.00    -0.188 N 
HETATM    8  H   UNL     1       3.607  26.461  51.669  1.00  0.00     0.184 HD
BRANCH   7   9
HETATM    9  C   UNL     1       5.452  25.604  51.912  1.00  0.00     0.049 A 
HETATM   10  C   UNL     1       6.776  25.537  51.461  1.00  0.00     0.033 A 
HETATM   11  C   UNL     1       7.789  25.008  52.270  1.00  0.00     0.039 A 
HETATM   12  C   UNL     1       7.490  24.540  53.545  1.00  0.00     0.076 A 
HETATM   13  C   UNL     1       6.174  24.553  54.000  1.00  0.00     0.039 A 
HETATM   14  C   UNL     1       5.168  25.085  53.187  1.00  0.00     0.033 A 
BRANCH  12  15
HETATM   15  O   UNL     1       8.518  24.005  54.280  1.00  0.00    -0.311 OA
BRANCH  15  16
HETATM   16  C   UNL     1       8.502  22.648  54.517  1.00  0.00     0.076 A 
HETATM   17  C   UNL     1       8.427  22.258  55.856  1.00  0.00     0.037 A 
HETATM   18  C   UNL     1       8.365  20.903  56.187  1.00  0.00     0.003 A 
HETATM   19  C   UNL     1       8.367  19.938  55.181  1.00  0.00     0.000 A 
HETATM   20  C   UNL     1       8.421  20.326  53.842  1.00  0.00     0.003 A 
HETATM   21  C   UNL     1       8.479  21.681  53.508  1.00  0.00     0.037 A 
ENDBRANCH  15  16
ENDBRANCH  12  15
ENDBRANCH   7   9
ENDBRANCH   1   7
BRANCH   3  22
HETATM   22  N   UNL     1       3.114  24.856  46.882  1.00  0.00    -0.270 NA
HETATM   23  H   UNL     1       2.776  24.057  47.407  1.00  0.00     0.127 HD
HETATM   24  H   UNL     1       2.454  25.240  46.219  1.00  0.00     0.127 HD
ENDBRANCH   3  22
BRANCH   5  25
HETATM   25  C   UNL     1       5.122  29.104  47.479  1.00  0.00     0.316 C 
BRANCH  25  26
HETATM   26  N   UNL     1       4.892  30.388  48.299  1.00  0.00    -0.061 N 
HETATM   27  H   UNL     1       4.007  30.226  48.799  1.00  0.00     0.280 HD
HETATM   28  C   UNL     1       5.979  30.611  49.347  1.00  0.00     0.255 C 
HETATM   29  C   UNL     1       5.644  31.859  50.200  1.00  0.00     0.152 C 
HETATM   30  N   UNL     1       5.358  33.061  49.374  1.00  0.00    -0.364 N 
HETATM   31  C   UNL     1       4.374  32.855  48.283  1.00  0.00     0.152 C 
HETATM   32  C   UNL     1       4.716  31.617  47.415  1.00  0.00     0.255 C 
BRANCH  30  33
HETATM   33  C   UNL     1       6.339  34.017  49.183  1.00  0.00     0.102 A 
HETATM   34  N   UNL     1       7.224  33.814  48.190  1.00  0.00    -0.352 N 
HETATM   35  H   UNL     1       7.091  32.990  47.609  1.00  0.00     0.166 HD
HETATM   36  C   UNL     1       8.212  34.666  47.877  1.00  0.00     0.089 A 
HETATM   37  C   UNL     1       8.364  35.842  48.592  1.00  0.00     0.017 A 
HETATM   38  C   UNL     1       7.468  36.119  49.615  1.00  0.00     0.005 A 
HETATM   39  C   UNL     1       6.449  35.212  49.907  1.00  0.00     0.048 A 
ENDBRANCH  30  33
ENDBRANCH  25  26
ENDBRANCH   5  25
TORSDOF 8
ENDMDL
MODEL 8
REMARK VINA RESULT:      -9.7      3.137     11.927
REMARK  8 active torsions:
REMARK  status: ('A' for Active; 'I' for Inactive)
REMARK    1  A    between atoms: C_4  and  O_5 
REMARK    2  A    between atoms: O_5  and  C_6 
REMARK    3  A    between atoms: C_9  and  N_10 
REMARK    4  A    between atoms: N_10  and  C_11 
REMARK    5  A    between atoms: C_13  and  N_14 
REMARK    6  A    between atoms: C_16  and  C_17 
REMARK    7  A    between atoms: C_17  and  N_18 
REMARK    8  A    between atoms: N_22  and  C_23 
ROOT
HETATM    1  C   UNL     1       6.972  31.436  58.723  1.00  0.00     0.731 A 
HETATM    2  N   UNL     1       5.833  31.833  58.170  1.00  0.00    -0.031 NA
HETATM    3  C   UNL     1       5.466  31.225  57.055  1.00  0.00     0.219 A 
HETATM    4  N   UNL     1       6.144  30.247  56.474  1.00  0.00    -0.200 NA
HETATM    5  C   UNL     1       7.280  29.920  57.081  1.00  0.00     0.174 A 
HETATM    6  N   UNL     1       7.708  30.445  58.227  1.00  0.00    -0.045 NA
ENDROOT
BRANCH   1   7
HETATM    7  N   UNL     1       7.318  32.068  59.912  1.00  0.00    -0.188 N 
HETATM    8  H   UNL     1       8.327  32.105  59.997  1.00  0.00     0.184 HD
BRANCH   7   9
HETATM    9  C   UNL     1       6.612  32.382  61.083  1.00  0.00     0.049 A 
HETATM   10  C   UNL     1       6.401  31.480  62.133  1.00  0.00     0.033 A 
HETATM   11  C   UNL     1       5.654  31.845  63.260  1.00  0.00     0.039 A 
HETATM   12  C   UNL     1       5.108  33.121  63.352  1.00  0.00     0.076 A 
HETATM   13  C   UNL     1       5.264  34.021  62.301  1.00  0.00     0.039 A 
HETATM   14  C   UNL     1       6.013  33.650  61.180  1.00  0.00     0.033 A 
BRANCH  12  15
HETATM   15  O   UNL     1       4.361  33.411  64.465  1.00  0.00    -0.311 OA
BRANCH  15  16
HETATM   16  C   UNL     1       5.029  33.789  65.609  1.00  0.00     0.076 A 
HETATM   17  C   UNL     1       4.238  34.019  66.737  1.00  0.00     0.037 A 
HETATM   18  C   UNL     1       4.834  34.368  67.950  1.00  0.00     0.003 A 
HETATM   19  C   UNL     1       6.221  34.477  68.040  1.00  0.00     0.000 A 
HETATM   20  C   UNL     1       7.015  34.228  66.920  1.00  0.00     0.003 A 
HETATM   21  C   UNL     1       6.421  33.875  65.706  1.00  0.00     0.037 A 
ENDBRANCH  15  16
ENDBRANCH  12  15
ENDBRANCH   7   9
ENDBRANCH   1   7
BRANCH   3  22
HETATM   22  N   UNL     1       4.274  31.602  56.481  1.00  0.00    -0.270 NA
HETATM   23  H   UNL     1       4.341  32.536  56.091  1.00  0.00     0.127 HD
HETATM   24  H   UNL     1       3.914  30.901  55.847  1.00  0.00     0.127 HD
ENDBRANCH   3  22
BRANCH   5  25
HETATM   25  C   UNL     1       8.019  28.704  56.562  1.00  0.00     0.316 C 
BRANCH  25  26
HETATM   26  N   UNL     1       7.195  27.405  56.481  1.00  0.00    -0.061 N 
HETATM   27  H   UNL     1       6.359  27.588  57.052  1.00  0.00     0.280 HD
HETATM   28  C   UNL     1       6.724  27.103  55.060  1.00  0.00     0.255 C 
HETATM   29  C   UNL     1       5.824  25.844  55.058  1.00  0.00     0.152 C 
HETATM   30  N   UNL     1       6.457  24.682  55.734  1.00  0.00    -0.364 N 
HETATM   31  C   UNL     1       7.011  24.964  57.081  1.00  0.00     0.152 C 
HETATM   32  C   UNL     1       7.928  26.214  57.085  1.00  0.00     0.255 C 
BRANCH  30  33
HETATM   33  C   UNL     1       7.064  23.692  54.984  1.00  0.00     0.102 A 
HETATM   34  N   UNL     1       7.402  22.551  55.613  1.00  0.00    -0.352 N 
HETATM   35  H   UNL     1       7.148  22.468  56.595  1.00  0.00     0.166 HD
HETATM   36  C   UNL     1       7.974  21.500  55.008  1.00  0.00     0.089 A 
HETATM   37  C   UNL     1       8.249  21.547  53.651  1.00  0.00     0.017 A 
HETATM   38  C   UNL     1       7.904  22.688  52.942  1.00  0.00     0.005 A 
HETATM   39  C   UNL     1       7.303  23.760  53.605  1.00  0.00     0.048 A 
ENDBRANCH  30  33
ENDBRANCH  25  26
ENDBRANCH   5  25
TORSDOF 8
ENDMDL
MODEL 9
REMARK VINA RESULT:      -9.7      9.116     13.076
REMARK  8 active torsions:
REMARK  status: ('A' for Active; 'I' for Inactive)
REMARK    1  A    between atoms: C_4  and  O_5 
REMARK    2  A    between atoms: O_5  and  C_6 
REMARK    3  A    between atoms: C_9  and  N_10 
REMARK    4  A    between atoms: N_10  and  C_11 
REMARK    5  A    between atoms: C_13  and  N_14 
REMARK    6  A    between atoms: C_16  and  C_17 
REMARK    7  A    between atoms: C_17  and  N_18 
REMARK    8  A    between atoms: N_22  and  C_23 
ROOT
HETATM    1  C   UNL     1       4.419  27.331  50.521  1.00  0.00     0.731 A 
HETATM    2  N   UNL     1       4.428  28.349  51.372  1.00  0.00    -0.031 NA
HETATM    3  C   UNL     1       4.153  29.544  50.878  1.00  0.00     0.219 A 
HETATM    4  N   UNL     1       3.856  29.783  49.610  1.00  0.00    -0.200 NA
HETATM    5  C   UNL     1       3.883  28.713  48.821  1.00  0.00     0.174 A 
HETATM    6  N   UNL     1       4.106  27.468  49.235  1.00  0.00    -0.045 NA
ENDROOT
BRANCH   1   7
HETATM    7  N   UNL     1       4.679  26.081  51.073  1.00  0.00    -0.188 N 
HETATM    8  H   UNL     1       3.868  25.483  50.959  1.00  0.00     0.184 HD
BRANCH   7   9
HETATM    9  C   UNL     1       5.653  25.597  51.957  1.00  0.00     0.049 A 
HETATM   10  C   UNL     1       7.024  25.572  51.673  1.00  0.00     0.033 A 
HETATM   11  C   UNL     1       7.942  25.039  52.585  1.00  0.00     0.039 A 
HETATM   12  C   UNL     1       7.500  24.525  53.800  1.00  0.00     0.076 A 
HETATM   13  C   UNL     1       6.139  24.496  54.088  1.00  0.00     0.039 A 
HETATM   14  C   UNL     1       5.227  25.032  53.172  1.00  0.00     0.033 A 
BRANCH  12  15
HETATM   15  O   UNL     1       8.443  23.989  54.641  1.00  0.00    -0.311 OA
BRANCH  15  16
HETATM   16  C   UNL     1       8.431  22.625  54.835  1.00  0.00     0.076 A 
HETATM   17  C   UNL     1       8.255  22.192  56.152  1.00  0.00     0.037 A 
HETATM   18  C   UNL     1       8.191  20.827  56.436  1.00  0.00     0.003 A 
HETATM   19  C   UNL     1       8.291  19.894  55.405  1.00  0.00     0.000 A 
HETATM   20  C   UNL     1       8.445  20.324  54.087  1.00  0.00     0.003 A 
HETATM   21  C   UNL     1       8.506  21.690  53.799  1.00  0.00     0.037 A 
ENDBRANCH  15  16
ENDBRANCH  12  15
ENDBRANCH   7   9
ENDBRANCH   1   7
BRANCH   3  22
HETATM   22  N   UNL     1       4.131  30.609  51.749  1.00  0.00    -0.270 NA
HETATM   23  H   UNL     1       3.831  31.455  51.276  1.00  0.00     0.127 HD
HETATM   24  H   UNL     1       3.630  30.397  52.601  1.00  0.00     0.127 HD
ENDBRANCH   3  22
BRANCH   5  25
HETATM   25  C   UNL     1       3.394  28.889  47.398  1.00  0.00     0.316 C 
BRANCH  25  26
HETATM   26  N   UNL     1       1.864  28.914  47.214  1.00  0.00    -0.061 N 
HETATM   27  H   UNL     1       1.489  29.063  48.160  1.00  0.00     0.280 HD
HETATM   28  C   UNL     1       1.403  30.082  46.347  1.00  0.00     0.255 C 
HETATM   29  C   UNL     1      -0.144  30.111  46.279  1.00  0.00     0.152 C 
HETATM   30  N   UNL     1      -0.727  28.805  45.877  1.00  0.00    -0.364 N 
HETATM   31  C   UNL     1      -0.229  27.633  46.638  1.00  0.00     0.152 C 
HETATM   32  C   UNL     1       1.320  27.590  46.694  1.00  0.00     0.255 C 
BRANCH  30  33
HETATM   33  C   UNL     1      -1.127  28.599  44.569  1.00  0.00     0.102 A 
HETATM   34  N   UNL     1      -0.669  27.500  43.942  1.00  0.00    -0.352 N 
HETATM   35  H   UNL     1      -0.090  26.862  44.483  1.00  0.00     0.166 HD
HETATM   36  C   UNL     1      -0.991  27.163  42.684  1.00  0.00     0.089 A 
HETATM   37  C   UNL     1      -1.850  27.965  41.951  1.00  0.00     0.017 A 
HETATM   38  C   UNL     1      -2.374  29.101  42.551  1.00  0.00     0.005 A 
HETATM   39  C   UNL     1      -2.020  29.416  43.864  1.00  0.00     0.048 A 
ENDBRANCH  30  33
ENDBRANCH  25  26
ENDBRANCH   5  25
TORSDOF 8
ENDMDL
MODEL 10
REMARK VINA RESULT:      -9.7      4.563      7.078
REMARK  8 active torsions:
REMARK  status: ('A' for Active; 'I' for Inactive)
REMARK    1  A    between atoms: C_4  and  O_5 
REMARK    2  A    between atoms: O_5  and  C_6 
REMARK    3  A    between atoms: C_9  and  N_10 
REMARK    4  A    between atoms: N_10  and  C_11 
REMARK    5  A    between atoms: C_13  and  N_14 
REMARK    6  A    between atoms: C_16  and  C_17 
REMARK    7  A    between atoms: C_17  and  N_18 
REMARK    8  A    between atoms: N_22  and  C_23 
ROOT
HETATM    1  C   UNL     1       3.396  28.775  52.522  1.00  0.00     0.731 A 
HETATM    2  N   UNL     1       3.183  29.214  51.289  1.00  0.00    -0.031 NA
HETATM    3  C   UNL     1       2.931  30.505  51.150  1.00  0.00     0.219 A 
HETATM    4  N   UNL     1       2.898  31.376  52.146  1.00  0.00    -0.200 NA
HETATM    5  C   UNL     1       3.107  30.853  53.350  1.00  0.00     0.174 A 
HETATM    6  N   UNL     1       3.409  29.579  53.583  1.00  0.00    -0.045 NA
ENDROOT
BRANCH   1   7
HETATM    7  N   UNL     1       3.691  27.421  52.638  1.00  0.00    -0.188 N 
HETATM    8  H   UNL     1       2.831  26.884  52.638  1.00  0.00     0.184 HD
BRANCH   7   9
HETATM    9  C   UNL     1       4.835  26.709  53.026  1.00  0.00     0.049 A 
HETATM   10  C   UNL     1       6.061  27.308  53.335  1.00  0.00     0.033 A 
HETATM   11  C   UNL     1       7.178  26.536  53.679  1.00  0.00     0.039 A 
HETATM   12  C   UNL     1       7.080  25.149  53.722  1.00  0.00     0.076 A 
HETATM   13  C   UNL     1       5.885  24.526  53.375  1.00  0.00     0.039 A 
HETATM   14  C   UNL     1       4.773  25.304  53.034  1.00  0.00     0.033 A 
BRANCH  12  15
HETATM   15  O   UNL     1       8.214  24.444  54.037  1.00  0.00    -0.311 OA
BRANCH  15  16
HETATM   16  C   UNL     1       8.091  23.089  54.250  1.00  0.00     0.076 A 
HETATM   17  C   UNL     1       8.326  22.268  53.145  1.00  0.00     0.037 A 
HETATM   18  C   UNL     1       8.263  20.880  53.278  1.00  0.00     0.003 A 
HETATM   19  C   UNL     1       7.975  20.311  54.518  1.00  0.00     0.000 A 
HETATM   20  C   UNL     1       7.760  21.128  55.628  1.00  0.00     0.003 A 
HETATM   21  C   UNL     1       7.827  22.517  55.498  1.00  0.00     0.037 A 
ENDBRANCH  15  16
ENDBRANCH  12  15
ENDBRANCH   7   9
ENDBRANCH   1   7
BRANCH   3  22
HETATM   22  N   UNL     1       2.734  30.986  49.875  1.00  0.00    -0.270 NA
HETATM   23  H   UNL     1       3.464  30.662  49.251  1.00  0.00     0.127 HD
HETATM   24  H   UNL     1       1.791  30.828  49.547  1.00  0.00     0.127 HD
ENDBRANCH   3  22
BRANCH   5  25
HETATM   25  C   UNL     1       3.243  31.817  54.510  1.00  0.00     0.316 C 
BRANCH  25  26
HETATM   26  N   UNL     1       4.099  31.323  55.693  1.00  0.00    -0.061 N 
HETATM   27  H   UNL     1       4.278  32.164  56.257  1.00  0.00     0.280 HD
HETATM   28  C   UNL     1       3.349  30.329  56.576  1.00  0.00     0.255 C 
HETATM   29  C   UNL     1       4.221  29.943  57.796  1.00  0.00     0.152 C 
HETATM   30  N   UNL     1       5.582  29.488  57.411  1.00  0.00    -0.364 N 
HETATM   31  C   UNL     1       6.304  30.387  56.476  1.00  0.00     0.152 C 
HETATM   32  C   UNL     1       5.441  30.761  55.243  1.00  0.00     0.255 C 
BRANCH  30  33
HETATM   33  C   UNL     1       5.869  28.137  57.354  1.00  0.00     0.102 A 
HETATM   34  N   UNL     1       4.868  27.300  57.025  1.00  0.00    -0.352 N 
HETATM   35  H   UNL     1       3.970  27.717  56.793  1.00  0.00     0.166 HD
HETATM   36  C   UNL     1       5.007  25.970  56.911  1.00  0.00     0.089 A 
HETATM   37  C   UNL     1       6.240  25.381  57.132  1.00  0.00     0.017 A 
HETATM   38  C   UNL     1       7.318  26.194  57.453  1.00  0.00     0.005 A 
HETATM   39  C   UNL     1       7.136  27.575  57.557  1.00  0.00     0.048 A 
ENDBRANCH  30  33
ENDBRANCH  25  26
ENDBRANCH   5  25
TORSDOF 8
ENDMDL
