MODEL 1
REMARK VINA RESULT:      -8.8      0.000      0.000
REMARK  6 active torsions:
REMARK  status: ('A' for Active; 'I' for Inactive)
REMARK    1  A    between atoms: C_4  and  O_5 
REMARK    2  A    between atoms: O_5  and  C_6 
REMARK    3  A    between atoms: C_6  and  C_7 
REMARK    4  A    between atoms: C_10  and  C_11 
REMARK    5  A    between atoms: C_11  and  N_12 
REMARK       I    between atoms: N_12  and  C_13 
REMARK       I    between atoms: C_13  and  N_14 
REMARK    6  A    between atoms: N_14  and  C_15 
ROOT
HETATM    1  C   UNL     1       6.628  24.833  56.439  1.00  0.00     0.165 C 
ENDROOT
BRANCH   1   2
HETATM    2  C   UNL     1       7.030  23.757  55.455  1.00  0.00    -0.007 A 
HETATM    3  C   UNL     1       6.814  23.868  54.069  1.00  0.00     0.077 A 
HETATM    4  C   UNL     1       7.284  22.863  53.210  1.00  0.00     0.044 A 
HETATM    5  C   UNL     1       7.941  21.733  53.712  1.00  0.00    -0.059 A 
HETATM    6  C   UNL     1       8.460  20.670  52.789  1.00  0.00     0.048 C 
HETATM    7  C   UNL     1       8.155  21.626  55.087  1.00  0.00     0.007 A 
HETATM    8  C   UNL     1       7.707  22.628  55.947  1.00  0.00     0.012 A 
BRANCH   3   9
HETATM    9  O   UNL     1       6.152  24.995  53.644  1.00  0.00    -0.350 OA
BRANCH   9  10
HETATM   10  C   UNL     1       5.309  24.854  52.499  1.00  0.00     0.180 C 
BRANCH  10  11
HETATM   11  C   UNL     1       5.830  25.770  51.433  1.00  0.00     0.010 A 
HETATM   12  C   UNL     1       4.938  26.190  50.292  1.00  0.00     0.007 A 
HETATM   13  C   UNL     1       5.341  27.193  51.337  1.00  0.00     0.007 A 
ENDBRANCH  10  11
ENDBRANCH   9  10
ENDBRANCH   3   9
ENDBRANCH   1   2
BRANCH   1  14
HETATM   14  N   UNL     1       7.065  26.155  56.050  1.00  0.00    -0.339 N 
HETATM   15  C   UNL     1       7.875  26.892  56.883  1.00  0.00     0.321 C 
HETATM   16  N   UNL     1       8.337  28.029  56.261  1.00  0.00    -0.307 N 
HETATM   17  O   UNL     1       8.117  26.549  58.034  1.00  0.00    -0.247 OA
HETATM   18  H   UNL     1       8.141  28.094  55.276  1.00  0.00     0.170 HD
HETATM   19  H   UNL     1       7.147  26.288  55.052  1.00  0.00     0.164 HD
BRANCH  16  20
HETATM   20  C   UNL     1       9.107  29.063  56.842  1.00  0.00     0.059 A 
HETATM   21  C   UNL     1       8.487  29.989  57.703  1.00  0.00    -0.032 A 
HETATM   22  C   UNL     1       7.014  29.958  58.000  1.00  0.00     0.050 C 
HETATM   23  C   UNL     1       9.270  30.989  58.299  1.00  0.00     0.028 A 
HETATM   24  C   UNL     1      10.625  31.041  58.021  1.00  0.00     0.117 A 
HETATM   25  N   UNL     1      11.249  30.178  57.201  1.00  0.00    -0.271 NA
HETATM   26  C   UNL     1      10.479  29.214  56.631  1.00  0.00     0.146 A 
ENDBRANCH  16  20
ENDBRANCH   1  14
TORSDOF 6
ENDMDL
MODEL 2
REMARK VINA RESULT:      -8.5      3.121      3.855
REMARK  6 active torsions:
REMARK  status: ('A' for Active; 'I' for Inactive)
REMARK    1  A    between atoms: C_4  and  O_5 
REMARK    2  A    between atoms: O_5  and  C_6 
REMARK    3  A    between atoms: C_6  and  C_7 
REMARK    4  A    between atoms: C_10  and  C_11 
REMARK    5  A    between atoms: C_11  and  N_12 
REMARK       I    between atoms: N_12  and  C_13 
REMARK       I    between atoms: C_13  and  N_14 
REMARK    6  A    between atoms: N_14  and  C_15 
ROOT
HETATM    1  C   UNL     1       7.229  24.892  56.172  1.00  0.00     0.165 C 
ENDROOT
BRANCH   1   2
HETATM    2  C   UNL     1       7.523  23.725  55.257  1.00  0.00    -0.007 A 
HETATM    3  C   UNL     1       7.914  23.884  53.914  1.00  0.00     0.077 A 
HETATM    4  C   UNL     1       8.245  22.757  53.148  1.00  0.00     0.044 A 
HETATM    5  C   UNL     1       8.164  21.467  53.689  1.00  0.00    -0.059 A 
HETATM    6  C   UNL     1       8.538  20.264  52.873  1.00  0.00     0.048 C 
HETATM    7  C   UNL     1       7.777  21.312  55.021  1.00  0.00     0.007 A 
HETATM    8  C   UNL     1       7.464  22.428  55.796  1.00  0.00     0.012 A 
BRANCH   3   9
HETATM    9  O   UNL     1       7.960  25.174  53.443  1.00  0.00    -0.350 OA
BRANCH   9  10
HETATM   10  C   UNL     1       7.493  25.391  52.110  1.00  0.00     0.180 C 
BRANCH  10  11
HETATM   11  C   UNL     1       6.084  25.896  52.195  1.00  0.00     0.010 A 
HETATM   12  C   UNL     1       5.133  25.686  51.044  1.00  0.00     0.007 A 
HETATM   13  C   UNL     1       4.930  24.935  52.330  1.00  0.00     0.007 A 
ENDBRANCH  10  11
ENDBRANCH   9  10
ENDBRANCH   3   9
ENDBRANCH   1   2
BRANCH   1  14
HETATM   14  N   UNL     1       5.983  25.558  55.868  1.00  0.00    -0.339 N 
HETATM   15  C   UNL     1       5.893  26.929  55.938  1.00  0.00     0.321 C 
HETATM   16  N   UNL     1       4.698  27.383  55.429  1.00  0.00    -0.307 N 
HETATM   17  O   UNL     1       6.784  27.620  56.415  1.00  0.00    -0.247 OA
HETATM   18  H   UNL     1       4.133  26.690  54.966  1.00  0.00     0.170 HD
HETATM   19  H   UNL     1       5.402  25.068  55.202  1.00  0.00     0.164 HD
BRANCH  16  20
HETATM   20  C   UNL     1       4.224  28.715  55.430  1.00  0.00     0.059 A 
HETATM   21  C   UNL     1       3.844  29.318  54.216  1.00  0.00    -0.032 A 
HETATM   22  C   UNL     1       3.967  28.619  52.892  1.00  0.00     0.050 C 
HETATM   23  C   UNL     1       3.344  30.629  54.237  1.00  0.00     0.028 A 
HETATM   24  C   UNL     1       3.242  31.293  55.449  1.00  0.00     0.117 A 
HETATM   25  N   UNL     1       3.599  30.750  56.626  1.00  0.00    -0.271 NA
HETATM   26  C   UNL     1       4.081  29.480  56.590  1.00  0.00     0.146 A 
ENDBRANCH  16  20
ENDBRANCH   1  14
TORSDOF 6
ENDMDL
MODEL 3
REMARK VINA RESULT:      -8.5      3.296      7.665
REMARK  6 active torsions:
REMARK  status: ('A' for Active; 'I' for Inactive)
REMARK    1  A    between atoms: C_4  and  O_5 
REMARK    2  A    between atoms: O_5  and  C_6 
REMARK    3  A    between atoms: C_6  and  C_7 
REMARK    4  A    between atoms: C_10  and  C_11 
REMARK    5  A    between atoms: C_11  and  N_12 
REMARK       I    between atoms: N_12  and  C_13 
REMARK       I    between atoms: C_13  and  N_14 
REMARK    6  A    between atoms: N_14  and  C_15 
ROOT
HETATM    1  C   UNL     1       6.885  25.924  52.654  1.00  0.00     0.165 C 
ENDROOT
BRANCH   1   2
HETATM    2  C   UNL     1       7.219  24.613  53.328  1.00  0.00    -0.007 A 
HETATM    3  C   UNL     1       6.949  24.358  54.686  1.00  0.00     0.077 A 
HETATM    4  C   UNL     1       7.217  23.090  55.222  1.00  0.00     0.044 A 
HETATM    5  C   UNL     1       7.778  22.076  54.433  1.00  0.00    -0.059 A 
HETATM    6  C   UNL     1       8.044  20.714  55.005  1.00  0.00     0.048 C 
HETATM    7  C   UNL     1       8.044  22.331  53.087  1.00  0.00     0.007 A 
HETATM    8  C   UNL     1       7.764  23.583  52.541  1.00  0.00     0.012 A 
BRANCH   3   9
HETATM    9  O   UNL     1       6.413  25.399  55.405  1.00  0.00    -0.350 OA
BRANCH   9  10
HETATM   10  C   UNL     1       7.102  25.782  56.596  1.00  0.00     0.180 C 
BRANCH  10  11
HETATM   11  C   UNL     1       7.408  27.246  56.496  1.00  0.00     0.010 A 
HETATM   12  C   UNL     1       7.403  28.108  57.733  1.00  0.00     0.007 A 
HETATM   13  C   UNL     1       8.701  27.799  57.040  1.00  0.00     0.007 A 
ENDBRANCH  10  11
ENDBRANCH   9  10
ENDBRANCH   3   9
ENDBRANCH   1   2
BRANCH   1  14
HETATM   14  N   UNL     1       6.405  25.766  51.300  1.00  0.00    -0.339 N 
HETATM   15  C   UNL     1       5.398  26.571  50.821  1.00  0.00     0.321 C 
HETATM   16  N   UNL     1       5.217  26.402  49.467  1.00  0.00    -0.307 N 
HETATM   17  O   UNL     1       4.757  27.321  51.547  1.00  0.00    -0.247 OA
HETATM   18  H   UNL     1       5.910  25.837  49.004  1.00  0.00     0.170 HD
HETATM   19  H   UNL     1       7.099  25.420  50.652  1.00  0.00     0.164 HD
BRANCH  16  20
HETATM   20  C   UNL     1       4.212  26.988  48.663  1.00  0.00     0.059 A 
HETATM   21  C   UNL     1       3.221  26.170  48.086  1.00  0.00    -0.032 A 
HETATM   22  C   UNL     1       3.211  24.676  48.246  1.00  0.00     0.050 C 
HETATM   23  C   UNL     1       2.211  26.770  47.319  1.00  0.00     0.028 A 
HETATM   24  C   UNL     1       2.218  28.144  47.148  1.00  0.00     0.117 A 
HETATM   25  N   UNL     1       3.150  28.954  47.680  1.00  0.00    -0.271 NA
HETATM   26  C   UNL     1       4.123  28.360  48.421  1.00  0.00     0.146 A 
ENDBRANCH  16  20
ENDBRANCH   1  14
TORSDOF 6
ENDMDL
MODEL 4
REMARK VINA RESULT:      -8.0      3.829      6.597
REMARK  6 active torsions:
REMARK  status: ('A' for Active; 'I' for Inactive)
REMARK    1  A    between atoms: C_4  and  O_5 
REMARK    2  A    between atoms: O_5  and  C_6 
REMARK    3  A    between atoms: C_6  and  C_7 
REMARK    4  A    between atoms: C_10  and  C_11 
REMARK    5  A    between atoms: C_11  and  N_12 
REMARK       I    between atoms: N_12  and  C_13 
REMARK       I    between atoms: C_13  and  N_14 
REMARK    6  A    between atoms: N_14  and  C_15 
ROOT
HETATM    1  C   UNL     1       4.730  24.831  53.268  1.00  0.00     0.165 C 
ENDROOT
BRANCH   1   2
HETATM    2  C   UNL     1       5.745  24.801  54.388  1.00  0.00    -0.007 A 
HETATM    3  C   UNL     1       7.062  24.335  54.216  1.00  0.00     0.077 A 
HETATM    4  C   UNL     1       7.970  24.410  55.282  1.00  0.00     0.044 A 
HETATM    5  C   UNL     1       7.581  24.917  56.529  1.00  0.00    -0.059 A 
HETATM    6  C   UNL     1       8.560  25.014  57.662  1.00  0.00     0.048 C 
HETATM    7  C   UNL     1       6.275  25.380  56.696  1.00  0.00     0.007 A 
HETATM    8  C   UNL     1       5.369  25.326  55.637  1.00  0.00     0.012 A 
BRANCH   3   9
HETATM    9  O   UNL     1       7.374  23.838  52.974  1.00  0.00    -0.350 OA
BRANCH   9  10
HETATM   10  C   UNL     1       8.381  22.826  52.918  1.00  0.00     0.180 C 
BRANCH  10  11
HETATM   11  C   UNL     1       7.714  21.504  53.151  1.00  0.00     0.010 A 
HETATM   12  C   UNL     1       8.483  20.223  52.955  1.00  0.00     0.007 A 
HETATM   13  C   UNL     1       8.087  20.655  54.340  1.00  0.00     0.007 A 
ENDBRANCH  10  11
ENDBRANCH   9  10
ENDBRANCH   3   9
ENDBRANCH   1   2
BRANCH   1  14
HETATM   14  N   UNL     1       4.294  26.167  52.926  1.00  0.00    -0.339 N 
HETATM   15  C   UNL     1       4.862  26.833  51.864  1.00  0.00     0.321 C 
HETATM   16  N   UNL     1       4.186  27.997  51.581  1.00  0.00    -0.307 N 
HETATM   17  O   UNL     1       5.853  26.412  51.282  1.00  0.00    -0.247 OA
HETATM   18  H   UNL     1       3.321  28.130  52.078  1.00  0.00     0.170 HD
HETATM   19  H   UNL     1       3.331  26.362  53.162  1.00  0.00     0.164 HD
BRANCH  16  20
HETATM   20  C   UNL     1       4.545  28.977  50.626  1.00  0.00     0.059 A 
HETATM   21  C   UNL     1       3.770  29.126  49.460  1.00  0.00    -0.032 A 
HETATM   22  C   UNL     1       2.590  28.247  49.154  1.00  0.00     0.050 C 
HETATM   23  C   UNL     1       4.118  30.125  48.538  1.00  0.00     0.028 A 
HETATM   24  C   UNL     1       5.214  30.931  48.797  1.00  0.00     0.117 A 
HETATM   25  N   UNL     1       5.979  30.814  49.897  1.00  0.00    -0.271 NA
HETATM   26  C   UNL     1       5.630  29.843  50.781  1.00  0.00     0.146 A 
ENDBRANCH  16  20
ENDBRANCH   1  14
TORSDOF 6
ENDMDL
MODEL 5
REMARK VINA RESULT:      -7.9      3.174      7.770
REMARK  6 active torsions:
REMARK  status: ('A' for Active; 'I' for Inactive)
REMARK    1  A    between atoms: C_4  and  O_5 
REMARK    2  A    between atoms: O_5  and  C_6 
REMARK    3  A    between atoms: C_6  and  C_7 
REMARK    4  A    between atoms: C_10  and  C_11 
REMARK    5  A    between atoms: C_11  and  N_12 
REMARK       I    between atoms: N_12  and  C_13 
REMARK       I    between atoms: C_13  and  N_14 
REMARK    6  A    between atoms: N_14  and  C_15 
ROOT
HETATM    1  C   UNL     1       7.035  24.938  52.853  1.00  0.00     0.165 C 
ENDROOT
BRANCH   1   2
HETATM    2  C   UNL     1       7.239  25.745  54.115  1.00  0.00    -0.007 A 
HETATM    3  C   UNL     1       7.323  25.161  55.393  1.00  0.00     0.077 A 
HETATM    4  C   UNL     1       7.591  25.967  56.509  1.00  0.00     0.044 A 
HETATM    5  C   UNL     1       7.747  27.353  56.379  1.00  0.00    -0.059 A 
HETATM    6  C   UNL     1       8.053  28.210  57.572  1.00  0.00     0.048 C 
HETATM    7  C   UNL     1       7.664  27.930  55.111  1.00  0.00     0.007 A 
HETATM    8  C   UNL     1       7.416  27.134  53.992  1.00  0.00     0.012 A 
BRANCH   3   9
HETATM    9  O   UNL     1       7.147  23.799  55.452  1.00  0.00    -0.350 OA
BRANCH   9  10
HETATM   10  C   UNL     1       8.191  23.040  56.063  1.00  0.00     0.180 C 
BRANCH  10  11
HETATM   11  C   UNL     1       8.739  22.102  55.030  1.00  0.00     0.010 A 
HETATM   12  C   UNL     1       8.350  20.645  55.046  1.00  0.00     0.007 A 
HETATM   13  C   UNL     1       7.848  21.543  53.950  1.00  0.00     0.007 A 
ENDBRANCH  10  11
ENDBRANCH   9  10
ENDBRANCH   3   9
ENDBRANCH   1   2
BRANCH   1  14
HETATM   14  N   UNL     1       6.850  25.756  51.674  1.00  0.00    -0.339 N 
HETATM   15  C   UNL     1       5.630  25.796  51.042  1.00  0.00     0.321 C 
HETATM   16  N   UNL     1       5.598  26.769  50.069  1.00  0.00    -0.307 N 
HETATM   17  O   UNL     1       4.717  25.033  51.330  1.00  0.00    -0.247 OA
HETATM   18  H   UNL     1       6.393  27.387  50.048  1.00  0.00     0.170 HD
HETATM   19  H   UNL     1       7.441  26.575  51.641  1.00  0.00     0.164 HD
BRANCH  16  20
HETATM   20  C   UNL     1       4.548  27.027  49.158  1.00  0.00     0.059 A 
HETATM   21  C   UNL     1       3.590  28.013  49.463  1.00  0.00    -0.032 A 
HETATM   22  C   UNL     1       3.604  28.782  50.753  1.00  0.00     0.050 C 
HETATM   23  C   UNL     1       2.573  28.280  48.534  1.00  0.00     0.028 A 
HETATM   24  C   UNL     1       2.538  27.567  47.347  1.00  0.00     0.117 A 
HETATM   25  N   UNL     1       3.432  26.616  47.025  1.00  0.00    -0.271 NA
HETATM   26  C   UNL     1       4.412  26.367  47.934  1.00  0.00     0.146 A 
ENDBRANCH  16  20
ENDBRANCH   1  14
TORSDOF 6
ENDMDL
MODEL 6
REMARK VINA RESULT:      -7.8      2.471      7.585
REMARK  6 active torsions:
REMARK  status: ('A' for Active; 'I' for Inactive)
REMARK    1  A    between atoms: C_4  and  O_5 
REMARK    2  A    between atoms: O_5  and  C_6 
REMARK    3  A    between atoms: C_6  and  C_7 
REMARK    4  A    between atoms: C_10  and  C_11 
REMARK    5  A    between atoms: C_11  and  N_12 
REMARK       I    between atoms: N_12  and  C_13 
REMARK       I    between atoms: C_13  and  N_14 
REMARK    6  A    between atoms: N_14  and  C_15 
ROOT
HETATM    1  C   UNL     1       6.555  27.085  53.413  1.00  0.00     0.165 C 
ENDROOT
BRANCH   1   2
HETATM    2  C   UNL     1       5.989  27.863  54.579  1.00  0.00    -0.007 A 
HETATM    3  C   UNL     1       6.796  28.443  55.577  1.00  0.00     0.077 A 
HETATM    4  C   UNL     1       6.205  29.216  56.586  1.00  0.00     0.044 A 
HETATM    5  C   UNL     1       4.816  29.399  56.637  1.00  0.00    -0.059 A 
HETATM    6  C   UNL     1       4.189  30.243  57.707  1.00  0.00     0.048 C 
HETATM    7  C   UNL     1       4.019  28.823  55.647  1.00  0.00     0.007 A 
HETATM    8  C   UNL     1       4.599  28.068  54.629  1.00  0.00     0.012 A 
BRANCH   3   9
HETATM    9  O   UNL     1       8.147  28.214  55.475  1.00  0.00    -0.350 OA
BRANCH   9  10
HETATM   10  C   UNL     1       9.008  29.339  55.665  1.00  0.00     0.180 C 
BRANCH  10  11
HETATM   11  C   UNL     1       9.785  29.112  56.926  1.00  0.00     0.010 A 
HETATM   12  C   UNL     1      11.142  29.746  57.104  1.00  0.00     0.007 A 
HETATM   13  C   UNL     1       9.976  30.227  57.922  1.00  0.00     0.007 A 
ENDBRANCH  10  11
ENDBRANCH   9  10
ENDBRANCH   3   9
ENDBRANCH   1   2
BRANCH   1  14
HETATM   14  N   UNL     1       7.550  26.111  53.804  1.00  0.00    -0.339 N 
HETATM   15  C   UNL     1       7.196  24.796  53.999  1.00  0.00     0.321 C 
HETATM   16  N   UNL     1       8.303  23.997  54.172  1.00  0.00    -0.307 N 
HETATM   17  O   UNL     1       6.028  24.429  54.022  1.00  0.00    -0.247 OA
HETATM   18  H   UNL     1       9.190  24.441  54.001  1.00  0.00     0.170 HD
HETATM   19  H   UNL     1       8.484  26.319  53.478  1.00  0.00     0.164 HD
BRANCH  16  20
HETATM   20  C   UNL     1       8.315  22.620  54.494  1.00  0.00     0.059 A 
HETATM   21  C   UNL     1       8.325  22.223  55.845  1.00  0.00    -0.032 A 
HETATM   22  C   UNL     1       8.374  23.209  56.977  1.00  0.00     0.050 C 
HETATM   23  C   UNL     1       8.303  20.853  56.149  1.00  0.00     0.028 A 
HETATM   24  C   UNL     1       8.275  19.932  55.115  1.00  0.00     0.117 A 
HETATM   25  N   UNL     1       8.269  20.275  53.815  1.00  0.00    -0.271 NA
HETATM   26  C   UNL     1       8.291  21.605  53.535  1.00  0.00     0.146 A 
ENDBRANCH  16  20
ENDBRANCH   1  14
TORSDOF 6
ENDMDL
MODEL 7
REMARK VINA RESULT:      -7.7      2.514      8.882
REMARK  6 active torsions:
REMARK  status: ('A' for Active; 'I' for Inactive)
REMARK    1  A    between atoms: C_4  and  O_5 
REMARK    2  A    between atoms: O_5  and  C_6 
REMARK    3  A    between atoms: C_6  and  C_7 
REMARK    4  A    between atoms: C_10  and  C_11 
REMARK    5  A    between atoms: C_11  and  N_12 
REMARK       I    between atoms: N_12  and  C_13 
REMARK       I    between atoms: C_13  and  N_14 
REMARK    6  A    between atoms: N_14  and  C_15 
ROOT
HETATM    1  C   UNL     1       7.772  28.291  57.719  1.00  0.00     0.165 C 
ENDROOT
BRANCH   1   2
HETATM    2  C   UNL     1       7.035  29.605  57.843  1.00  0.00    -0.007 A 
HETATM    3  C   UNL     1       7.323  30.555  58.842  1.00  0.00     0.077 A 
HETATM    4  C   UNL     1       6.650  31.785  58.847  1.00  0.00     0.044 A 
HETATM    5  C   UNL     1       5.670  32.077  57.888  1.00  0.00    -0.059 A 
HETATM    6  C   UNL     1       4.967  33.402  57.884  1.00  0.00     0.048 C 
HETATM    7  C   UNL     1       5.387  31.134  56.898  1.00  0.00     0.007 A 
HETATM    8  C   UNL     1       6.064  29.916  56.874  1.00  0.00     0.012 A 
BRANCH   3   9
HETATM    9  O   UNL     1       8.283  30.200  59.759  1.00  0.00    -0.350 OA
BRANCH   9  10
HETATM   10  C   UNL     1       8.858  31.255  60.531  1.00  0.00     0.180 C 
BRANCH  10  11
HETATM   11  C   UNL     1       8.441  31.058  61.957  1.00  0.00     0.010 A 
HETATM   12  C   UNL     1       8.379  32.235  62.898  1.00  0.00     0.007 A 
HETATM   13  C   UNL     1       7.110  31.568  62.446  1.00  0.00     0.007 A 
ENDBRANCH  10  11
ENDBRANCH   9  10
ENDBRANCH   3   9
ENDBRANCH   1   2
BRANCH   1  14
HETATM   14  N   UNL     1       7.438  27.560  56.517  1.00  0.00    -0.339 N 
HETATM   15  C   UNL     1       7.785  26.235  56.392  1.00  0.00     0.321 C 
HETATM   16  N   UNL     1       7.216  25.668  55.274  1.00  0.00    -0.307 N 
HETATM   17  O   UNL     1       8.522  25.672  57.192  1.00  0.00    -0.247 OA
HETATM   18  H   UNL     1       6.539  26.239  54.795  1.00  0.00     0.170 HD
HETATM   19  H   UNL     1       6.607  27.890  56.048  1.00  0.00     0.164 HD
BRANCH  16  20
HETATM   20  C   UNL     1       7.432  24.361  54.780  1.00  0.00     0.059 A 
HETATM   21  C   UNL     1       7.810  24.182  53.435  1.00  0.00    -0.032 A 
HETATM   22  C   UNL     1       7.948  25.327  52.474  1.00  0.00     0.050 C 
HETATM   23  C   UNL     1       8.053  22.881  52.968  1.00  0.00     0.028 A 
HETATM   24  C   UNL     1       7.912  21.813  53.838  1.00  0.00     0.117 A 
HETATM   25  N   UNL     1       7.550  21.947  55.126  1.00  0.00    -0.271 NA
HETATM   26  C   UNL     1       7.317  23.212  55.565  1.00  0.00     0.146 A 
ENDBRANCH  16  20
ENDBRANCH   1  14
TORSDOF 6
ENDMDL
MODEL 8
REMARK VINA RESULT:      -7.6      3.114      5.307
REMARK  6 active torsions:
REMARK  status: ('A' for Active; 'I' for Inactive)
REMARK    1  A    between atoms: C_4  and  O_5 
REMARK    2  A    between atoms: O_5  and  C_6 
REMARK    3  A    between atoms: C_6  and  C_7 
REMARK    4  A    between atoms: C_10  and  C_11 
REMARK    5  A    between atoms: C_11  and  N_12 
REMARK       I    between atoms: N_12  and  C_13 
REMARK       I    between atoms: C_13  and  N_14 
REMARK    6  A    between atoms: N_14  and  C_15 
ROOT
HETATM    1  C   UNL     1       7.299  25.713  52.973  1.00  0.00     0.165 C 
ENDROOT
BRANCH   1   2
HETATM    2  C   UNL     1       7.519  24.359  53.607  1.00  0.00    -0.007 A 
HETATM    3  C   UNL     1       7.325  24.115  54.980  1.00  0.00     0.077 A 
HETATM    4  C   UNL     1       7.473  22.814  55.483  1.00  0.00     0.044 A 
HETATM    5  C   UNL     1       7.841  21.753  54.645  1.00  0.00    -0.059 A 
HETATM    6  C   UNL     1       7.979  20.359  55.182  1.00  0.00     0.048 C 
HETATM    7  C   UNL     1       8.032  21.997  53.284  1.00  0.00     0.007 A 
HETATM    8  C   UNL     1       7.868  23.284  52.771  1.00  0.00     0.012 A 
BRANCH   3   9
HETATM    9  O   UNL     1       6.979  25.201  55.747  1.00  0.00    -0.350 OA
BRANCH   9  10
HETATM   10  C   UNL     1       7.953  25.666  56.683  1.00  0.00     0.180 C 
BRANCH  10  11
HETATM   11  C   UNL     1       7.618  27.086  57.026  1.00  0.00     0.010 A 
HETATM   12  C   UNL     1       8.717  28.099  57.221  1.00  0.00     0.007 A 
HETATM   13  C   UNL     1       7.820  28.188  56.017  1.00  0.00     0.007 A 
ENDBRANCH  10  11
ENDBRANCH   9  10
ENDBRANCH   3   9
ENDBRANCH   1   2
BRANCH   1  14
HETATM   14  N   UNL     1       6.033  26.314  53.331  1.00  0.00    -0.339 N 
HETATM   15  C   UNL     1       5.810  27.652  53.100  1.00  0.00     0.321 C 
HETATM   16  N   UNL     1       4.495  27.989  53.325  1.00  0.00    -0.307 N 
HETATM   17  O   UNL     1       6.702  28.415  52.751  1.00  0.00    -0.247 OA
HETATM   18  H   UNL     1       3.870  27.216  53.488  1.00  0.00     0.170 HD
HETATM   19  H   UNL     1       5.249  25.679  53.300  1.00  0.00     0.164 HD
BRANCH  16  20
HETATM   20  C   UNL     1       3.930  29.285  53.284  1.00  0.00     0.059 A 
HETATM   21  C   UNL     1       3.774  30.012  54.480  1.00  0.00    -0.032 A 
HETATM   22  C   UNL     1       4.139  29.448  55.823  1.00  0.00     0.050 C 
HETATM   23  C   UNL     1       3.243  31.310  54.419  1.00  0.00     0.028 A 
HETATM   24  C   UNL     1       2.886  31.836  53.189  1.00  0.00     0.117 A 
HETATM   25  N   UNL     1       3.017  31.170  52.029  1.00  0.00    -0.271 NA
HETATM   26  C   UNL     1       3.532  29.914  52.102  1.00  0.00     0.146 A 
ENDBRANCH  16  20
ENDBRANCH   1  14
TORSDOF 6
ENDMDL
MODEL 9
REMARK VINA RESULT:      -7.5      3.736      7.696
REMARK  6 active torsions:
REMARK  status: ('A' for Active; 'I' for Inactive)
REMARK    1  A    between atoms: C_4  and  O_5 
REMARK    2  A    between atoms: O_5  and  C_6 
REMARK    3  A    between atoms: C_6  and  C_7 
REMARK    4  A    between atoms: C_10  and  C_11 
REMARK    5  A    between atoms: C_11  and  N_12 
REMARK       I    between atoms: N_12  and  C_13 
REMARK       I    between atoms: C_13  and  N_14 
REMARK    6  A    between atoms: N_14  and  C_15 
ROOT
HETATM    1  C   UNL     1       6.343  27.565  52.771  1.00  0.00     0.165 C 
ENDROOT
BRANCH   1   2
HETATM    2  C   UNL     1       6.739  26.134  53.054  1.00  0.00    -0.007 A 
HETATM    3  C   UNL     1       6.255  25.409  54.159  1.00  0.00     0.077 A 
HETATM    4  C   UNL     1       6.606  24.060  54.313  1.00  0.00     0.044 A 
HETATM    5  C   UNL     1       7.458  23.426  53.398  1.00  0.00    -0.059 A 
HETATM    6  C   UNL     1       7.816  21.977  53.555  1.00  0.00     0.048 C 
HETATM    7  C   UNL     1       7.936  24.147  52.303  1.00  0.00     0.007 A 
HETATM    8  C   UNL     1       7.577  25.483  52.131  1.00  0.00     0.012 A 
BRANCH   3   9
HETATM    9  O   UNL     1       5.436  26.093  55.024  1.00  0.00    -0.350 OA
BRANCH   9  10
HETATM   10  C   UNL     1       5.834  26.130  56.396  1.00  0.00     0.180 C 
BRANCH  10  11
HETATM   11  C   UNL     1       6.439  27.475  56.661  1.00  0.00     0.010 A 
HETATM   12  C   UNL     1       7.499  27.634  57.721  1.00  0.00     0.007 A 
HETATM   13  C   UNL     1       7.865  27.767  56.269  1.00  0.00     0.007 A 
ENDBRANCH  10  11
ENDBRANCH   9  10
ENDBRANCH   3   9
ENDBRANCH   1   2
BRANCH   1  14
HETATM   14  N   UNL     1       4.992  27.697  52.271  1.00  0.00    -0.339 N 
HETATM   15  C   UNL     1       4.764  27.870  50.925  1.00  0.00     0.321 C 
HETATM   16  N   UNL     1       3.424  27.778  50.626  1.00  0.00    -0.307 N 
HETATM   17  O   UNL     1       5.669  28.089  50.130  1.00  0.00    -0.247 OA
HETATM   18  H   UNL     1       2.831  27.472  51.379  1.00  0.00     0.170 HD
HETATM   19  H   UNL     1       4.297  27.214  52.822  1.00  0.00     0.164 HD
BRANCH  16  20
HETATM   20  C   UNL     1       2.817  28.002  49.368  1.00  0.00     0.059 A 
HETATM   21  C   UNL     1       2.000  29.134  49.183  1.00  0.00    -0.032 A 
HETATM   22  C   UNL     1       1.698  30.103  50.291  1.00  0.00     0.050 C 
HETATM   23  C   UNL     1       1.431  29.360  47.921  1.00  0.00     0.028 A 
HETATM   24  C   UNL     1       1.686  28.465  46.895  1.00  0.00     0.117 A 
HETATM   25  N   UNL     1       2.458  27.373  47.037  1.00  0.00    -0.271 NA
HETATM   26  C   UNL     1       3.002  27.166  48.264  1.00  0.00     0.146 A 
ENDBRANCH  16  20
ENDBRANCH   1  14
TORSDOF 6
ENDMDL
MODEL 10
REMARK VINA RESULT:      -7.5      2.323      7.983
REMARK  6 active torsions:
REMARK  status: ('A' for Active; 'I' for Inactive)
REMARK    1  A    between atoms: C_4  and  O_5 
REMARK    2  A    between atoms: O_5  and  C_6 
REMARK    3  A    between atoms: C_6  and  C_7 
REMARK    4  A    between atoms: C_10  and  C_11 
REMARK    5  A    between atoms: C_11  and  N_12 
REMARK       I    between atoms: N_12  and  C_13 
REMARK       I    between atoms: C_13  and  N_14 
REMARK    6  A    between atoms: N_14  and  C_15 
ROOT
HETATM    1  C   UNL     1       5.514  28.576  54.889  1.00  0.00     0.165 C 
ENDROOT
BRANCH   1   2
HETATM    2  C   UNL     1       5.177  29.437  56.086  1.00  0.00    -0.007 A 
HETATM    3  C   UNL     1       6.158  30.030  56.903  1.00  0.00     0.077 A 
HETATM    4  C   UNL     1       5.769  30.879  57.950  1.00  0.00     0.044 A 
HETATM    5  C   UNL     1       4.416  31.125  58.216  1.00  0.00    -0.059 A 
HETATM    6  C   UNL     1       4.004  32.050  59.324  1.00  0.00     0.048 C 
HETATM    7  C   UNL     1       3.446  30.536  57.404  1.00  0.00     0.007 A 
HETATM    8  C   UNL     1       3.823  29.705  56.349  1.00  0.00     0.012 A 
BRANCH   3   9
HETATM    9  O   UNL     1       7.464  29.737  56.596  1.00  0.00    -0.350 OA
BRANCH   9  10
HETATM   10  C   UNL     1       8.409  29.804  57.665  1.00  0.00     0.180 C 
BRANCH  10  11
HETATM   11  C   UNL     1       9.708  30.290  57.098  1.00  0.00     0.010 A 
HETATM   12  C   UNL     1      10.910  29.381  57.070  1.00  0.00     0.007 A 
HETATM   13  C   UNL     1      10.223  29.755  55.786  1.00  0.00     0.007 A 
ENDBRANCH  10  11
ENDBRANCH   9  10
ENDBRANCH   3   9
ENDBRANCH   1   2
BRANCH   1  14
HETATM   14  N   UNL     1       6.482  27.543  55.182  1.00  0.00    -0.339 N 
HETATM   15  C   UNL     1       6.299  26.265  54.707  1.00  0.00     0.321 C 
HETATM   16  N   UNL     1       7.411  25.484  54.922  1.00  0.00    -0.307 N 
HETATM   17  O   UNL     1       5.255  25.906  54.177  1.00  0.00    -0.247 OA
HETATM   18  H   UNL     1       8.225  25.970  55.259  1.00  0.00     0.170 HD
HETATM   19  H   UNL     1       7.425  27.883  55.310  1.00  0.00     0.164 HD
BRANCH  16  20
HETATM   20  C   UNL     1       7.543  24.101  54.656  1.00  0.00     0.059 A 
HETATM   21  C   UNL     1       7.829  23.670  53.346  1.00  0.00    -0.032 A 
HETATM   22  C   UNL     1       7.954  24.622  52.191  1.00  0.00     0.050 C 
HETATM   23  C   UNL     1       7.989  22.297  53.104  1.00  0.00     0.028 A 
HETATM   24  C   UNL     1       7.859  21.406  54.157  1.00  0.00     0.117 A 
HETATM   25  N   UNL     1       7.582  21.782  55.418  1.00  0.00    -0.271 NA
HETATM   26  C   UNL     1       7.429  23.114  55.638  1.00  0.00     0.146 A 
ENDBRANCH  16  20
ENDBRANCH   1  14
TORSDOF 6
ENDMDL
