MODEL 1
REMARK VINA RESULT:      -9.6      0.000      0.000
REMARK  3 active torsions:
REMARK  status: ('A' for Active; 'I' for Inactive)
REMARK    1  A    between atoms: C_3  and  O_4 
REMARK    2  A    between atoms: O_4  and  C_5 
REMARK    3  A    between atoms: C_10  and  N_11 
REMARK       I    between atoms: N_11  and  C_12 
REMARK       I    between atoms: C_12  and  N_13 
ROOT
HETATM    1  N   UNL     1       7.189  28.645  57.335  1.00  0.00    -0.309 N 
HETATM    2  C   UNL     1       8.278  29.318  57.844  1.00  0.00     0.323 C 
HETATM    3  N   UNL     1       7.980  30.561  58.385  1.00  0.00    -0.328 N 
HETATM    4  C   UNL     1       8.987  31.182  59.254  1.00  0.00     0.185 C 
HETATM    5  C   UNL     1       8.265  31.712  60.449  1.00  0.00     0.035 A 
HETATM    6  C   UNL     1       6.902  31.907  60.575  1.00  0.00    -0.020 A 
HETATM    7  C   UNL     1       5.964  31.564  59.467  1.00  0.00     0.061 C 
HETATM    8  C   UNL     1       6.756  31.361  58.158  1.00  0.00     0.132 C 
HETATM    9  N   UNL     1       8.857  32.068  61.628  1.00  0.00    -0.357 N 
HETATM   10  H   UNL     1       9.845  32.014  61.833  1.00  0.00     0.166 HD
HETATM   11  C   UNL     1       7.896  32.490  62.523  1.00  0.00     0.043 A 
HETATM   12  C   UNL     1       6.656  32.401  61.883  1.00  0.00    -0.001 A 
HETATM   13  C   UNL     1       8.032  32.930  63.846  1.00  0.00     0.030 A 
HETATM   14  C   UNL     1       6.868  33.290  64.532  1.00  0.00     0.002 A 
HETATM   15  C   UNL     1       5.619  33.213  63.919  1.00  0.00     0.001 A 
HETATM   16  C   UNL     1       5.499  32.770  62.597  1.00  0.00     0.014 A 
HETATM   17  O   UNL     1       9.422  28.873  57.876  1.00  0.00    -0.247 OA
HETATM   18  H   UNL     1       6.295  28.975  57.655  1.00  0.00     0.170 HD
ENDROOT
BRANCH   1  19
HETATM   19  C   UNL     1       7.182  27.363  56.744  1.00  0.00     0.037 A 
HETATM   20  C   UNL     1       7.032  26.177  57.462  1.00  0.00     0.032 A 
HETATM   21  C   UNL     1       6.949  24.951  56.794  1.00  0.00     0.039 A 
HETATM   22  C   UNL     1       7.012  24.901  55.402  1.00  0.00     0.075 A 
HETATM   23  C   UNL     1       7.259  26.070  54.671  1.00  0.00    -0.026 A 
HETATM   24  C   UNL     1       7.364  26.045  53.172  1.00  0.00     0.051 C 
HETATM   25  C   UNL     1       7.324  27.297  55.352  1.00  0.00     0.039 A 
BRANCH  22  26
HETATM   26  O   UNL     1       6.878  23.735  54.695  1.00  0.00    -0.346 OA
BRANCH  26  27
HETATM   27  C   UNL     1       8.012  22.852  54.732  1.00  0.00     0.121 C 
HETATM   28  C   UNL     1       7.723  21.607  55.571  1.00  0.00     0.040 C 
HETATM   29  C   UNL     1       8.291  22.445  53.287  1.00  0.00     0.040 C 
ENDBRANCH  26  27
ENDBRANCH  22  26
ENDBRANCH   1  19
TORSDOF 3
ENDMDL
MODEL 2
REMARK VINA RESULT:      -9.1      6.818     11.666
REMARK  3 active torsions:
REMARK  status: ('A' for Active; 'I' for Inactive)
REMARK    1  A    between atoms: C_3  and  O_4 
REMARK    2  A    between atoms: O_4  and  C_5 
REMARK    3  A    between atoms: C_10  and  N_11 
REMARK       I    between atoms: N_11  and  C_12 
REMARK       I    between atoms: C_12  and  N_13 
ROOT
HETATM    1  N   UNL     1       5.142  26.063  50.612  1.00  0.00    -0.309 N 
HETATM    2  C   UNL     1       5.208  27.351  50.128  1.00  0.00     0.323 C 
HETATM    3  N   UNL     1       4.715  27.504  48.840  1.00  0.00    -0.328 N 
HETATM    4  C   UNL     1       4.417  28.867  48.386  1.00  0.00     0.185 C 
HETATM    5  C   UNL     1       3.086  28.821  47.710  1.00  0.00     0.035 A 
HETATM    6  C   UNL     1       2.415  27.693  47.276  1.00  0.00    -0.020 A 
HETATM    7  C   UNL     1       2.984  26.328  47.475  1.00  0.00     0.061 C 
HETATM    8  C   UNL     1       4.479  26.436  47.844  1.00  0.00     0.132 C 
HETATM    9  N   UNL     1       2.309  29.911  47.436  1.00  0.00    -0.357 N 
HETATM   10  H   UNL     1       2.536  30.870  47.658  1.00  0.00     0.166 HD
HETATM   11  C   UNL     1       1.136  29.506  46.831  1.00  0.00     0.043 A 
HETATM   12  C   UNL     1       1.180  28.114  46.717  1.00  0.00    -0.001 A 
HETATM   13  C   UNL     1       0.044  30.265  46.391  1.00  0.00     0.030 A 
HETATM   14  C   UNL     1      -1.032  29.580  45.818  1.00  0.00     0.002 A 
HETATM   15  C   UNL     1      -1.014  28.193  45.689  1.00  0.00     0.001 A 
HETATM   16  C   UNL     1       0.084  27.448  46.135  1.00  0.00     0.014 A 
HETATM   17  O   UNL     1       5.621  28.316  50.767  1.00  0.00    -0.247 OA
HETATM   18  H   UNL     1       4.508  25.454  50.124  1.00  0.00     0.170 HD
ENDROOT
BRANCH   1  19
HETATM   19  C   UNL     1       5.548  25.610  51.886  1.00  0.00     0.037 A 
HETATM   20  C   UNL     1       4.900  25.947  53.074  1.00  0.00     0.032 A 
HETATM   21  C   UNL     1       5.312  25.389  54.288  1.00  0.00     0.039 A 
HETATM   22  C   UNL     1       6.374  24.486  54.325  1.00  0.00     0.075 A 
HETATM   23  C   UNL     1       7.098  24.211  53.158  1.00  0.00    -0.026 A 
HETATM   24  C   UNL     1       8.268  23.268  53.171  1.00  0.00     0.051 C 
HETATM   25  C   UNL     1       6.664  24.765  51.942  1.00  0.00     0.039 A 
BRANCH  22  26
HETATM   26  O   UNL     1       6.780  23.867  55.477  1.00  0.00    -0.346 OA
BRANCH  26  27
HETATM   27  C   UNL     1       7.678  24.624  56.307  1.00  0.00     0.121 C 
HETATM   28  C   UNL     1       6.920  25.408  57.379  1.00  0.00     0.040 C 
HETATM   29  C   UNL     1       8.610  23.613  56.971  1.00  0.00     0.040 C 
ENDBRANCH  26  27
ENDBRANCH  22  26
ENDBRANCH   1  19
TORSDOF 3
ENDMDL
MODEL 3
REMARK VINA RESULT:      -8.8      3.901      5.998
REMARK  3 active torsions:
REMARK  status: ('A' for Active; 'I' for Inactive)
REMARK    1  A    between atoms: C_3  and  O_4 
REMARK    2  A    between atoms: O_4  and  C_5 
REMARK    3  A    between atoms: C_10  and  N_11 
REMARK       I    between atoms: N_11  and  C_12 
REMARK       I    between atoms: C_12  and  N_13 
ROOT
HETATM    1  N   UNL     1       5.999  27.366  53.629  1.00  0.00    -0.309 N 
HETATM    2  C   UNL     1       5.194  27.785  54.666  1.00  0.00     0.323 C 
HETATM    3  N   UNL     1       5.824  27.816  55.902  1.00  0.00    -0.328 N 
HETATM    4  C   UNL     1       5.172  28.574  56.977  1.00  0.00     0.185 C 
HETATM    5  C   UNL     1       6.233  29.384  57.646  1.00  0.00     0.035 A 
HETATM    6  C   UNL     1       7.601  29.215  57.533  1.00  0.00    -0.020 A 
HETATM    7  C   UNL     1       8.181  28.153  56.660  1.00  0.00     0.061 C 
HETATM    8  C   UNL     1       7.084  27.137  56.277  1.00  0.00     0.132 C 
HETATM    9  N   UNL     1       6.003  30.451  58.467  1.00  0.00    -0.357 N 
HETATM   10  H   UNL     1       5.095  30.819  58.717  1.00  0.00     0.166 HD
HETATM   11  C   UNL     1       7.204  30.982  58.889  1.00  0.00     0.043 A 
HETATM   12  C   UNL     1       8.226  30.220  58.317  1.00  0.00    -0.001 A 
HETATM   13  C   UNL     1       7.458  32.081  59.720  1.00  0.00     0.030 A 
HETATM   14  C   UNL     1       8.794  32.407  59.973  1.00  0.00     0.002 A 
HETATM   15  C   UNL     1       9.833  31.663  59.418  1.00  0.00     0.001 A 
HETATM   16  C   UNL     1       9.563  30.569  58.588  1.00  0.00     0.014 A 
HETATM   17  O   UNL     1       4.028  28.150  54.541  1.00  0.00    -0.247 OA
HETATM   18  H   UNL     1       6.987  27.406  53.811  1.00  0.00     0.170 HD
ENDROOT
BRANCH   1  19
HETATM   19  C   UNL     1       5.642  27.252  52.268  1.00  0.00     0.037 A 
HETATM   20  C   UNL     1       5.368  26.041  51.635  1.00  0.00     0.032 A 
HETATM   21  C   UNL     1       4.938  26.020  50.304  1.00  0.00     0.039 A 
HETATM   22  C   UNL     1       4.775  27.210  49.596  1.00  0.00     0.075 A 
HETATM   23  C   UNL     1       5.140  28.428  50.184  1.00  0.00    -0.026 A 
HETATM   24  C   UNL     1       5.007  29.725  49.437  1.00  0.00     0.051 C 
HETATM   25  C   UNL     1       5.554  28.438  51.527  1.00  0.00     0.039 A 
BRANCH  22  26
HETATM   26  O   UNL     1       4.303  27.250  48.311  1.00  0.00    -0.346 OA
BRANCH  26  27
HETATM   27  C   UNL     1       2.937  26.838  48.137  1.00  0.00     0.121 C 
HETATM   28  C   UNL     1       2.126  27.894  47.385  1.00  0.00     0.040 C 
HETATM   29  C   UNL     1       2.974  25.544  47.327  1.00  0.00     0.040 C 
ENDBRANCH  26  27
ENDBRANCH  22  26
ENDBRANCH   1  19
TORSDOF 3
ENDMDL
MODEL 4
REMARK VINA RESULT:      -8.7      2.799     10.177
REMARK  3 active torsions:
REMARK  status: ('A' for Active; 'I' for Inactive)
REMARK    1  A    between atoms: C_3  and  O_4 
REMARK    2  A    between atoms: O_4  and  C_5 
REMARK    3  A    between atoms: C_10  and  N_11 
REMARK       I    between atoms: N_11  and  C_12 
REMARK       I    between atoms: C_12  and  N_13 
ROOT
HETATM    1  N   UNL     1       6.448  31.756  60.387  1.00  0.00    -0.309 N 
HETATM    2  C   UNL     1       5.839  31.687  59.153  1.00  0.00     0.323 C 
HETATM    3  N   UNL     1       6.551  30.965  58.205  1.00  0.00    -0.328 N 
HETATM    4  C   UNL     1       5.833  30.539  56.998  1.00  0.00     0.185 C 
HETATM    5  C   UNL     1       6.196  29.111  56.754  1.00  0.00     0.035 A 
HETATM    6  C   UNL     1       7.249  28.416  57.318  1.00  0.00    -0.020 A 
HETATM    7  C   UNL     1       8.166  29.061  58.302  1.00  0.00     0.061 C 
HETATM    8  C   UNL     1       7.982  30.593  58.258  1.00  0.00     0.132 C 
HETATM    9  N   UNL     1       5.510  28.258  55.936  1.00  0.00    -0.357 N 
HETATM   10  H   UNL     1       4.682  28.486  55.405  1.00  0.00     0.166 HD
HETATM   11  C   UNL     1       6.102  27.012  55.963  1.00  0.00     0.043 A 
HETATM   12  C   UNL     1       7.201  27.086  56.824  1.00  0.00    -0.001 A 
HETATM   13  C   UNL     1       5.740  25.831  55.302  1.00  0.00     0.030 A 
HETATM   14  C   UNL     1       6.524  24.695  55.527  1.00  0.00     0.002 A 
HETATM   15  C   UNL     1       7.627  24.740  56.378  1.00  0.00     0.001 A 
HETATM   16  C   UNL     1       7.975  25.928  57.033  1.00  0.00     0.014 A 
HETATM   17  O   UNL     1       4.743  32.171  58.887  1.00  0.00    -0.247 OA
HETATM   18  H   UNL     1       7.161  31.067  60.552  1.00  0.00     0.170 HD
ENDROOT
BRANCH   1  19
HETATM   19  C   UNL     1       5.956  32.400  61.543  1.00  0.00     0.037 A 
HETATM   20  C   UNL     1       4.613  32.715  61.746  1.00  0.00     0.032 A 
HETATM   21  C   UNL     1       4.192  33.277  62.956  1.00  0.00     0.039 A 
HETATM   22  C   UNL     1       5.111  33.526  63.975  1.00  0.00     0.075 A 
HETATM   23  C   UNL     1       6.477  33.307  63.753  1.00  0.00    -0.026 A 
HETATM   24  C   UNL     1       7.496  33.596  64.819  1.00  0.00     0.051 C 
HETATM   25  C   UNL     1       6.885  32.727  62.540  1.00  0.00     0.039 A 
BRANCH  22  26
HETATM   26  O   UNL     1       4.744  34.021  65.198  1.00  0.00    -0.346 OA
BRANCH  26  27
HETATM   27  C   UNL     1       3.868  35.160  65.172  1.00  0.00     0.121 C 
HETATM   28  C   UNL     1       3.187  35.372  66.524  1.00  0.00     0.040 C 
HETATM   29  C   UNL     1       4.740  36.369  64.839  1.00  0.00     0.040 C 
ENDBRANCH  26  27
ENDBRANCH  22  26
ENDBRANCH   1  19
TORSDOF 3
ENDMDL
MODEL 5
REMARK VINA RESULT:      -8.7      7.356     10.104
REMARK  3 active torsions:
REMARK  status: ('A' for Active; 'I' for Inactive)
REMARK    1  A    between atoms: C_3  and  O_4 
REMARK    2  A    between atoms: O_4  and  C_5 
REMARK    3  A    between atoms: C_10  and  N_11 
REMARK       I    between atoms: N_11  and  C_12 
REMARK       I    between atoms: C_12  and  N_13 
ROOT
HETATM    1  N   UNL     1       5.828  26.871  52.022  1.00  0.00    -0.309 N 
HETATM    2  C   UNL     1       4.931  26.881  50.975  1.00  0.00     0.323 C 
HETATM    3  N   UNL     1       4.453  28.141  50.644  1.00  0.00    -0.328 N 
HETATM    4  C   UNL     1       3.790  28.294  49.344  1.00  0.00     0.185 C 
HETATM    5  C   UNL     1       4.327  29.542  48.724  1.00  0.00     0.035 A 
HETATM    6  C   UNL     1       5.033  30.546  49.359  1.00  0.00    -0.020 A 
HETATM    7  C   UNL     1       5.365  30.462  50.811  1.00  0.00     0.061 C 
HETATM    8  C   UNL     1       4.509  29.363  51.477  1.00  0.00     0.132 C 
HETATM    9  N   UNL     1       4.216  29.869  47.402  1.00  0.00    -0.357 N 
HETATM   10  H   UNL     1       3.765  29.311  46.691  1.00  0.00     0.166 HD
HETATM   11  C   UNL     1       4.846  31.074  47.167  1.00  0.00     0.043 A 
HETATM   12  C   UNL     1       5.366  31.523  48.384  1.00  0.00    -0.001 A 
HETATM   13  C   UNL     1       5.001  31.789  45.972  1.00  0.00     0.030 A 
HETATM   14  C   UNL     1       5.707  32.995  46.024  1.00  0.00     0.002 A 
HETATM   15  C   UNL     1       6.234  33.467  47.224  1.00  0.00     0.001 A 
HETATM   16  C   UNL     1       6.072  32.741  48.410  1.00  0.00     0.014 A 
HETATM   17  O   UNL     1       4.593  25.888  50.337  1.00  0.00    -0.247 OA
HETATM   18  H   UNL     1       6.248  27.760  52.234  1.00  0.00     0.170 HD
ENDROOT
BRANCH   1  19
HETATM   19  C   UNL     1       6.491  25.749  52.564  1.00  0.00     0.037 A 
HETATM   20  C   UNL     1       7.354  24.930  51.837  1.00  0.00     0.032 A 
HETATM   21  C   UNL     1       8.039  23.887  52.469  1.00  0.00     0.039 A 
HETATM   22  C   UNL     1       7.870  23.656  53.834  1.00  0.00     0.075 A 
HETATM   23  C   UNL     1       6.934  24.406  54.558  1.00  0.00    -0.026 A 
HETATM   24  C   UNL     1       6.704  24.160  56.023  1.00  0.00     0.051 C 
HETATM   25  C   UNL     1       6.264  25.461  53.916  1.00  0.00     0.039 A 
BRANCH  22  26
HETATM   26  O   UNL     1       8.559  22.687  54.513  1.00  0.00    -0.346 OA
BRANCH  26  27
HETATM   27  C   UNL     1       8.012  21.360  54.429  1.00  0.00     0.121 C 
HETATM   28  C   UNL     1       8.703  20.538  53.340  1.00  0.00     0.040 C 
HETATM   29  C   UNL     1       8.243  20.709  55.790  1.00  0.00     0.040 C 
ENDBRANCH  26  27
ENDBRANCH  22  26
ENDBRANCH   1  19
TORSDOF 3
ENDMDL
MODEL 6
REMARK VINA RESULT:      -8.4      7.014      9.934
REMARK  3 active torsions:
REMARK  status: ('A' for Active; 'I' for Inactive)
REMARK    1  A    between atoms: C_3  and  O_4 
REMARK    2  A    between atoms: O_4  and  C_5 
REMARK    3  A    between atoms: C_10  and  N_11 
REMARK       I    between atoms: N_11  and  C_12 
REMARK       I    between atoms: C_12  and  N_13 
ROOT
HETATM    1  N   UNL     1       6.357  26.726  52.577  1.00  0.00    -0.309 N 
HETATM    2  C   UNL     1       5.067  27.154  52.806  1.00  0.00     0.323 C 
HETATM    3  N   UNL     1       4.732  28.334  52.157  1.00  0.00    -0.328 N 
HETATM    4  C   UNL     1       3.307  28.669  52.050  1.00  0.00     0.185 C 
HETATM    5  C   UNL     1       3.068  29.117  50.646  1.00  0.00     0.035 A 
HETATM    6  C   UNL     1       4.025  29.487  49.719  1.00  0.00    -0.020 A 
HETATM    7  C   UNL     1       5.480  29.448  50.049  1.00  0.00     0.061 C 
HETATM    8  C   UNL     1       5.664  29.327  51.577  1.00  0.00     0.132 C 
HETATM    9  N   UNL     1       1.842  29.208  50.051  1.00  0.00    -0.357 N 
HETATM   10  H   UNL     1       0.957  28.983  50.484  1.00  0.00     0.166 HD
HETATM   11  C   UNL     1       1.988  29.629  48.746  1.00  0.00     0.043 A 
HETATM   12  C   UNL     1       3.353  29.815  48.513  1.00  0.00    -0.001 A 
HETATM   13  C   UNL     1       1.018  29.847  47.758  1.00  0.00     0.030 A 
HETATM   14  C   UNL     1       1.458  30.266  46.499  1.00  0.00     0.002 A 
HETATM   15  C   UNL     1       2.813  30.461  46.239  1.00  0.00     0.001 A 
HETATM   16  C   UNL     1       3.770  30.238  47.236  1.00  0.00     0.014 A 
HETATM   17  O   UNL     1       4.240  26.548  53.483  1.00  0.00    -0.247 OA
HETATM   18  H   UNL     1       6.805  27.131  51.774  1.00  0.00     0.170 HD
ENDROOT
BRANCH   1  19
HETATM   19  C   UNL     1       6.968  25.559  53.083  1.00  0.00     0.037 A 
HETATM   20  C   UNL     1       7.315  24.460  52.299  1.00  0.00     0.032 A 
HETATM   21  C   UNL     1       7.996  23.375  52.860  1.00  0.00     0.039 A 
HETATM   22  C   UNL     1       8.340  23.382  54.212  1.00  0.00     0.075 A 
HETATM   23  C   UNL     1       7.915  24.432  55.036  1.00  0.00    -0.026 A 
HETATM   24  C   UNL     1       8.242  24.453  56.503  1.00  0.00     0.051 C 
HETATM   25  C   UNL     1       7.246  25.523  54.456  1.00  0.00     0.039 A 
BRANCH  22  26
HETATM   26  O   UNL     1       9.056  22.373  54.799  1.00  0.00    -0.346 OA
BRANCH  26  27
HETATM   27  C   UNL     1       8.379  21.110  54.907  1.00  0.00     0.121 C 
HETATM   28  C   UNL     1       8.760  20.172  53.761  1.00  0.00     0.040 C 
HETATM   29  C   UNL     1       8.811  20.498  56.238  1.00  0.00     0.040 C 
ENDBRANCH  26  27
ENDBRANCH  22  26
ENDBRANCH   1  19
TORSDOF 3
ENDMDL
MODEL 7
REMARK VINA RESULT:      -8.4      5.231      7.922
REMARK  3 active torsions:
REMARK  status: ('A' for Active; 'I' for Inactive)
REMARK    1  A    between atoms: C_3  and  O_4 
REMARK    2  A    between atoms: O_4  and  C_5 
REMARK    3  A    between atoms: C_10  and  N_11 
REMARK       I    between atoms: N_11  and  C_12 
REMARK       I    between atoms: C_12  and  N_13 
ROOT
HETATM    1  N   UNL     1       5.288  27.653  51.851  1.00  0.00    -0.309 N 
HETATM    2  C   UNL     1       4.846  27.657  53.156  1.00  0.00     0.323 C 
HETATM    3  N   UNL     1       5.836  27.411  54.096  1.00  0.00    -0.328 N 
HETATM    4  C   UNL     1       5.542  27.745  55.494  1.00  0.00     0.185 C 
HETATM    5  C   UNL     1       6.739  28.455  56.036  1.00  0.00     0.035 A 
HETATM    6  C   UNL     1       8.003  28.494  55.477  1.00  0.00    -0.020 A 
HETATM    7  C   UNL     1       8.302  27.805  54.188  1.00  0.00     0.061 C 
HETATM    8  C   UNL     1       7.168  26.814  53.852  1.00  0.00     0.132 C 
HETATM    9  N   UNL     1       6.754  29.206  57.177  1.00  0.00    -0.357 N 
HETATM   10  H   UNL     1       5.965  29.373  57.785  1.00  0.00     0.166 HD
HETATM   11  C   UNL     1       8.013  29.739  57.367  1.00  0.00     0.043 A 
HETATM   12  C   UNL     1       8.819  29.303  56.311  1.00  0.00    -0.001 A 
HETATM   13  C   UNL     1       8.490  30.577  58.382  1.00  0.00     0.030 A 
HETATM   14  C   UNL     1       9.828  30.979  58.317  1.00  0.00     0.002 A 
HETATM   15  C   UNL     1      10.654  30.558  57.277  1.00  0.00     0.001 A 
HETATM   16  C   UNL     1      10.163  29.721  56.268  1.00  0.00     0.014 A 
HETATM   17  O   UNL     1       3.691  27.897  53.501  1.00  0.00    -0.247 OA
HETATM   18  H   UNL     1       6.281  27.760  51.736  1.00  0.00     0.170 HD
ENDROOT
BRANCH   1  19
HETATM   19  C   UNL     1       4.519  27.890  50.691  1.00  0.00     0.037 A 
HETATM   20  C   UNL     1       3.924  29.113  50.389  1.00  0.00     0.032 A 
HETATM   21  C   UNL     1       3.248  29.292  49.177  1.00  0.00     0.039 A 
HETATM   22  C   UNL     1       3.165  28.249  48.256  1.00  0.00     0.075 A 
HETATM   23  C   UNL     1       3.672  26.985  48.583  1.00  0.00    -0.026 A 
HETATM   24  C   UNL     1       3.570  25.832  47.625  1.00  0.00     0.051 C 
HETATM   25  C   UNL     1       4.362  26.823  49.796  1.00  0.00     0.039 A 
BRANCH  22  26
HETATM   26  O   UNL     1       2.566  28.388  47.032  1.00  0.00    -0.346 OA
BRANCH  26  27
HETATM   27  C   UNL     1       1.171  28.732  47.057  1.00  0.00     0.121 C 
HETATM   28  C   UNL     1       0.886  29.972  46.208  1.00  0.00     0.040 C 
HETATM   29  C   UNL     1       0.418  27.533  46.485  1.00  0.00     0.040 C 
ENDBRANCH  26  27
ENDBRANCH  22  26
ENDBRANCH   1  19
TORSDOF 3
ENDMDL
MODEL 8
REMARK VINA RESULT:      -8.1      6.889     10.580
REMARK  3 active torsions:
REMARK  status: ('A' for Active; 'I' for Inactive)
REMARK    1  A    between atoms: C_3  and  O_4 
REMARK    2  A    between atoms: O_4  and  C_5 
REMARK    3  A    between atoms: C_10  and  N_11 
REMARK       I    between atoms: N_11  and  C_12 
REMARK       I    between atoms: C_12  and  N_13 
ROOT
HETATM    1  N   UNL     1       5.280  28.912  50.157  1.00  0.00    -0.309 N 
HETATM    2  C   UNL     1       4.523  28.640  51.277  1.00  0.00     0.323 C 
HETATM    3  N   UNL     1       4.628  27.334  51.734  1.00  0.00    -0.328 N 
HETATM    4  C   UNL     1       4.156  27.053  53.095  1.00  0.00     0.185 C 
HETATM    5  C   UNL     1       5.193  26.201  53.750  1.00  0.00     0.035 A 
HETATM    6  C   UNL     1       6.218  25.515  53.125  1.00  0.00    -0.020 A 
HETATM    7  C   UNL     1       6.409  25.584  51.647  1.00  0.00     0.061 C 
HETATM    8  C   UNL     1       5.142  26.166  50.985  1.00  0.00     0.132 C 
HETATM    9  N   UNL     1       5.297  25.989  55.095  1.00  0.00    -0.357 N 
HETATM   10  H   UNL     1       4.692  26.381  55.804  1.00  0.00     0.166 HD
HETATM   11  C   UNL     1       6.380  25.176  55.356  1.00  0.00     0.043 A 
HETATM   12  C   UNL     1       6.975  24.861  54.132  1.00  0.00    -0.001 A 
HETATM   13  C   UNL     1       6.879  24.709  56.579  1.00  0.00     0.030 A 
HETATM   14  C   UNL     1       8.017  23.897  56.548  1.00  0.00     0.002 A 
HETATM   15  C   UNL     1       8.630  23.565  55.341  1.00  0.00     0.001 A 
HETATM   16  C   UNL     1       8.121  24.041  54.127  1.00  0.00     0.014 A 
HETATM   17  O   UNL     1       3.837  29.466  51.873  1.00  0.00    -0.247 OA
HETATM   18  H   UNL     1       6.018  28.256  49.971  1.00  0.00     0.170 HD
ENDROOT
BRANCH   1  19
HETATM   19  C   UNL     1       5.389  30.148  49.484  1.00  0.00     0.037 A 
HETATM   20  C   UNL     1       6.078  31.249  49.987  1.00  0.00     0.032 A 
HETATM   21  C   UNL     1       6.213  32.412  49.220  1.00  0.00     0.039 A 
HETATM   22  C   UNL     1       5.662  32.480  47.941  1.00  0.00     0.075 A 
HETATM   23  C   UNL     1       4.883  31.420  47.458  1.00  0.00    -0.026 A 
HETATM   24  C   UNL     1       4.249  31.476  46.097  1.00  0.00     0.051 C 
HETATM   25  C   UNL     1       4.769  30.252  48.231  1.00  0.00     0.039 A 
BRANCH  22  26
HETATM   26  O   UNL     1       5.813  33.570  47.126  1.00  0.00    -0.346 OA
BRANCH  26  27
HETATM   27  C   UNL     1       7.161  33.863  46.721  1.00  0.00     0.121 C 
HETATM   28  C   UNL     1       7.329  33.738  45.206  1.00  0.00     0.040 C 
HETATM   29  C   UNL     1       7.441  35.300  47.153  1.00  0.00     0.040 C 
ENDBRANCH  26  27
ENDBRANCH  22  26
ENDBRANCH   1  19
TORSDOF 3
ENDMDL
MODEL 9
REMARK VINA RESULT:      -8.0      6.833     10.535
REMARK  3 active torsions:
REMARK  status: ('A' for Active; 'I' for Inactive)
REMARK    1  A    between atoms: C_3  and  O_4 
REMARK    2  A    between atoms: O_4  and  C_5 
REMARK    3  A    between atoms: C_10  and  N_11 
REMARK       I    between atoms: N_11  and  C_12 
REMARK       I    between atoms: C_12  and  N_13 
ROOT
HETATM    1  N   UNL     1       4.747  28.110  51.332  1.00  0.00    -0.309 N 
HETATM    2  C   UNL     1       5.031  28.065  52.680  1.00  0.00     0.323 C 
HETATM    3  N   UNL     1       5.018  26.789  53.225  1.00  0.00    -0.328 N 
HETATM    4  C   UNL     1       5.647  26.606  54.537  1.00  0.00     0.185 C 
HETATM    5  C   UNL     1       6.482  25.370  54.454  1.00  0.00     0.035 A 
HETATM    6  C   UNL     1       6.419  24.392  53.478  1.00  0.00    -0.020 A 
HETATM    7  C   UNL     1       5.468  24.498  52.334  1.00  0.00     0.061 C 
HETATM    8  C   UNL     1       4.406  25.576  52.638  1.00  0.00     0.132 C 
HETATM    9  N   UNL     1       7.467  25.029  55.336  1.00  0.00    -0.357 N 
HETATM   10  H   UNL     1       7.750  25.567  56.143  1.00  0.00     0.166 HD
HETATM   11  C   UNL     1       8.051  23.841  54.946  1.00  0.00     0.043 A 
HETATM   12  C   UNL     1       7.407  23.418  53.780  1.00  0.00    -0.001 A 
HETATM   13  C   UNL     1       9.102  23.123  55.530  1.00  0.00     0.030 A 
HETATM   14  C   UNL     1       9.504  21.938  54.904  1.00  0.00     0.002 A 
HETATM   15  C   UNL     1       8.879  21.492  53.742  1.00  0.00     0.001 A 
HETATM   16  C   UNL     1       7.831  22.222  53.170  1.00  0.00     0.014 A 
HETATM   17  O   UNL     1       5.320  29.043  53.365  1.00  0.00    -0.247 OA
HETATM   18  H   UNL     1       4.845  27.236  50.845  1.00  0.00     0.170 HD
ENDROOT
BRANCH   1  19
HETATM   19  C   UNL     1       4.707  29.256  50.509  1.00  0.00     0.037 A 
HETATM   20  C   UNL     1       5.832  29.997  50.152  1.00  0.00     0.032 A 
HETATM   21  C   UNL     1       5.721  31.070  49.262  1.00  0.00     0.039 A 
HETATM   22  C   UNL     1       4.482  31.410  48.718  1.00  0.00     0.075 A 
HETATM   23  C   UNL     1       3.327  30.739  49.140  1.00  0.00    -0.026 A 
HETATM   24  C   UNL     1       1.973  31.102  48.597  1.00  0.00     0.051 C 
HETATM   25  C   UNL     1       3.454  29.653  50.021  1.00  0.00     0.039 A 
BRANCH  22  26
HETATM   26  O   UNL     1       4.326  32.413  47.800  1.00  0.00    -0.346 OA
BRANCH  26  27
HETATM   27  C   UNL     1       5.239  32.388  46.689  1.00  0.00     0.121 C 
HETATM   28  C   UNL     1       4.514  32.077  45.378  1.00  0.00     0.040 C 
HETATM   29  C   UNL     1       5.867  33.777  46.612  1.00  0.00     0.040 C 
ENDBRANCH  26  27
ENDBRANCH  22  26
ENDBRANCH   1  19
TORSDOF 3
ENDMDL
MODEL 10
REMARK VINA RESULT:      -7.7      2.748      9.887
REMARK  3 active torsions:
REMARK  status: ('A' for Active; 'I' for Inactive)
REMARK    1  A    between atoms: C_3  and  O_4 
REMARK    2  A    between atoms: O_4  and  C_5 
REMARK    3  A    between atoms: C_10  and  N_11 
REMARK       I    between atoms: N_11  and  C_12 
REMARK       I    between atoms: C_12  and  N_13 
ROOT
HETATM    1  N   UNL     1       6.889  31.200  58.956  1.00  0.00    -0.309 N 
HETATM    2  C   UNL     1       6.293  30.866  57.759  1.00  0.00     0.323 C 
HETATM    3  N   UNL     1       7.035  29.994  56.975  1.00  0.00    -0.328 N 
HETATM    4  C   UNL     1       6.341  29.314  55.876  1.00  0.00     0.185 C 
HETATM    5  C   UNL     1       6.752  27.879  55.921  1.00  0.00     0.035 A 
HETATM    6  C   UNL     1       7.823  27.345  56.614  1.00  0.00    -0.020 A 
HETATM    7  C   UNL     1       8.711  28.203  57.451  1.00  0.00     0.061 C 
HETATM    8  C   UNL     1       8.477  29.689  57.103  1.00  0.00     0.132 C 
HETATM    9  N   UNL     1       6.101  26.857  55.289  1.00  0.00    -0.357 N 
HETATM   10  H   UNL     1       5.270  26.948  54.722  1.00  0.00     0.166 HD
HETATM   11  C   UNL     1       6.733  25.662  55.564  1.00  0.00     0.043 A 
HETATM   12  C   UNL     1       7.822  25.942  56.394  1.00  0.00    -0.001 A 
HETATM   13  C   UNL     1       6.415  24.362  55.151  1.00  0.00     0.030 A 
HETATM   14  C   UNL     1       7.234  23.320  55.599  1.00  0.00     0.002 A 
HETATM   15  C   UNL     1       8.328  23.571  56.424  1.00  0.00     0.001 A 
HETATM   16  C   UNL     1       8.632  24.875  56.830  1.00  0.00     0.014 A 
HETATM   17  O   UNL     1       5.183  31.251  57.401  1.00  0.00    -0.247 OA
HETATM   18  H   UNL     1       7.623  30.581  59.256  1.00  0.00     0.170 HD
ENDROOT
BRANCH   1  19
HETATM   19  C   UNL     1       6.367  32.044  59.960  1.00  0.00     0.037 A 
HETATM   20  C   UNL     1       7.133  32.603  60.981  1.00  0.00     0.032 A 
HETATM   21  C   UNL     1       6.558  33.499  61.889  1.00  0.00     0.039 A 
HETATM   22  C   UNL     1       5.212  33.847  61.780  1.00  0.00     0.075 A 
HETATM   23  C   UNL     1       4.404  33.221  60.821  1.00  0.00    -0.026 A 
HETATM   24  C   UNL     1       2.943  33.549  60.699  1.00  0.00     0.051 C 
HETATM   25  C   UNL     1       4.997  32.335  59.906  1.00  0.00     0.039 A 
BRANCH  22  26
HETATM   26  O   UNL     1       4.614  34.761  62.605  1.00  0.00    -0.346 OA
BRANCH  26  27
HETATM   27  C   UNL     1       4.881  36.141  62.303  1.00  0.00     0.121 C 
HETATM   28  C   UNL     1       3.587  36.941  62.151  1.00  0.00     0.040 C 
HETATM   29  C   UNL     1       5.692  36.692  63.474  1.00  0.00     0.040 C 
ENDBRANCH  26  27
ENDBRANCH  22  26
ENDBRANCH   1  19
TORSDOF 3
ENDMDL
