MODEL 1
REMARK VINA RESULT:      -8.6      0.000      0.000
REMARK  2 active torsions:
REMARK  status: ('A' for Active; 'I' for Inactive)
REMARK    1  A    between atoms: C_9  and  N_10 
REMARK    2  A    between atoms: N_10  and  C_11 
ROOT
HETATM    1  C   UNL     1       7.585  27.186  56.057  1.00  0.00     0.050 C 
HETATM    2  C   UNL     1       6.403  27.645  55.262  1.00  0.00    -0.032 A 
HETATM    3  C   UNL     1       6.127  27.270  53.876  1.00  0.00     0.053 A 
HETATM    4  C   UNL     1       4.992  27.920  53.414  1.00  0.00     0.114 A 
HETATM    5  N   UNL     1       4.458  27.847  52.186  1.00  0.00    -0.226 NA
HETATM    6  C   UNL     1       5.143  27.052  51.365  1.00  0.00     0.125 A 
HETATM    7  C   UNL     1       4.637  26.903  49.963  1.00  0.00     0.093 C 
HETATM    8  N   UNL     1       6.246  26.357  51.684  1.00  0.00    -0.215 NA
HETATM    9  C   UNL     1       6.769  26.425  52.932  1.00  0.00     0.143 A 
HETATM   10  S   UNL     1       4.249  28.888  54.593  1.00  0.00    -0.074 SA
HETATM   11  C   UNL     1       5.430  28.503  55.761  1.00  0.00    -0.012 A 
HETATM   12  C   UNL     1       5.328  29.105  57.126  1.00  0.00     0.057 C 
ENDROOT
BRANCH   9  13
HETATM   13  N   UNL     1       7.881  25.635  53.265  1.00  0.00    -0.340 N 
HETATM   14  H   UNL     1       8.731  26.165  53.372  1.00  0.00     0.167 HD
BRANCH  13  15
HETATM   15  C   UNL     1       7.985  24.291  53.668  1.00  0.00     0.036 A 
HETATM   16  C   UNL     1       8.271  23.898  54.981  1.00  0.00     0.069 A 
HETATM   17  C   UNL     1       8.360  22.545  55.322  1.00  0.00     0.104 A 
HETATM   18  C   UNL     1       8.199  21.561  54.345  1.00  0.00     0.102 A 
HETATM   19  O   UNL     1       8.615  22.257  56.640  1.00  0.00    -0.346 OA
HETATM   20  O   UNL     1       8.311  20.219  54.598  1.00  0.00    -0.346 OA
HETATM   21  C   UNL     1       7.901  21.930  53.038  1.00  0.00     0.042 A 
HETATM   22  C   UNL     1       8.941  19.981  55.863  1.00  0.00     0.202 C 
HETATM   23  C   UNL     1       8.350  20.881  56.934  1.00  0.00     0.202 C 
HETATM   24  C   UNL     1       7.794  23.284  52.705  1.00  0.00     0.032 A 
ENDBRANCH  13  15
ENDBRANCH   9  13
TORSDOF 2
ENDMDL
MODEL 2
REMARK VINA RESULT:      -8.6      3.646      6.747
REMARK  2 active torsions:
REMARK  status: ('A' for Active; 'I' for Inactive)
REMARK    1  A    between atoms: C_9  and  N_10 
REMARK    2  A    between atoms: N_10  and  C_11 
ROOT
HETATM    1  C   UNL     1       8.360  23.284  57.092  1.00  0.00     0.050 C 
HETATM    2  C   UNL     1       7.978  23.251  55.644  1.00  0.00    -0.032 A 
HETATM    3  C   UNL     1       7.227  24.296  54.951  1.00  0.00     0.053 A 
HETATM    4  C   UNL     1       6.981  23.926  53.637  1.00  0.00     0.114 A 
HETATM    5  N   UNL     1       6.294  24.616  52.715  1.00  0.00    -0.226 NA
HETATM    6  C   UNL     1       5.815  25.771  53.175  1.00  0.00     0.125 A 
HETATM    7  C   UNL     1       5.025  26.621  52.227  1.00  0.00     0.093 C 
HETATM    8  N   UNL     1       5.990  26.254  54.414  1.00  0.00    -0.215 NA
HETATM    9  C   UNL     1       6.699  25.557  55.335  1.00  0.00     0.143 A 
HETATM   10  S   UNL     1       7.663  22.428  53.224  1.00  0.00    -0.074 SA
HETATM   11  C   UNL     1       8.291  22.197  54.794  1.00  0.00    -0.012 A 
HETATM   12  C   UNL     1       9.055  20.949  55.097  1.00  0.00     0.057 C 
ENDROOT
BRANCH   9  13
HETATM   13  N   UNL     1       6.929  26.113  56.604  1.00  0.00    -0.340 N 
HETATM   14  H   UNL     1       6.933  25.431  57.345  1.00  0.00     0.167 HD
BRANCH  13  15
HETATM   15  C   UNL     1       7.348  27.396  57.000  1.00  0.00     0.036 A 
HETATM   16  C   UNL     1       8.689  27.795  57.034  1.00  0.00     0.069 A 
HETATM   17  C   UNL     1       9.045  29.086  57.435  1.00  0.00     0.104 A 
HETATM   18  C   UNL     1       8.064  29.991  57.843  1.00  0.00     0.102 A 
HETATM   19  O   UNL     1      10.383  29.394  57.408  1.00  0.00    -0.346 OA
HETATM   20  O   UNL     1       8.342  31.259  58.284  1.00  0.00    -0.346 OA
HETATM   21  C   UNL     1       6.724  29.621  57.803  1.00  0.00     0.042 A 
HETATM   22  C   UNL     1       9.731  31.405  58.600  1.00  0.00     0.202 C 
HETATM   23  C   UNL     1      10.596  30.806  57.504  1.00  0.00     0.202 C 
HETATM   24  C   UNL     1       6.372  28.334  57.383  1.00  0.00     0.032 A 
ENDBRANCH  13  15
ENDBRANCH   9  13
TORSDOF 2
ENDMDL
MODEL 3
REMARK VINA RESULT:      -8.5      7.576     10.454
REMARK  2 active torsions:
REMARK  status: ('A' for Active; 'I' for Inactive)
REMARK    1  A    between atoms: C_9  and  N_10 
REMARK    2  A    between atoms: N_10  and  C_11 
ROOT
HETATM    1  C   UNL     1       7.751  32.097  63.553  1.00  0.00     0.050 C 
HETATM    2  C   UNL     1       6.758  33.214  63.473  1.00  0.00    -0.032 A 
HETATM    3  C   UNL     1       5.947  33.533  62.300  1.00  0.00     0.053 A 
HETATM    4  C   UNL     1       5.181  34.667  62.533  1.00  0.00     0.114 A 
HETATM    5  N   UNL     1       4.345  35.271  61.676  1.00  0.00    -0.226 NA
HETATM    6  C   UNL     1       4.294  34.675  60.486  1.00  0.00     0.125 A 
HETATM    7  C   UNL     1       3.394  35.273  59.449  1.00  0.00     0.093 C 
HETATM    8  N   UNL     1       4.969  33.570  60.133  1.00  0.00    -0.215 NA
HETATM    9  C   UNL     1       5.800  32.957  61.010  1.00  0.00     0.143 A 
HETATM   10  S   UNL     1       5.371  35.292  64.099  1.00  0.00    -0.074 SA
HETATM   11  C   UNL     1       6.507  34.092  64.522  1.00  0.00    -0.012 A 
HETATM   12  C   UNL     1       7.108  34.107  65.890  1.00  0.00     0.057 C 
ENDROOT
BRANCH   9  13
HETATM   13  N   UNL     1       6.442  31.763  60.644  1.00  0.00    -0.340 N 
HETATM   14  H   UNL     1       5.914  30.937  60.876  1.00  0.00     0.167 HD
BRANCH  13  15
HETATM   15  C   UNL     1       7.574  31.518  59.846  1.00  0.00     0.036 A 
HETATM   16  C   UNL     1       7.616  30.546  58.840  1.00  0.00     0.069 A 
HETATM   17  C   UNL     1       8.770  30.350  58.078  1.00  0.00     0.104 A 
HETATM   18  C   UNL     1       9.919  31.101  58.334  1.00  0.00     0.102 A 
HETATM   19  O   UNL     1       8.706  29.394  57.094  1.00  0.00    -0.346 OA
HETATM   20  O   UNL     1      11.097  30.937  57.653  1.00  0.00    -0.346 OA
HETATM   21  C   UNL     1       9.895  32.082  59.320  1.00  0.00     0.042 A 
HETATM   22  C   UNL     1      11.107  29.704  56.923  1.00  0.00     0.202 C 
HETATM   23  C   UNL     1       9.798  29.514  56.176  1.00  0.00     0.202 C 
HETATM   24  C   UNL     1       8.731  32.287  60.067  1.00  0.00     0.032 A 
ENDBRANCH  13  15
ENDBRANCH   9  13
TORSDOF 2
ENDMDL
MODEL 4
REMARK VINA RESULT:      -8.4      1.504      3.156
REMARK  2 active torsions:
REMARK  status: ('A' for Active; 'I' for Inactive)
REMARK    1  A    between atoms: C_9  and  N_10 
REMARK    2  A    between atoms: N_10  and  C_11 
ROOT
HETATM    1  C   UNL     1       5.172  26.684  51.910  1.00  0.00     0.050 C 
HETATM    2  C   UNL     1       5.040  27.689  53.012  1.00  0.00    -0.032 A 
HETATM    3  C   UNL     1       5.918  27.775  54.178  1.00  0.00     0.053 A 
HETATM    4  C   UNL     1       5.482  28.770  55.041  1.00  0.00     0.114 A 
HETATM    5  N   UNL     1       6.017  29.111  56.222  1.00  0.00    -0.226 NA
HETATM    6  C   UNL     1       7.077  28.372  56.549  1.00  0.00     0.125 A 
HETATM    7  C   UNL     1       7.750  28.666  57.855  1.00  0.00     0.093 C 
HETATM    8  N   UNL     1       7.609  27.391  55.804  1.00  0.00    -0.215 NA
HETATM    9  C   UNL     1       7.071  27.064  54.605  1.00  0.00     0.143 A 
HETATM   10  S   UNL     1       4.123  29.608  54.464  1.00  0.00    -0.074 SA
HETATM   11  C   UNL     1       4.043  28.656  53.051  1.00  0.00    -0.012 A 
HETATM   12  C   UNL     1       2.959  28.920  52.056  1.00  0.00     0.057 C 
ENDROOT
BRANCH   9  13
HETATM   13  N   UNL     1       7.685  26.083  53.809  1.00  0.00    -0.340 N 
HETATM   14  H   UNL     1       8.269  26.464  53.083  1.00  0.00     0.167 HD
BRANCH  13  15
HETATM   15  C   UNL     1       7.793  24.688  53.963  1.00  0.00     0.036 A 
HETATM   16  C   UNL     1       8.075  24.065  55.184  1.00  0.00     0.069 A 
HETATM   17  C   UNL     1       8.169  22.674  55.276  1.00  0.00     0.104 A 
HETATM   18  C   UNL     1       8.016  21.882  54.136  1.00  0.00     0.102 A 
HETATM   19  O   UNL     1       8.420  22.152  56.521  1.00  0.00    -0.346 OA
HETATM   20  O   UNL     1       8.131  20.516  54.144  1.00  0.00    -0.346 OA
HETATM   21  C   UNL     1       7.720  22.479  52.916  1.00  0.00     0.042 A 
HETATM   22  C   UNL     1       8.758  20.056  55.347  1.00  0.00     0.202 C 
HETATM   23  C   UNL     1       8.159  20.745  56.561  1.00  0.00     0.202 C 
HETATM   24  C   UNL     1       7.610  23.871  52.833  1.00  0.00     0.032 A 
ENDBRANCH  13  15
ENDBRANCH   9  13
TORSDOF 2
ENDMDL
MODEL 5
REMARK VINA RESULT:      -8.2      1.583      2.060
REMARK  2 active torsions:
REMARK  status: ('A' for Active; 'I' for Inactive)
REMARK    1  A    between atoms: C_9  and  N_10 
REMARK    2  A    between atoms: N_10  and  C_11 
ROOT
HETATM    1  C   UNL     1       9.035  27.864  56.798  1.00  0.00     0.050 C 
HETATM    2  C   UNL     1       7.666  28.465  56.718  1.00  0.00    -0.032 A 
HETATM    3  C   UNL     1       6.689  28.188  55.667  1.00  0.00     0.053 A 
HETATM    4  C   UNL     1       5.549  28.958  55.849  1.00  0.00     0.114 A 
HETATM    5  N   UNL     1       4.461  28.995  55.066  1.00  0.00    -0.226 NA
HETATM    6  C   UNL     1       4.549  28.186  54.011  1.00  0.00     0.125 A 
HETATM    7  C   UNL     1       3.388  28.154  53.064  1.00  0.00     0.093 C 
HETATM    8  N   UNL     1       5.583  27.382  53.723  1.00  0.00    -0.215 NA
HETATM    9  C   UNL     1       6.672  27.339  54.528  1.00  0.00     0.143 A 
HETATM   10  S   UNL     1       5.611  29.926  57.242  1.00  0.00    -0.074 SA
HETATM   11  C   UNL     1       7.176  29.379  57.644  1.00  0.00    -0.012 A 
HETATM   12  C   UNL     1       7.844  29.916  58.868  1.00  0.00     0.057 C 
ENDROOT
BRANCH   9  13
HETATM   13  N   UNL     1       7.712  26.438  54.248  1.00  0.00    -0.340 N 
HETATM   14  H   UNL     1       8.622  26.869  54.238  1.00  0.00     0.167 HD
BRANCH  13  15
HETATM   15  C   UNL     1       7.737  25.034  54.177  1.00  0.00     0.036 A 
HETATM   16  C   UNL     1       7.918  24.207  55.291  1.00  0.00     0.069 A 
HETATM   17  C   UNL     1       7.933  22.816  55.159  1.00  0.00     0.104 A 
HETATM   18  C   UNL     1       7.801  22.227  53.900  1.00  0.00     0.102 A 
HETATM   19  O   UNL     1       8.087  22.087  56.313  1.00  0.00    -0.346 OA
HETATM   20  O   UNL     1       7.844  20.874  53.690  1.00  0.00    -0.346 OA
HETATM   21  C   UNL     1       7.606  23.029  52.781  1.00  0.00     0.042 A 
HETATM   22  C   UNL     1       8.377  20.189  54.830  1.00  0.00     0.202 C 
HETATM   23  C   UNL     1       7.750  20.711  56.111  1.00  0.00     0.202 C 
HETATM   24  C   UNL     1       7.574  24.420  52.922  1.00  0.00     0.032 A 
ENDBRANCH  13  15
ENDBRANCH   9  13
TORSDOF 2
ENDMDL
MODEL 6
REMARK VINA RESULT:      -8.2      7.459     10.553
REMARK  2 active torsions:
REMARK  status: ('A' for Active; 'I' for Inactive)
REMARK    1  A    between atoms: C_9  and  N_10 
REMARK    2  A    between atoms: N_10  and  C_11 
ROOT
HETATM    1  C   UNL     1       5.041  32.440  59.182  1.00  0.00     0.050 C 
HETATM    2  C   UNL     1       4.992  33.455  60.282  1.00  0.00    -0.032 A 
HETATM    3  C   UNL     1       5.677  33.333  61.567  1.00  0.00     0.053 A 
HETATM    4  C   UNL     1       5.370  34.411  62.385  1.00  0.00     0.114 A 
HETATM    5  N   UNL     1       5.788  34.620  63.642  1.00  0.00    -0.226 NA
HETATM    6  C   UNL     1       6.575  33.648  64.100  1.00  0.00     0.125 A 
HETATM    7  C   UNL     1       7.094  33.779  65.500  1.00  0.00     0.093 C 
HETATM    8  N   UNL     1       6.960  32.562  63.414  1.00  0.00    -0.215 NA
HETATM    9  C   UNL     1       6.546  32.366  62.139  1.00  0.00     0.143 A 
HETATM   10  S   UNL     1       4.358  35.550  61.638  1.00  0.00    -0.074 SA
HETATM   11  C   UNL     1       4.263  34.636  60.201  1.00  0.00    -0.012 A 
HETATM   12  C   UNL     1       3.439  35.149  59.065  1.00  0.00     0.057 C 
ENDROOT
BRANCH   9  13
HETATM   13  N   UNL     1       7.017  31.259  61.415  1.00  0.00    -0.340 N 
HETATM   14  H   UNL     1       6.467  30.427  61.552  1.00  0.00     0.167 HD
BRANCH  13  15
HETATM   15  C   UNL     1       7.980  31.151  60.395  1.00  0.00     0.036 A 
HETATM   16  C   UNL     1       7.987  30.125  59.443  1.00  0.00     0.069 A 
HETATM   17  C   UNL     1       8.970  30.071  58.451  1.00  0.00     0.104 A 
HETATM   18  C   UNL     1       9.987  31.027  58.416  1.00  0.00     0.102 A 
HETATM   19  O   UNL     1       8.877  29.044  57.545  1.00  0.00    -0.346 OA
HETATM   20  O   UNL     1      11.003  31.016  57.497  1.00  0.00    -0.346 OA
HETATM   21  C   UNL     1       9.991  32.064  59.343  1.00  0.00     0.042 A 
HETATM   22  C   UNL     1      11.087  29.750  56.831  1.00  0.00     0.202 C 
HETATM   23  C   UNL     1       9.708  29.278  56.402  1.00  0.00     0.202 C 
HETATM   24  C   UNL     1       8.995  32.123  60.322  1.00  0.00     0.032 A 
ENDBRANCH  13  15
ENDBRANCH   9  13
TORSDOF 2
ENDMDL
MODEL 7
REMARK VINA RESULT:      -8.2      2.945      3.985
REMARK  2 active torsions:
REMARK  status: ('A' for Active; 'I' for Inactive)
REMARK    1  A    between atoms: C_9  and  N_10 
REMARK    2  A    between atoms: N_10  and  C_11 
ROOT
HETATM    1  C   UNL     1       4.895  26.461  56.910  1.00  0.00     0.050 C 
HETATM    2  C   UNL     1       5.583  27.777  56.723  1.00  0.00    -0.032 A 
HETATM    3  C   UNL     1       7.025  27.991  56.823  1.00  0.00     0.053 A 
HETATM    4  C   UNL     1       7.328  29.336  56.665  1.00  0.00     0.114 A 
HETATM    5  N   UNL     1       8.540  29.907  56.728  1.00  0.00    -0.226 NA
HETATM    6  C   UNL     1       9.516  29.036  56.980  1.00  0.00     0.125 A 
HETATM    7  C   UNL     1      10.913  29.571  57.078  1.00  0.00     0.093 C 
HETATM    8  N   UNL     1       9.365  27.713  57.142  1.00  0.00    -0.215 NA
HETATM    9  C   UNL     1       8.139  27.142  57.061  1.00  0.00     0.143 A 
HETATM   10  S   UNL     1       5.965  30.297  56.350  1.00  0.00    -0.074 SA
HETATM   11  C   UNL     1       4.909  28.960  56.443  1.00  0.00    -0.012 A 
HETATM   12  C   UNL     1       3.443  29.176  56.248  1.00  0.00     0.057 C 
ENDROOT
BRANCH   9  13
HETATM   13  N   UNL     1       8.011  25.747  57.163  1.00  0.00    -0.340 N 
HETATM   14  H   UNL     1       7.732  25.437  58.079  1.00  0.00     0.167 HD
BRANCH  13  15
HETATM   15  C   UNL     1       8.006  24.736  56.185  1.00  0.00     0.036 A 
HETATM   16  C   UNL     1       8.422  23.422  56.429  1.00  0.00     0.069 A 
HETATM   17  C   UNL     1       8.393  22.459  55.416  1.00  0.00     0.104 A 
HETATM   18  C   UNL     1       7.978  22.805  54.129  1.00  0.00     0.102 A 
HETATM   19  O   UNL     1       8.792  21.191  55.758  1.00  0.00    -0.346 OA
HETATM   20  O   UNL     1       7.959  21.924  53.079  1.00  0.00    -0.346 OA
HETATM   21  C   UNL     1       7.547  24.101  53.867  1.00  0.00     0.042 A 
HETATM   22  C   UNL     1       8.726  20.750  53.373  1.00  0.00     0.202 C 
HETATM   23  C   UNL     1       8.405  20.235  54.766  1.00  0.00     0.202 C 
HETATM   24  C   UNL     1       7.561  25.056  54.889  1.00  0.00     0.032 A 
ENDBRANCH  13  15
ENDBRANCH   9  13
TORSDOF 2
ENDMDL
MODEL 8
REMARK VINA RESULT:      -8.2      3.810      6.934
REMARK  2 active torsions:
REMARK  status: ('A' for Active; 'I' for Inactive)
REMARK    1  A    between atoms: C_9  and  N_10 
REMARK    2  A    between atoms: N_10  and  C_11 
ROOT
HETATM    1  C   UNL     1       6.866  23.420  53.926  1.00  0.00     0.050 C 
HETATM    2  C   UNL     1       7.464  24.029  55.156  1.00  0.00    -0.032 A 
HETATM    3  C   UNL     1       7.125  25.347  55.689  1.00  0.00     0.053 A 
HETATM    4  C   UNL     1       7.907  25.638  56.797  1.00  0.00     0.114 A 
HETATM    5  N   UNL     1       7.899  26.766  57.523  1.00  0.00    -0.226 NA
HETATM    6  C   UNL     1       7.028  27.669  57.075  1.00  0.00     0.125 A 
HETATM    7  C   UNL     1       6.940  28.971  57.811  1.00  0.00     0.093 C 
HETATM    8  N   UNL     1       6.205  27.513  56.027  1.00  0.00    -0.215 NA
HETATM    9  C   UNL     1       6.209  26.364  55.309  1.00  0.00     0.143 A 
HETATM   10  S   UNL     1       8.958  24.376  57.225  1.00  0.00    -0.074 SA
HETATM   11  C   UNL     1       8.433  23.399  55.929  1.00  0.00    -0.012 A 
HETATM   12  C   UNL     1       9.042  22.047  55.742  1.00  0.00     0.057 C 
ENDROOT
BRANCH   9  13
HETATM   13  N   UNL     1       5.291  26.194  54.260  1.00  0.00    -0.340 N 
HETATM   14  H   UNL     1       4.424  25.774  54.552  1.00  0.00     0.167 HD
BRANCH  13  15
HETATM   15  C   UNL     1       5.282  26.677  52.939  1.00  0.00     0.036 A 
HETATM   16  C   UNL     1       5.400  28.032  52.611  1.00  0.00     0.069 A 
HETATM   17  C   UNL     1       5.386  28.453  51.278  1.00  0.00     0.104 A 
HETATM   18  C   UNL     1       5.218  27.525  50.249  1.00  0.00     0.102 A 
HETATM   19  O   UNL     1       5.538  29.799  51.054  1.00  0.00    -0.346 OA
HETATM   20  O   UNL     1       5.156  27.868  48.924  1.00  0.00    -0.346 OA
HETATM   21  C   UNL     1       5.113  26.171  50.552  1.00  0.00     0.042 A 
HETATM   22  C   UNL     1       4.936  29.275  48.762  1.00  0.00     0.202 C 
HETATM   23  C   UNL     1       5.846  30.069  49.683  1.00  0.00     0.202 C 
HETATM   24  C   UNL     1       5.146  25.754  51.886  1.00  0.00     0.032 A 
ENDBRANCH  13  15
ENDBRANCH   9  13
TORSDOF 2
ENDMDL
MODEL 9
REMARK VINA RESULT:      -8.0      3.818      6.201
REMARK  2 active torsions:
REMARK  status: ('A' for Active; 'I' for Inactive)
REMARK    1  A    between atoms: C_9  and  N_10 
REMARK    2  A    between atoms: N_10  and  C_11 
ROOT
HETATM    1  C   UNL     1       4.427  29.514  56.009  1.00  0.00     0.050 C 
HETATM    2  C   UNL     1       5.696  29.170  56.727  1.00  0.00    -0.032 A 
HETATM    3  C   UNL     1       6.354  27.865  56.688  1.00  0.00     0.053 A 
HETATM    4  C   UNL     1       7.468  27.859  57.515  1.00  0.00     0.114 A 
HETATM    5  N   UNL     1       8.294  26.830  57.755  1.00  0.00    -0.226 NA
HETATM    6  C   UNL     1       7.949  25.719  57.106  1.00  0.00     0.125 A 
HETATM    7  C   UNL     1       8.802  24.505  57.309  1.00  0.00     0.093 C 
HETATM    8  N   UNL     1       6.907  25.591  56.270  1.00  0.00    -0.215 NA
HETATM    9  C   UNL     1       6.087  26.640  56.020  1.00  0.00     0.143 A 
HETATM   10  S   UNL     1       7.757  29.356  58.259  1.00  0.00    -0.074 SA
HETATM   11  C   UNL     1       6.388  30.067  57.532  1.00  0.00    -0.012 A 
HETATM   12  C   UNL     1       6.066  31.497  57.827  1.00  0.00     0.057 C 
ENDROOT
BRANCH   9  13
HETATM   13  N   UNL     1       5.046  26.505  55.088  1.00  0.00    -0.340 N 
HETATM   14  H   UNL     1       4.129  26.560  55.501  1.00  0.00     0.167 HD
BRANCH  13  15
HETATM   15  C   UNL     1       5.045  26.508  53.681  1.00  0.00     0.036 A 
HETATM   16  C   UNL     1       5.048  27.676  52.910  1.00  0.00     0.069 A 
HETATM   17  C   UNL     1       5.049  27.616  51.514  1.00  0.00     0.104 A 
HETATM   18  C   UNL     1       5.012  26.382  50.863  1.00  0.00     0.102 A 
HETATM   19  O   UNL     1       5.081  28.814  50.845  1.00  0.00    -0.346 OA
HETATM   20  O   UNL     1       4.973  26.247  49.500  1.00  0.00    -0.346 OA
HETATM   21  C   UNL     1       5.024  25.208  51.609  1.00  0.00     0.042 A 
HETATM   22  C   UNL     1       4.626  27.485  48.866  1.00  0.00     0.202 C 
HETATM   23  C   UNL     1       5.419  28.634  49.466  1.00  0.00     0.202 C 
HETATM   24  C   UNL     1       5.041  25.274  53.006  1.00  0.00     0.032 A 
ENDBRANCH  13  15
ENDBRANCH   9  13
TORSDOF 2
ENDMDL
MODEL 10
REMARK VINA RESULT:      -8.0      7.694     10.826
REMARK  2 active torsions:
REMARK  status: ('A' for Active; 'I' for Inactive)
REMARK    1  A    between atoms: C_9  and  N_10 
REMARK    2  A    between atoms: N_10  and  C_11 
ROOT
HETATM    1  C   UNL     1       9.890  31.554  59.092  1.00  0.00     0.050 C 
HETATM    2  C   UNL     1       8.960  30.771  58.217  1.00  0.00    -0.032 A 
HETATM    3  C   UNL     1       7.504  30.891  58.222  1.00  0.00     0.053 A 
HETATM    4  C   UNL     1       6.939  29.978  57.343  1.00  0.00     0.114 A 
HETATM    5  N   UNL     1       5.634  29.777  57.109  1.00  0.00    -0.226 NA
HETATM    6  C   UNL     1       4.845  30.566  57.837  1.00  0.00     0.125 A 
HETATM    7  C   UNL     1       3.365  30.420  57.658  1.00  0.00     0.093 C 
HETATM    8  N   UNL     1       5.258  31.496  58.711  1.00  0.00    -0.215 NA
HETATM    9  C   UNL     1       6.579  31.704  58.929  1.00  0.00     0.143 A 
HETATM   10  S   UNL     1       8.091  29.058  56.501  1.00  0.00    -0.074 SA
HETATM   11  C   UNL     1       9.392  29.820  57.299  1.00  0.00    -0.012 A 
HETATM   12  C   UNL     1      10.790  29.405  56.973  1.00  0.00     0.057 C 
ENDROOT
BRANCH   9  13
HETATM   13  N   UNL     1       6.990  32.730  59.795  1.00  0.00    -0.340 N 
HETATM   14  H   UNL     1       7.217  33.588  59.319  1.00  0.00     0.167 HD
BRANCH  13  15
HETATM   15  C   UNL     1       6.951  32.842  61.197  1.00  0.00     0.036 A 
HETATM   16  C   UNL     1       5.884  33.416  61.897  1.00  0.00     0.069 A 
HETATM   17  C   UNL     1       5.902  33.497  63.292  1.00  0.00     0.104 A 
HETATM   18  C   UNL     1       7.007  33.035  64.010  1.00  0.00     0.102 A 
HETATM   19  O   UNL     1       4.798  34.050  63.892  1.00  0.00    -0.346 OA
HETATM   20  O   UNL     1       7.109  33.116  65.374  1.00  0.00    -0.346 OA
HETATM   21  C   UNL     1       8.071  32.447  63.335  1.00  0.00     0.042 A 
HETATM   22  C   UNL     1       6.139  34.022  65.914  1.00  0.00     0.202 C 
HETATM   23  C   UNL     1       4.773  33.775  65.297  1.00  0.00     0.202 C 
HETATM   24  C   UNL     1       8.040  32.352  61.940  1.00  0.00     0.032 A 
ENDBRANCH  13  15
ENDBRANCH   9  13
TORSDOF 2
ENDMDL
