MODEL 1
REMARK VINA RESULT:     -10.0      0.000      0.000
REMARK  6 active torsions:
REMARK  status: ('A' for Active; 'I' for Inactive)
REMARK    1  A    between atoms: C_2  and  C_3 
REMARK    2  A    between atoms: C_6  and  N_7 
REMARK    3  A    between atoms: C_8  and  O_9 
REMARK    4  A    between atoms: C_8  and  C_10 
REMARK       I    between atoms: C_10  and  N_11 
REMARK    5  A    between atoms: N_11  and  C_12 
REMARK    6  A    between atoms: C_12  and  C_13 
ROOT
HETATM    1  N   UNL     1       4.994  27.778  51.832  1.00  0.00    -0.254 N 
HETATM    2  C   UNL     1       5.164  26.797  52.919  1.00  0.00     0.256 C 
HETATM    3  C   UNL     1       5.152  27.474  54.273  1.00  0.00     0.034 A 
HETATM    4  C   UNL     1       5.673  28.761  54.348  1.00  0.00     0.048 A 
HETATM    5  N   UNL     1       6.059  29.391  53.167  1.00  0.00    -0.308 N 
HETATM    6  C   UNL     1       5.694  28.979  51.912  1.00  0.00     0.330 C 
HETATM    7  O   UNL     1       5.972  29.710  50.963  1.00  0.00    -0.246 OA
HETATM    8  C   UNL     1       4.733  26.841  55.454  1.00  0.00     0.015 A 
HETATM    9  C   UNL     1       4.828  27.503  56.679  1.00  0.00     0.001 A 
HETATM   10  C   UNL     1       5.360  28.790  56.737  1.00  0.00     0.002 A 
HETATM   11  C   UNL     1       5.794  29.420  55.570  1.00  0.00     0.030 A 
HETATM   12  H   UNL     1       6.458  30.320  53.204  1.00  0.00     0.170 HD
ENDROOT
BRANCH   2  13
HETATM   13  O   UNL     1       4.111  25.828  52.923  1.00  0.00    -0.359 OA
HETATM   14  H   UNL     1       3.838  25.738  53.851  1.00  0.00     0.213 HD
ENDBRANCH   2  13
BRANCH   2  15
HETATM   15  C   UNL     1       6.541  25.994  52.769  1.00  0.00     0.279 C 
HETATM   16  N   UNL     1       6.467  24.664  52.387  1.00  0.00    -0.352 N 
HETATM   17  H   UNL     1       5.621  24.163  52.622  1.00  0.00     0.162 HD
HETATM   18  O   UNL     1       7.631  26.543  52.950  1.00  0.00    -0.268 OA
BRANCH  16  19
HETATM   19  C   UNL     1       7.676  23.890  52.214  1.00  0.00     0.161 C 
BRANCH  19  20
HETATM   20  C   UNL     1       7.865  22.768  53.211  1.00  0.00    -0.038 A 
HETATM   21  C   UNL     1       7.934  23.113  54.576  1.00  0.00     0.048 A 
HETATM   22  C   UNL     1       8.148  22.113  55.502  1.00  0.00     0.105 A 
HETATM   23  C   UNL     1       8.290  20.800  55.129  1.00  0.00     0.105 A 
HETATM   24  O   UNL     1       8.254  22.285  56.847  1.00  0.00    -0.323 OA
HETATM   25  O   UNL     1       8.500  19.977  56.190  1.00  0.00    -0.323 OA
HETATM   26  C   UNL     1       8.229  20.417  53.808  1.00  0.00     0.040 A 
HETATM   27  C   UNL     1       8.498  20.929  57.275  1.00  0.00     0.352 A 
HETATM   28  C   UNL     1       8.024  21.412  52.843  1.00  0.00     0.012 A 
ENDBRANCH  19  20
ENDBRANCH  16  19
ENDBRANCH   2  15
BRANCH   1  29
HETATM   29  C   UNL     1       4.266  27.441  50.649  1.00  0.00     0.043 A 
HETATM   30  C   UNL     1       4.691  26.433  49.778  1.00  0.00     0.030 A 
HETATM   31  C   UNL     1       3.976  26.151  48.606  1.00  0.00     0.009 A 
HETATM   32  C   UNL     1       2.837  26.889  48.267  1.00  0.00    -0.058 A 
HETATM   33  C   UNL     1       2.431  27.921  49.117  1.00  0.00     0.009 A 
HETATM   34  C   UNL     1       3.139  28.193  50.289  1.00  0.00     0.030 A 
BRANCH  32  35
HETATM   35  C   UNL     1       2.075  26.606  46.997  1.00  0.00     0.034 C 
HETATM   36  C   UNL     1       0.806  27.440  46.885  1.00  0.00     0.010 C 
ENDBRANCH  32  35
ENDBRANCH   1  29
TORSDOF 6
ENDMDL
MODEL 2
REMARK VINA RESULT:      -9.8      3.052      6.824
REMARK  6 active torsions:
REMARK  status: ('A' for Active; 'I' for Inactive)
REMARK    1  A    between atoms: C_2  and  C_3 
REMARK    2  A    between atoms: C_6  and  N_7 
REMARK    3  A    between atoms: C_8  and  O_9 
REMARK    4  A    between atoms: C_8  and  C_10 
REMARK       I    between atoms: C_10  and  N_11 
REMARK    5  A    between atoms: N_11  and  C_12 
REMARK    6  A    between atoms: C_12  and  C_13 
ROOT
HETATM    1  N   UNL     1       6.108  28.427  56.399  1.00  0.00    -0.254 N 
HETATM    2  C   UNL     1       6.955  27.414  55.744  1.00  0.00     0.256 C 
HETATM    3  C   UNL     1       6.461  27.109  54.346  1.00  0.00     0.034 A 
HETATM    4  C   UNL     1       5.090  27.183  54.124  1.00  0.00     0.048 A 
HETATM    5  N   UNL     1       4.275  27.647  55.153  1.00  0.00    -0.308 N 
HETATM    6  C   UNL     1       4.727  28.320  56.258  1.00  0.00     0.330 C 
HETATM    7  O   UNL     1       3.891  28.811  57.015  1.00  0.00    -0.246 OA
HETATM    8  C   UNL     1       7.294  26.669  53.305  1.00  0.00     0.015 A 
HETATM    9  C   UNL     1       6.752  26.328  52.066  1.00  0.00     0.001 A 
HETATM   10  C   UNL     1       5.375  26.401  51.862  1.00  0.00     0.002 A 
HETATM   11  C   UNL     1       4.538  26.821  52.897  1.00  0.00     0.030 A 
HETATM   12  H   UNL     1       3.273  27.690  55.016  1.00  0.00     0.170 HD
ENDROOT
BRANCH   2  13
HETATM   13  O   UNL     1       8.310  27.862  55.622  1.00  0.00    -0.359 OA
HETATM   14  H   UNL     1       8.769  27.180  55.103  1.00  0.00     0.213 HD
ENDBRANCH   2  13
BRANCH   2  15
HETATM   15  C   UNL     1       6.985  26.049  56.579  1.00  0.00     0.279 C 
HETATM   16  N   UNL     1       8.176  25.342  56.607  1.00  0.00    -0.352 N 
HETATM   17  H   UNL     1       8.800  25.458  55.820  1.00  0.00     0.162 HD
HETATM   18  O   UNL     1       5.998  25.655  57.205  1.00  0.00    -0.268 OA
BRANCH  16  19
HETATM   19  C   UNL     1       8.272  24.112  57.361  1.00  0.00     0.161 C 
BRANCH  19  20
HETATM   20  C   UNL     1       8.391  22.857  56.524  1.00  0.00    -0.038 A 
HETATM   21  C   UNL     1       8.342  23.000  55.123  1.00  0.00     0.048 A 
HETATM   22  C   UNL     1       8.406  21.867  54.338  1.00  0.00     0.105 A 
HETATM   23  C   UNL     1       8.519  20.614  54.886  1.00  0.00     0.105 A 
HETATM   24  O   UNL     1       8.357  21.838  52.980  1.00  0.00    -0.323 OA
HETATM   25  O   UNL     1       8.558  19.636  53.944  1.00  0.00    -0.323 OA
HETATM   26  C   UNL     1       8.571  20.426  56.249  1.00  0.00     0.040 A 
HETATM   27  C   UNL     1       8.432  20.418  52.737  1.00  0.00     0.352 A 
HETATM   28  C   UNL     1       8.497  21.558  57.073  1.00  0.00     0.012 A 
ENDBRANCH  19  20
ENDBRANCH  16  19
ENDBRANCH   2  15
BRANCH   1  29
HETATM   29  C   UNL     1       6.673  29.389  57.291  1.00  0.00     0.043 A 
HETATM   30  C   UNL     1       7.689  29.059  58.193  1.00  0.00     0.030 A 
HETATM   31  C   UNL     1       8.198  30.017  59.080  1.00  0.00     0.009 A 
HETATM   32  C   UNL     1       7.682  31.317  59.104  1.00  0.00    -0.058 A 
HETATM   33  C   UNL     1       6.642  31.640  58.229  1.00  0.00     0.009 A 
HETATM   34  C   UNL     1       6.144  30.687  57.338  1.00  0.00     0.030 A 
BRANCH  32  35
HETATM   35  C   UNL     1       8.209  32.346  60.071  1.00  0.00     0.034 C 
HETATM   36  C   UNL     1       9.550  31.943  60.671  1.00  0.00     0.010 C 
ENDBRANCH  32  35
ENDBRANCH   1  29
TORSDOF 6
ENDMDL
MODEL 3
REMARK VINA RESULT:      -9.8      4.185      8.068
REMARK  6 active torsions:
REMARK  status: ('A' for Active; 'I' for Inactive)
REMARK    1  A    between atoms: C_2  and  C_3 
REMARK    2  A    between atoms: C_6  and  N_7 
REMARK    3  A    between atoms: C_8  and  O_9 
REMARK    4  A    between atoms: C_8  and  C_10 
REMARK       I    between atoms: C_10  and  N_11 
REMARK    5  A    between atoms: N_11  and  C_12 
REMARK    6  A    between atoms: C_12  and  C_13 
ROOT
HETATM    1  N   UNL     1       6.936  26.494  54.995  1.00  0.00    -0.254 N 
HETATM    2  C   UNL     1       6.300  27.028  56.213  1.00  0.00     0.256 C 
HETATM    3  C   UNL     1       5.336  28.148  55.882  1.00  0.00     0.034 A 
HETATM    4  C   UNL     1       5.647  28.956  54.794  1.00  0.00     0.048 A 
HETATM    5  N   UNL     1       6.746  28.619  54.008  1.00  0.00    -0.308 N 
HETATM    6  C   UNL     1       7.370  27.398  54.029  1.00  0.00     0.330 C 
HETATM    7  O   UNL     1       8.230  27.177  53.178  1.00  0.00    -0.246 OA
HETATM    8  C   UNL     1       4.213  28.463  56.663  1.00  0.00     0.015 A 
HETATM    9  C   UNL     1       3.417  29.562  56.340  1.00  0.00     0.001 A 
HETATM   10  C   UNL     1       3.747  30.366  55.250  1.00  0.00     0.002 A 
HETATM   11  C   UNL     1       4.871  30.070  54.479  1.00  0.00     0.030 A 
HETATM   12  H   UNL     1       6.999  29.206  53.224  1.00  0.00     0.170 HD
ENDROOT
BRANCH   2  13
HETATM   13  O   UNL     1       5.553  26.019  56.901  1.00  0.00    -0.359 OA
HETATM   14  H   UNL     1       4.617  26.228  56.743  1.00  0.00     0.213 HD
ENDBRANCH   2  13
BRANCH   2  15
HETATM   15  C   UNL     1       7.391  27.588  57.242  1.00  0.00     0.279 C 
HETATM   16  N   UNL     1       7.725  28.930  57.154  1.00  0.00    -0.352 N 
HETATM   17  H   UNL     1       7.618  29.373  56.251  1.00  0.00     0.162 HD
HETATM   18  O   UNL     1       7.892  26.866  58.107  1.00  0.00    -0.268 OA
BRANCH  16  19
HETATM   19  C   UNL     1       8.688  29.501  58.068  1.00  0.00     0.161 C 
BRANCH  19  20
HETATM   20  C   UNL     1       8.119  30.492  59.059  1.00  0.00    -0.038 A 
HETATM   21  C   UNL     1       8.689  30.529  60.347  1.00  0.00     0.048 A 
HETATM   22  C   UNL     1       8.161  31.394  61.282  1.00  0.00     0.105 A 
HETATM   23  C   UNL     1       7.102  32.217  60.989  1.00  0.00     0.105 A 
HETATM   24  O   UNL     1       8.588  31.535  62.566  1.00  0.00    -0.323 OA
HETATM   25  O   UNL     1       6.730  32.983  62.047  1.00  0.00    -0.323 OA
HETATM   26  C   UNL     1       6.514  32.217  59.744  1.00  0.00     0.040 A 
HETATM   27  C   UNL     1       7.662  32.529  63.051  1.00  0.00     0.352 A 
HETATM   28  C   UNL     1       7.022  31.340  58.776  1.00  0.00     0.012 A 
ENDBRANCH  19  20
ENDBRANCH  16  19
ENDBRANCH   2  15
BRANCH   1  29
HETATM   29  C   UNL     1       7.250  25.105  54.881  1.00  0.00     0.043 A 
HETATM   30  C   UNL     1       8.163  24.478  55.735  1.00  0.00     0.030 A 
HETATM   31  C   UNL     1       8.478  23.122  55.574  1.00  0.00     0.009 A 
HETATM   32  C   UNL     1       7.908  22.372  54.540  1.00  0.00    -0.058 A 
HETATM   33  C   UNL     1       7.024  23.005  53.663  1.00  0.00     0.009 A 
HETATM   34  C   UNL     1       6.703  24.353  53.831  1.00  0.00     0.030 A 
BRANCH  32  35
HETATM   35  C   UNL     1       8.259  20.918  54.348  1.00  0.00     0.034 C 
HETATM   36  C   UNL     1       8.253  20.511  52.881  1.00  0.00     0.010 C 
ENDBRANCH  32  35
ENDBRANCH   1  29
TORSDOF 6
ENDMDL
MODEL 4
REMARK VINA RESULT:      -9.7      2.552      7.423
REMARK  6 active torsions:
REMARK  status: ('A' for Active; 'I' for Inactive)
REMARK    1  A    between atoms: C_2  and  C_3 
REMARK    2  A    between atoms: C_6  and  N_7 
REMARK    3  A    between atoms: C_8  and  O_9 
REMARK    4  A    between atoms: C_8  and  C_10 
REMARK       I    between atoms: C_10  and  N_11 
REMARK    5  A    between atoms: N_11  and  C_12 
REMARK    6  A    between atoms: C_12  and  C_13 
ROOT
HETATM    1  N   UNL     1       7.179  26.231  55.617  1.00  0.00    -0.254 N 
HETATM    2  C   UNL     1       7.584  27.538  55.070  1.00  0.00     0.256 C 
HETATM    3  C   UNL     1       8.118  28.446  56.158  1.00  0.00     0.034 A 
HETATM    4  C   UNL     1       7.565  28.313  57.427  1.00  0.00     0.048 A 
HETATM    5  N   UNL     1       6.652  27.286  57.650  1.00  0.00    -0.308 N 
HETATM    6  C   UNL     1       6.476  26.210  56.819  1.00  0.00     0.330 C 
HETATM    7  O   UNL     1       5.750  25.296  57.208  1.00  0.00    -0.246 OA
HETATM    8  C   UNL     1       9.061  29.460  55.931  1.00  0.00     0.015 A 
HETATM    9  C   UNL     1       9.444  30.310  56.968  1.00  0.00     0.001 A 
HETATM   10  C   UNL     1       8.875  30.169  58.232  1.00  0.00     0.002 A 
HETATM   11  C   UNL     1       7.924  29.174  58.463  1.00  0.00     0.030 A 
HETATM   12  H   UNL     1       6.225  27.186  58.563  1.00  0.00     0.170 HD
ENDROOT
BRANCH   2  13
HETATM   13  O   UNL     1       8.619  27.400  54.091  1.00  0.00    -0.359 OA
HETATM   14  H   UNL     1       8.667  28.256  53.633  1.00  0.00     0.213 HD
ENDBRANCH   2  13
BRANCH   2  15
HETATM   15  C   UNL     1       6.357  28.277  54.354  1.00  0.00     0.279 C 
HETATM   16  N   UNL     1       6.380  28.362  52.972  1.00  0.00    -0.352 N 
HETATM   17  H   UNL     1       7.286  28.356  52.524  1.00  0.00     0.162 HD
HETATM   18  O   UNL     1       5.406  28.723  55.002  1.00  0.00    -0.268 OA
BRANCH  16  19
HETATM   19  C   UNL     1       5.291  28.999  52.266  1.00  0.00     0.161 C 
BRANCH  19  20
HETATM   20  C   UNL     1       4.807  28.260  51.037  1.00  0.00    -0.038 A 
HETATM   21  C   UNL     1       3.935  28.943  50.166  1.00  0.00     0.048 A 
HETATM   22  C   UNL     1       3.446  28.277  49.061  1.00  0.00     0.105 A 
HETATM   23  C   UNL     1       3.789  26.976  48.791  1.00  0.00     0.105 A 
HETATM   24  O   UNL     1       2.588  28.791  48.139  1.00  0.00    -0.323 OA
HETATM   25  O   UNL     1       3.195  26.506  47.663  1.00  0.00    -0.323 OA
HETATM   26  C   UNL     1       4.638  26.270  49.612  1.00  0.00     0.040 A 
HETATM   27  C   UNL     1       2.417  27.655  47.267  1.00  0.00     0.352 A 
HETATM   28  C   UNL     1       5.142  26.916  50.749  1.00  0.00     0.012 A 
ENDBRANCH  19  20
ENDBRANCH  16  19
ENDBRANCH   2  15
BRANCH   1  29
HETATM   29  C   UNL     1       7.351  25.034  54.858  1.00  0.00     0.043 A 
HETATM   30  C   UNL     1       6.542  24.728  53.759  1.00  0.00     0.030 A 
HETATM   31  C   UNL     1       6.713  23.527  53.057  1.00  0.00     0.009 A 
HETATM   32  C   UNL     1       7.677  22.595  53.455  1.00  0.00    -0.058 A 
HETATM   33  C   UNL     1       8.462  22.881  54.575  1.00  0.00     0.009 A 
HETATM   34  C   UNL     1       8.297  24.083  55.266  1.00  0.00     0.030 A 
BRANCH  32  35
HETATM   35  C   UNL     1       7.851  21.292  52.717  1.00  0.00     0.034 C 
HETATM   36  C   UNL     1       8.699  20.295  53.495  1.00  0.00     0.010 C 
ENDBRANCH  32  35
ENDBRANCH   1  29
TORSDOF 6
ENDMDL
MODEL 5
REMARK VINA RESULT:      -9.6      2.074      3.320
REMARK  6 active torsions:
REMARK  status: ('A' for Active; 'I' for Inactive)
REMARK    1  A    between atoms: C_2  and  C_3 
REMARK    2  A    between atoms: C_6  and  N_7 
REMARK    3  A    between atoms: C_8  and  O_9 
REMARK    4  A    between atoms: C_8  and  C_10 
REMARK       I    between atoms: C_10  and  N_11 
REMARK    5  A    between atoms: N_11  and  C_12 
REMARK    6  A    between atoms: C_12  and  C_13 
ROOT
HETATM    1  N   UNL     1       6.162  27.999  54.316  1.00  0.00    -0.254 N 
HETATM    2  C   UNL     1       5.261  27.972  55.482  1.00  0.00     0.256 C 
HETATM    3  C   UNL     1       5.457  29.194  56.354  1.00  0.00     0.034 A 
HETATM    4  C   UNL     1       6.738  29.731  56.420  1.00  0.00     0.048 A 
HETATM    5  N   UNL     1       7.726  29.196  55.597  1.00  0.00    -0.308 N 
HETATM    6  C   UNL     1       7.483  28.393  54.513  1.00  0.00     0.330 C 
HETATM    7  O   UNL     1       8.430  28.114  53.779  1.00  0.00    -0.246 OA
HETATM    8  C   UNL     1       4.448  29.745  57.158  1.00  0.00     0.015 A 
HETATM    9  C   UNL     1       4.727  30.823  57.999  1.00  0.00     0.001 A 
HETATM   10  C   UNL     1       6.018  31.344  58.059  1.00  0.00     0.002 A 
HETATM   11  C   UNL     1       7.032  30.792  57.274  1.00  0.00     0.030 A 
HETATM   12  H   UNL     1       8.669  29.561  55.645  1.00  0.00     0.170 HD
ENDROOT
BRANCH   2  13
HETATM   13  O   UNL     1       3.886  27.956  55.083  1.00  0.00    -0.359 OA
HETATM   14  H   UNL     1       3.742  28.785  54.596  1.00  0.00     0.213 HD
ENDBRANCH   2  13
BRANCH   2  15
HETATM   15  C   UNL     1       5.505  26.668  56.377  1.00  0.00     0.279 C 
HETATM   16  N   UNL     1       6.749  26.064  56.302  1.00  0.00    -0.352 N 
HETATM   17  H   UNL     1       7.268  26.182  55.442  1.00  0.00     0.162 HD
HETATM   18  O   UNL     1       4.633  26.234  57.135  1.00  0.00    -0.268 OA
BRANCH  16  19
HETATM   19  C   UNL     1       7.038  24.895  57.102  1.00  0.00     0.161 C 
BRANCH  19  20
HETATM   20  C   UNL     1       7.566  23.706  56.329  1.00  0.00    -0.038 A 
HETATM   21  C   UNL     1       7.258  23.631  54.956  1.00  0.00     0.048 A 
HETATM   22  C   UNL     1       7.691  22.536  54.238  1.00  0.00     0.105 A 
HETATM   23  C   UNL     1       8.413  21.527  54.825  1.00  0.00     0.105 A 
HETATM   24  O   UNL     1       7.463  22.311  52.916  1.00  0.00    -0.323 OA
HETATM   25  O   UNL     1       8.734  20.540  53.947  1.00  0.00    -0.323 OA
HETATM   26  C   UNL     1       8.738  21.557  56.162  1.00  0.00     0.040 A 
HETATM   27  C   UNL     1       8.109  21.033  52.744  1.00  0.00     0.352 A 
HETATM   28  C   UNL     1       8.302  22.652  56.920  1.00  0.00     0.012 A 
ENDBRANCH  19  20
ENDBRANCH  16  19
ENDBRANCH   2  15
BRANCH   1  29
HETATM   29  C   UNL     1       5.742  27.478  53.053  1.00  0.00     0.043 A 
HETATM   30  C   UNL     1       5.667  26.104  52.806  1.00  0.00     0.030 A 
HETATM   31  C   UNL     1       5.288  25.623  51.545  1.00  0.00     0.009 A 
HETATM   32  C   UNL     1       5.002  26.506  50.498  1.00  0.00    -0.058 A 
HETATM   33  C   UNL     1       5.111  27.879  50.733  1.00  0.00     0.009 A 
HETATM   34  C   UNL     1       5.479  28.355  51.992  1.00  0.00     0.030 A 
BRANCH  32  35
HETATM   35  C   UNL     1       4.614  25.996  49.134  1.00  0.00     0.034 C 
HETATM   36  C   UNL     1       4.691  27.080  48.067  1.00  0.00     0.010 C 
ENDBRANCH  32  35
ENDBRANCH   1  29
TORSDOF 6
ENDMDL
MODEL 6
REMARK VINA RESULT:      -9.1      2.870      4.353
REMARK  6 active torsions:
REMARK  status: ('A' for Active; 'I' for Inactive)
REMARK    1  A    between atoms: C_2  and  C_3 
REMARK    2  A    between atoms: C_6  and  N_7 
REMARK    3  A    between atoms: C_8  and  O_9 
REMARK    4  A    between atoms: C_8  and  C_10 
REMARK       I    between atoms: C_10  and  N_11 
REMARK    5  A    between atoms: N_11  and  C_12 
REMARK    6  A    between atoms: C_12  and  C_13 
ROOT
HETATM    1  N   UNL     1       6.982  28.680  55.460  1.00  0.00    -0.254 N 
HETATM    2  C   UNL     1       6.883  28.497  56.919  1.00  0.00     0.256 C 
HETATM    3  C   UNL     1       7.879  29.373  57.649  1.00  0.00     0.034 A 
HETATM    4  C   UNL     1       9.090  29.627  57.015  1.00  0.00     0.048 A 
HETATM    5  N   UNL     1       9.266  29.170  55.712  1.00  0.00    -0.308 N 
HETATM    6  C   UNL     1       8.250  28.756  54.890  1.00  0.00     0.330 C 
HETATM    7  O   UNL     1       8.521  28.523  53.713  1.00  0.00    -0.246 OA
HETATM    8  C   UNL     1       7.680  29.855  58.952  1.00  0.00     0.015 A 
HETATM    9  C   UNL     1       8.680  30.589  59.591  1.00  0.00     0.001 A 
HETATM   10  C   UNL     1       9.891  30.828  58.944  1.00  0.00     0.002 A 
HETATM   11  C   UNL     1      10.103  30.339  57.655  1.00  0.00     0.030 A 
HETATM   12  H   UNL     1      10.148  29.329  55.241  1.00  0.00     0.170 HD
ENDROOT
BRANCH   2  13
HETATM   13  O   UNL     1       5.582  28.843  57.405  1.00  0.00    -0.359 OA
HETATM   14  H   UNL     1       5.084  28.009  57.446  1.00  0.00     0.213 HD
ENDBRANCH   2  13
BRANCH   2  15
HETATM   15  C   UNL     1       7.150  26.974  57.334  1.00  0.00     0.279 C 
HETATM   16  N   UNL     1       6.557  25.987  56.564  1.00  0.00    -0.352 N 
HETATM   17  H   UNL     1       5.701  26.229  56.083  1.00  0.00     0.162 HD
HETATM   18  O   UNL     1       7.884  26.684  58.283  1.00  0.00    -0.268 OA
BRANCH  16  19
HETATM   19  C   UNL     1       6.777  24.593  56.877  1.00  0.00     0.161 C 
BRANCH  19  20
HETATM   20  C   UNL     1       7.110  23.717  55.689  1.00  0.00    -0.038 A 
HETATM   21  C   UNL     1       7.656  22.444  55.949  1.00  0.00     0.048 A 
HETATM   22  C   UNL     1       8.008  21.643  54.883  1.00  0.00     0.105 A 
HETATM   23  C   UNL     1       7.836  22.051  53.584  1.00  0.00     0.105 A 
HETATM   24  O   UNL     1       8.558  20.402  54.969  1.00  0.00    -0.323 OA
HETATM   25  O   UNL     1       8.252  21.119  52.687  1.00  0.00    -0.323 OA
HETATM   26  C   UNL     1       7.305  23.285  53.282  1.00  0.00     0.040 A 
HETATM   27  C   UNL     1       8.730  20.085  53.572  1.00  0.00     0.352 A 
HETATM   28  C   UNL     1       6.949  24.126  54.345  1.00  0.00     0.012 A 
ENDBRANCH  19  20
ENDBRANCH  16  19
ENDBRANCH   2  15
BRANCH   1  29
HETATM   29  C   UNL     1       5.819  28.614  54.632  1.00  0.00     0.043 A 
HETATM   30  C   UNL     1       5.484  27.462  53.914  1.00  0.00     0.030 A 
HETATM   31  C   UNL     1       4.357  27.439  53.082  1.00  0.00     0.009 A 
HETATM   32  C   UNL     1       3.557  28.577  52.929  1.00  0.00    -0.058 A 
HETATM   33  C   UNL     1       3.910  29.740  53.617  1.00  0.00     0.009 A 
HETATM   34  C   UNL     1       5.027  29.757  54.453  1.00  0.00     0.030 A 
BRANCH  32  35
HETATM   35  C   UNL     1       2.355  28.567  52.019  1.00  0.00     0.034 C 
HETATM   36  C   UNL     1       2.600  29.337  50.728  1.00  0.00     0.010 C 
ENDBRANCH  32  35
ENDBRANCH   1  29
TORSDOF 6
ENDMDL
MODEL 7
REMARK VINA RESULT:      -9.0      2.470      3.462
REMARK  6 active torsions:
REMARK  status: ('A' for Active; 'I' for Inactive)
REMARK    1  A    between atoms: C_2  and  C_3 
REMARK    2  A    between atoms: C_6  and  N_7 
REMARK    3  A    between atoms: C_8  and  O_9 
REMARK    4  A    between atoms: C_8  and  C_10 
REMARK       I    between atoms: C_10  and  N_11 
REMARK    5  A    between atoms: N_11  and  C_12 
REMARK    6  A    between atoms: C_12  and  C_13 
ROOT
HETATM    1  N   UNL     1       4.489  29.657  51.014  1.00  0.00    -0.254 N 
HETATM    2  C   UNL     1       4.013  29.712  52.407  1.00  0.00     0.256 C 
HETATM    3  C   UNL     1       3.769  31.140  52.847  1.00  0.00     0.034 A 
HETATM    4  C   UNL     1       4.591  32.123  52.306  1.00  0.00     0.048 A 
HETATM    5  N   UNL     1       5.497  31.759  51.313  1.00  0.00    -0.308 N 
HETATM    6  C   UNL     1       5.446  30.584  50.608  1.00  0.00     0.330 C 
HETATM    7  O   UNL     1       6.211  30.452  49.654  1.00  0.00    -0.246 OA
HETATM    8  C   UNL     1       2.833  31.503  53.827  1.00  0.00     0.015 A 
HETATM    9  C   UNL     1       2.723  32.831  54.239  1.00  0.00     0.001 A 
HETATM   10  C   UNL     1       3.560  33.802  53.692  1.00  0.00     0.002 A 
HETATM   11  C   UNL     1       4.505  33.448  52.728  1.00  0.00     0.030 A 
HETATM   12  H   UNL     1       6.117  32.456  50.921  1.00  0.00     0.170 HD
ENDROOT
BRANCH   2  13
HETATM   13  O   UNL     1       2.778  29.006  52.569  1.00  0.00    -0.359 OA
HETATM   14  H   UNL     1       2.081  29.624  52.291  1.00  0.00     0.213 HD
ENDBRANCH   2  13
BRANCH   2  15
HETATM   15  C   UNL     1       5.068  29.048  53.411  1.00  0.00     0.279 C 
HETATM   16  N   UNL     1       6.263  28.596  52.876  1.00  0.00    -0.352 N 
HETATM   17  H   UNL     1       6.258  28.317  51.904  1.00  0.00     0.162 HD
HETATM   18  O   UNL     1       4.846  28.972  54.622  1.00  0.00    -0.268 OA
BRANCH  16  19
HETATM   19  C   UNL     1       7.266  28.005  53.735  1.00  0.00     0.161 C 
BRANCH  19  20
HETATM   20  C   UNL     1       7.374  26.499  53.647  1.00  0.00    -0.038 A 
HETATM   21  C   UNL     1       7.251  25.765  54.844  1.00  0.00     0.048 A 
HETATM   22  C   UNL     1       7.388  24.394  54.798  1.00  0.00     0.105 A 
HETATM   23  C   UNL     1       7.637  23.731  53.622  1.00  0.00     0.105 A 
HETATM   24  O   UNL     1       7.311  23.551  55.863  1.00  0.00    -0.323 OA
HETATM   25  O   UNL     1       7.745  22.387  53.795  1.00  0.00    -0.323 OA
HETATM   26  C   UNL     1       7.764  24.405  52.429  1.00  0.00     0.040 A 
HETATM   27  C   UNL     1       7.560  22.282  55.222  1.00  0.00     0.352 A 
HETATM   28  C   UNL     1       7.641  25.801  52.446  1.00  0.00     0.012 A 
ENDBRANCH  19  20
ENDBRANCH  16  19
ENDBRANCH   2  15
BRANCH   1  29
HETATM   29  C   UNL     1       4.110  28.583  50.151  1.00  0.00     0.043 A 
HETATM   30  C   UNL     1       4.767  27.349  50.170  1.00  0.00     0.030 A 
HETATM   31  C   UNL     1       4.395  26.327  49.286  1.00  0.00     0.009 A 
HETATM   32  C   UNL     1       3.377  26.527  48.347  1.00  0.00    -0.058 A 
HETATM   33  C   UNL     1       2.744  27.772  48.301  1.00  0.00     0.009 A 
HETATM   34  C   UNL     1       3.109  28.784  49.190  1.00  0.00     0.030 A 
BRANCH  32  35
HETATM   35  C   UNL     1       2.987  25.440  47.378  1.00  0.00     0.034 C 
HETATM   36  C   UNL     1       2.931  24.069  48.039  1.00  0.00     0.010 C 
ENDBRANCH  32  35
ENDBRANCH   1  29
TORSDOF 6
ENDMDL
MODEL 8
REMARK VINA RESULT:      -8.9      3.202      5.820
REMARK  6 active torsions:
REMARK  status: ('A' for Active; 'I' for Inactive)
REMARK    1  A    between atoms: C_2  and  C_3 
REMARK    2  A    between atoms: C_6  and  N_7 
REMARK    3  A    between atoms: C_8  and  O_9 
REMARK    4  A    between atoms: C_8  and  C_10 
REMARK       I    between atoms: C_10  and  N_11 
REMARK    5  A    between atoms: N_11  and  C_12 
REMARK    6  A    between atoms: C_12  and  C_13 
ROOT
HETATM    1  N   UNL     1       4.183  30.111  49.290  1.00  0.00    -0.254 N 
HETATM    2  C   UNL     1       4.830  28.789  49.376  1.00  0.00     0.256 C 
HETATM    3  C   UNL     1       4.003  27.729  48.680  1.00  0.00     0.034 A 
HETATM    4  C   UNL     1       2.621  27.880  48.705  1.00  0.00     0.048 A 
HETATM    5  N   UNL     1       2.089  29.045  49.254  1.00  0.00    -0.308 N 
HETATM    6  C   UNL     1       2.808  30.186  49.498  1.00  0.00     0.330 C 
HETATM    7  O   UNL     1       2.190  31.193  49.839  1.00  0.00    -0.246 OA
HETATM    8  C   UNL     1       4.548  26.572  48.103  1.00  0.00     0.015 A 
HETATM    9  C   UNL     1       3.714  25.599  47.552  1.00  0.00     0.001 A 
HETATM   10  C   UNL     1       2.331  25.763  47.592  1.00  0.00     0.002 A 
HETATM   11  C   UNL     1       1.779  26.902  48.179  1.00  0.00     0.030 A 
HETATM   12  H   UNL     1       1.085  29.163  49.298  1.00  0.00     0.170 HD
ENDROOT
BRANCH   2  13
HETATM   13  O   UNL     1       6.119  28.793  48.753  1.00  0.00    -0.359 OA
HETATM   14  H   UNL     1       5.989  28.400  47.873  1.00  0.00     0.213 HD
ENDBRANCH   2  13
BRANCH   2  15
HETATM   15  C   UNL     1       5.045  28.343  50.898  1.00  0.00     0.279 C 
HETATM   16  N   UNL     1       4.516  27.124  51.289  1.00  0.00    -0.352 N 
HETATM   17  H   UNL     1       3.709  26.788  50.782  1.00  0.00     0.162 HD
HETATM   18  O   UNL     1       5.689  29.038  51.689  1.00  0.00    -0.268 OA
BRANCH  16  19
HETATM   19  C   UNL     1       4.695  26.656  52.645  1.00  0.00     0.161 C 
BRANCH  19  20
HETATM   20  C   UNL     1       5.794  25.632  52.828  1.00  0.00    -0.038 A 
HETATM   21  C   UNL     1       5.789  24.875  54.017  1.00  0.00     0.048 A 
HETATM   22  C   UNL     1       6.804  23.965  54.227  1.00  0.00     0.105 A 
HETATM   23  C   UNL     1       7.808  23.778  53.311  1.00  0.00     0.105 A 
HETATM   24  O   UNL     1       6.948  23.174  55.324  1.00  0.00    -0.323 OA
HETATM   25  O   UNL     1       8.710  22.844  53.711  1.00  0.00    -0.323 OA
HETATM   26  C   UNL     1       7.853  24.494  52.136  1.00  0.00     0.040 A 
HETATM   27  C   UNL     1       8.171  22.481  54.999  1.00  0.00     0.352 A 
HETATM   28  C   UNL     1       6.842  25.434  51.899  1.00  0.00     0.012 A 
ENDBRANCH  19  20
ENDBRANCH  16  19
ENDBRANCH   2  15
BRANCH   1  29
HETATM   29  C   UNL     1       4.963  31.301  49.165  1.00  0.00     0.043 A 
HETATM   30  C   UNL     1       5.484  31.967  50.278  1.00  0.00     0.030 A 
HETATM   31  C   UNL     1       6.215  33.154  50.125  1.00  0.00     0.009 A 
HETATM   32  C   UNL     1       6.416  33.713  48.859  1.00  0.00    -0.058 A 
HETATM   33  C   UNL     1       5.865  33.069  47.748  1.00  0.00     0.009 A 
HETATM   34  C   UNL     1       5.147  31.882  47.902  1.00  0.00     0.030 A 
BRANCH  32  35
HETATM   35  C   UNL     1       7.182  35.000  48.689  1.00  0.00     0.034 C 
HETATM   36  C   UNL     1       8.487  34.801  47.931  1.00  0.00     0.010 C 
ENDBRANCH  32  35
ENDBRANCH   1  29
TORSDOF 6
ENDMDL
MODEL 9
REMARK VINA RESULT:      -8.5      8.927     13.480
REMARK  6 active torsions:
REMARK  status: ('A' for Active; 'I' for Inactive)
REMARK    1  A    between atoms: C_2  and  C_3 
REMARK    2  A    between atoms: C_6  and  N_7 
REMARK    3  A    between atoms: C_8  and  O_9 
REMARK    4  A    between atoms: C_8  and  C_10 
REMARK       I    between atoms: C_10  and  N_11 
REMARK    5  A    between atoms: N_11  and  C_12 
REMARK    6  A    between atoms: C_12  and  C_13 
ROOT
HETATM    1  N   UNL     1       5.714  33.412  62.765  1.00  0.00    -0.254 N 
HETATM    2  C   UNL     1       5.290  34.824  62.777  1.00  0.00     0.256 C 
HETATM    3  C   UNL     1       5.005  35.298  64.186  1.00  0.00     0.034 A 
HETATM    4  C   UNL     1       4.495  34.364  65.082  1.00  0.00     0.048 A 
HETATM    5  N   UNL     1       4.394  33.037  64.672  1.00  0.00    -0.308 N 
HETATM    6  C   UNL     1       5.029  32.512  63.576  1.00  0.00     0.330 C 
HETATM    7  O   UNL     1       4.981  31.294  63.412  1.00  0.00    -0.246 OA
HETATM    8  C   UNL     1       5.137  36.632  64.599  1.00  0.00     0.015 A 
HETATM    9  C   UNL     1       4.776  37.008  65.893  1.00  0.00     0.001 A 
HETATM   10  C   UNL     1       4.260  36.061  66.776  1.00  0.00     0.002 A 
HETATM   11  C   UNL     1       4.109  34.735  66.368  1.00  0.00     0.030 A 
HETATM   12  H   UNL     1       4.008  32.347  65.304  1.00  0.00     0.170 HD
ENDROOT
BRANCH   2  13
HETATM   13  O   UNL     1       6.304  35.682  62.242  1.00  0.00    -0.359 OA
HETATM   14  H   UNL     1       7.100  35.131  62.159  1.00  0.00     0.213 HD
ENDBRANCH   2  13
BRANCH   2  15
HETATM   15  C   UNL     1       3.974  35.045  61.893  1.00  0.00     0.279 C 
HETATM   16  N   UNL     1       4.046  35.959  60.854  1.00  0.00    -0.352 N 
HETATM   17  H   UNL     1       4.716  36.711  60.947  1.00  0.00     0.162 HD
HETATM   18  O   UNL     1       2.942  34.402  62.102  1.00  0.00    -0.268 OA
BRANCH  16  19
HETATM   19  C   UNL     1       2.897  36.187  60.007  1.00  0.00     0.161 C 
BRANCH  19  20
HETATM   20  C   UNL     1       2.941  35.486  58.668  1.00  0.00    -0.038 A 
HETATM   21  C   UNL     1       4.129  34.811  58.322  1.00  0.00     0.048 A 
HETATM   22  C   UNL     1       4.210  34.199  57.089  1.00  0.00     0.105 A 
HETATM   23  C   UNL     1       3.166  34.228  56.198  1.00  0.00     0.105 A 
HETATM   24  O   UNL     1       5.287  33.524  56.605  1.00  0.00    -0.323 OA
HETATM   25  O   UNL     1       3.451  33.573  55.042  1.00  0.00    -0.323 OA
HETATM   26  C   UNL     1       1.986  34.874  56.492  1.00  0.00     0.040 A 
HETATM   27  C   UNL     1       4.806  33.149  55.298  1.00  0.00     0.352 A 
HETATM   28  C   UNL     1       1.879  35.515  57.734  1.00  0.00     0.012 A 
ENDBRANCH  19  20
ENDBRANCH  16  19
ENDBRANCH   2  15
BRANCH   1  29
HETATM   29  C   UNL     1       6.686  32.947  61.826  1.00  0.00     0.043 A 
HETATM   30  C   UNL     1       6.355  32.652  60.500  1.00  0.00     0.030 A 
HETATM   31  C   UNL     1       7.324  32.162  59.613  1.00  0.00     0.009 A 
HETATM   32  C   UNL     1       8.636  31.932  60.041  1.00  0.00    -0.058 A 
HETATM   33  C   UNL     1       8.960  32.191  61.375  1.00  0.00     0.009 A 
HETATM   34  C   UNL     1       7.996  32.689  62.254  1.00  0.00     0.030 A 
BRANCH  32  35
HETATM   35  C   UNL     1       9.677  31.384  59.098  1.00  0.00     0.034 C 
HETATM   36  C   UNL     1       9.086  30.417  58.081  1.00  0.00     0.010 C 
ENDBRANCH  32  35
ENDBRANCH   1  29
TORSDOF 6
ENDMDL
MODEL 10
REMARK VINA RESULT:      -8.5     14.770     17.985
REMARK  6 active torsions:
REMARK  status: ('A' for Active; 'I' for Inactive)
REMARK    1  A    between atoms: C_2  and  C_3 
REMARK    2  A    between atoms: C_6  and  N_7 
REMARK    3  A    between atoms: C_8  and  O_9 
REMARK    4  A    between atoms: C_8  and  C_10 
REMARK       I    between atoms: C_10  and  N_11 
REMARK    5  A    between atoms: N_11  and  C_12 
REMARK    6  A    between atoms: C_12  and  C_13 
ROOT
HETATM    1  N   UNL     1      12.183  11.124  53.283  1.00  0.00    -0.254 N 
HETATM    2  C   UNL     1      11.507  10.053  54.036  1.00  0.00     0.256 C 
HETATM    3  C   UNL     1      10.012  10.286  54.096  1.00  0.00     0.034 A 
HETATM    4  C   UNL     1       9.573  11.605  54.129  1.00  0.00     0.048 A 
HETATM    5  N   UNL     1      10.513  12.622  53.982  1.00  0.00    -0.308 N 
HETATM    6  C   UNL     1      11.787  12.440  53.509  1.00  0.00     0.330 C 
HETATM    7  O   UNL     1      12.465  13.441  53.283  1.00  0.00    -0.246 OA
HETATM    8  C   UNL     1       9.069   9.253  54.214  1.00  0.00     0.015 A 
HETATM    9  C   UNL     1       7.713   9.551  54.347  1.00  0.00     0.001 A 
HETATM   10  C   UNL     1       7.290  10.878  54.385  1.00  0.00     0.002 A 
HETATM   11  C   UNL     1       8.223  11.911  54.286  1.00  0.00     0.030 A 
HETATM   12  H   UNL     1      10.215  13.588  54.023  1.00  0.00     0.170 HD
ENDROOT
BRANCH   2  13
HETATM   13  O   UNL     1      11.710   8.774  53.427  1.00  0.00    -0.359 OA
HETATM   14  H   UNL     1      12.670   8.685  53.309  1.00  0.00     0.213 HD
ENDBRANCH   2  13
BRANCH   2  15
HETATM   15  C   UNL     1      12.063   9.953  55.534  1.00  0.00     0.279 C 
HETATM   16  N   UNL     1      12.989   8.959  55.808  1.00  0.00    -0.352 N 
HETATM   17  H   UNL     1      12.959   8.129  55.231  1.00  0.00     0.162 HD
HETATM   18  O   UNL     1      11.711  10.750  56.407  1.00  0.00    -0.268 OA
BRANCH  16  19
HETATM   19  C   UNL     1      13.544   8.830  57.136  1.00  0.00     0.161 C 
BRANCH  19  20
HETATM   20  C   UNL     1      14.991   9.254  57.269  1.00  0.00    -0.038 A 
HETATM   21  C   UNL     1      15.738   8.703  58.329  1.00  0.00     0.048 A 
HETATM   22  C   UNL     1      17.046   9.105  58.497  1.00  0.00     0.105 A 
HETATM   23  C   UNL     1      17.635  10.019  57.659  1.00  0.00     0.105 A 
HETATM   24  O   UNL     1      17.889   8.679  59.476  1.00  0.00    -0.323 OA
HETATM   25  O   UNL     1      18.923  10.283  58.001  1.00  0.00    -0.323 OA
HETATM   26  C   UNL     1      16.945  10.583  56.610  1.00  0.00     0.040 A 
HETATM   27  C   UNL     1      19.071   9.447  59.167  1.00  0.00     0.352 A 
HETATM   28  C   UNL     1      15.609  10.202  56.421  1.00  0.00     0.012 A 
ENDBRANCH  19  20
ENDBRANCH  16  19
ENDBRANCH   2  15
BRANCH   1  29
HETATM   29  C   UNL     1      13.325  10.841  52.471  1.00  0.00     0.043 A 
HETATM   30  C   UNL     1      14.607  10.711  53.013  1.00  0.00     0.030 A 
HETATM   31  C   UNL     1      15.712  10.470  52.186  1.00  0.00     0.009 A 
HETATM   32  C   UNL     1      15.563  10.381  50.798  1.00  0.00    -0.058 A 
HETATM   33  C   UNL     1      14.288  10.547  50.251  1.00  0.00     0.009 A 
HETATM   34  C   UNL     1      13.187  10.777  51.077  1.00  0.00     0.030 A 
BRANCH  32  35
HETATM   35  C   UNL     1      16.750  10.143  49.900  1.00  0.00     0.034 C 
HETATM   36  C   UNL     1      17.662   9.043  50.426  1.00  0.00     0.010 C 
ENDBRANCH  32  35
ENDBRANCH   1  29
TORSDOF 6
ENDMDL
