MODEL 1
REMARK VINA RESULT:      -8.6      0.000      0.000
REMARK  8 active torsions:
REMARK  status: ('A' for Active; 'I' for Inactive)
REMARK    1  A    between atoms: C_2  and  C_3 
REMARK    2  A    between atoms: C_7  and  C_8 
REMARK       I    between atoms: C_8  and  N_9 
REMARK    3  A    between atoms: N_9  and  C_10 
REMARK    4  A    between atoms: C_10  and  C_11 
REMARK    5  A    between atoms: C_11  and  O_12 
REMARK    6  A    between atoms: C_11  and  C_13 
REMARK    7  A    between atoms: C_13  and  O_14 
REMARK    8  A    between atoms: O_14  and  C_15 
ROOT
HETATM    1  C   UNL     1       5.070  26.912  52.039  1.00  0.00     0.269 C 
HETATM    2  N   UNL     1       4.036  27.066  52.924  1.00  0.00    -0.353 N 
HETATM    3  O   UNL     1       5.302  27.722  51.147  1.00  0.00    -0.266 OA
HETATM    4  H   UNL     1       3.767  26.301  53.526  1.00  0.00     0.162 HD
ENDROOT
BRANCH   1   5
HETATM    5  C   UNL     1       5.892  25.751  52.262  1.00  0.00     0.120 A 
HETATM    6  N   UNL     1       7.073  25.563  51.600  1.00  0.00    -0.272 N 
HETATM    7  N   UNL     1       7.771  24.492  52.010  1.00  0.00    -0.174 NA
HETATM    8  H   UNL     1       7.470  26.162  50.883  1.00  0.00     0.189 HD
HETATM    9  C   UNL     1       7.011  23.940  52.969  1.00  0.00     0.089 A 
HETATM   10  C   UNL     1       5.808  24.682  53.133  1.00  0.00     0.071 A 
BRANCH   9  11
HETATM   11  C   UNL     1       7.457  22.770  53.732  1.00  0.00    -0.005 A 
HETATM   12  C   UNL     1       7.475  22.806  55.137  1.00  0.00     0.017 A 
HETATM   13  C   UNL     1       7.852  21.682  55.876  1.00  0.00     0.043 A 
HETATM   14  C   UNL     1       8.221  20.519  55.210  1.00  0.00     0.116 A 
HETATM   15  C   UNL     1       8.222  20.461  53.822  1.00  0.00     0.043 A 
HETATM   16  F   UNL     1       8.576  19.438  55.915  1.00  0.00    -0.206 F 
HETATM   17  C   UNL     1       7.841  21.585  53.082  1.00  0.00     0.017 A 
ENDBRANCH   9  11
ENDBRANCH   1   5
BRANCH   2  18
HETATM   18  C   UNL     1       3.263  28.287  53.046  1.00  0.00     0.156 C 
BRANCH  18  19
HETATM   19  C   UNL     1       3.903  29.342  53.948  1.00  0.00     0.159 C 
BRANCH  19  20
HETATM   20  O   UNL     1       4.931  30.046  53.235  1.00  0.00    -0.392 OA
HETATM   21  H   UNL     1       5.767  29.746  53.647  1.00  0.00     0.210 HD
ENDBRANCH  19  20
BRANCH  19  22
HETATM   22  C   UNL     1       4.463  28.776  55.258  1.00  0.00     0.201 C 
BRANCH  22  23
HETATM   23  O   UNL     1       5.883  28.655  55.064  1.00  0.00    -0.383 OA
BRANCH  23  24
HETATM   24  C   UNL     1       6.425  27.406  55.503  1.00  0.00     0.121 C 
HETATM   25  C   UNL     1       5.352  26.730  56.364  1.00  0.00     0.032 C 
HETATM   26  C   UNL     1       5.844  25.414  56.956  1.00  0.00     0.002 C 
HETATM   27  C   UNL     1       7.135  25.608  57.744  1.00  0.00     0.000 C 
HETATM   28  C   UNL     1       8.211  26.292  56.906  1.00  0.00     0.002 C 
HETATM   29  C   UNL     1       7.715  27.605  56.304  1.00  0.00     0.032 C 
ENDBRANCH  23  24
ENDBRANCH  22  23
ENDBRANCH  19  22
ENDBRANCH  18  19
ENDBRANCH   2  18
TORSDOF 8
ENDMDL
MODEL 2
REMARK VINA RESULT:      -8.4      6.485      9.787
REMARK  8 active torsions:
REMARK  status: ('A' for Active; 'I' for Inactive)
REMARK    1  A    between atoms: C_2  and  C_3 
REMARK    2  A    between atoms: C_7  and  C_8 
REMARK       I    between atoms: C_8  and  N_9 
REMARK    3  A    between atoms: N_9  and  C_10 
REMARK    4  A    between atoms: C_10  and  C_11 
REMARK    5  A    between atoms: C_11  and  O_12 
REMARK    6  A    between atoms: C_11  and  C_13 
REMARK    7  A    between atoms: C_13  and  O_14 
REMARK    8  A    between atoms: O_14  and  C_15 
ROOT
HETATM    1  C   UNL     1       9.088  29.222  57.567  1.00  0.00     0.269 C 
HETATM    2  N   UNL     1       8.232  28.170  57.760  1.00  0.00    -0.353 N 
HETATM    3  O   UNL     1       9.835  29.295  56.596  1.00  0.00    -0.266 OA
HETATM    4  H   UNL     1       7.766  28.054  58.649  1.00  0.00     0.162 HD
ENDROOT
BRANCH   1   5
HETATM    5  C   UNL     1       9.013  30.257  58.564  1.00  0.00     0.120 A 
HETATM    6  N   UNL     1       9.628  31.466  58.400  1.00  0.00    -0.272 N 
HETATM    7  N   UNL     1       9.360  32.358  59.367  1.00  0.00    -0.174 NA
HETATM    8  H   UNL     1      10.213  31.750  57.620  1.00  0.00     0.189 HD
HETATM    9  C   UNL     1       8.551  31.705  60.215  1.00  0.00     0.089 A 
HETATM   10  C   UNL     1       8.336  30.373  59.763  1.00  0.00     0.071 A 
BRANCH   9  11
HETATM   11  C   UNL     1       7.968  32.361  61.389  1.00  0.00    -0.005 A 
HETATM   12  C   UNL     1       6.820  33.162  61.254  1.00  0.00     0.017 A 
HETATM   13  C   UNL     1       6.227  33.754  62.373  1.00  0.00     0.043 A 
HETATM   14  C   UNL     1       6.786  33.553  63.628  1.00  0.00     0.116 A 
HETATM   15  C   UNL     1       7.927  32.776  63.787  1.00  0.00     0.043 A 
HETATM   16  F   UNL     1       6.217  34.114  64.703  1.00  0.00    -0.206 F 
HETATM   17  C   UNL     1       8.518  32.179  62.669  1.00  0.00     0.017 A 
ENDBRANCH   9  11
ENDBRANCH   1   5
BRANCH   2  18
HETATM   18  C   UNL     1       7.956  27.168  56.750  1.00  0.00     0.156 C 
BRANCH  18  19
HETATM   19  C   UNL     1       7.364  25.872  57.304  1.00  0.00     0.159 C 
BRANCH  19  20
HETATM   20  O   UNL     1       8.069  25.472  58.490  1.00  0.00    -0.392 OA
HETATM   21  H   UNL     1       7.421  25.592  59.213  1.00  0.00     0.210 HD
ENDBRANCH  19  20
BRANCH  19  22
HETATM   22  C   UNL     1       7.340  24.722  56.292  1.00  0.00     0.201 C 
BRANCH  22  23
HETATM   23  O   UNL     1       8.243  23.724  56.801  1.00  0.00    -0.383 OA
BRANCH  23  24
HETATM   24  C   UNL     1       8.616  22.733  55.840  1.00  0.00     0.121 C 
HETATM   25  C   UNL     1       7.997  23.151  54.502  1.00  0.00     0.032 C 
HETATM   26  C   UNL     1       8.264  22.124  53.407  1.00  0.00     0.002 C 
HETATM   27  C   UNL     1       7.790  20.735  53.819  1.00  0.00     0.000 C 
HETATM   28  C   UNL     1       8.388  20.308  55.157  1.00  0.00     0.002 C 
HETATM   29  C   UNL     1       8.129  21.341  56.252  1.00  0.00     0.032 C 
ENDBRANCH  23  24
ENDBRANCH  22  23
ENDBRANCH  19  22
ENDBRANCH  18  19
ENDBRANCH   2  18
TORSDOF 8
ENDMDL
MODEL 3
REMARK VINA RESULT:      -8.2      2.396      4.173
REMARK  8 active torsions:
REMARK  status: ('A' for Active; 'I' for Inactive)
REMARK    1  A    between atoms: C_2  and  C_3 
REMARK    2  A    between atoms: C_7  and  C_8 
REMARK       I    between atoms: C_8  and  N_9 
REMARK    3  A    between atoms: N_9  and  C_10 
REMARK    4  A    between atoms: C_10  and  C_11 
REMARK    5  A    between atoms: C_11  and  O_12 
REMARK    6  A    between atoms: C_11  and  C_13 
REMARK    7  A    between atoms: C_13  and  O_14 
REMARK    8  A    between atoms: O_14  and  C_15 
ROOT
HETATM    1  C   UNL     1       7.588  27.479  57.218  1.00  0.00     0.269 C 
HETATM    2  N   UNL     1       7.201  28.278  56.175  1.00  0.00    -0.353 N 
HETATM    3  O   UNL     1       7.627  27.880  58.378  1.00  0.00    -0.266 OA
HETATM    4  H   UNL     1       7.349  27.974  55.223  1.00  0.00     0.162 HD
ENDROOT
BRANCH   1   5
HETATM    5  C   UNL     1       7.901  26.121  56.859  1.00  0.00     0.120 A 
HETATM    6  N   UNL     1       8.220  25.180  57.797  1.00  0.00    -0.272 N 
HETATM    7  N   UNL     1       8.368  23.939  57.307  1.00  0.00    -0.174 NA
HETATM    8  H   UNL     1       8.310  25.325  58.798  1.00  0.00     0.189 HD
HETATM    9  C   UNL     1       8.157  24.069  55.988  1.00  0.00     0.089 A 
HETATM   10  C   UNL     1       7.894  25.429  55.663  1.00  0.00     0.071 A 
BRANCH   9  11
HETATM   11  C   UNL     1       8.160  22.914  55.085  1.00  0.00    -0.005 A 
HETATM   12  C   UNL     1       7.876  23.083  53.719  1.00  0.00     0.017 A 
HETATM   13  C   UNL     1       7.922  21.997  52.840  1.00  0.00     0.043 A 
HETATM   14  C   UNL     1       8.243  20.737  53.328  1.00  0.00     0.116 A 
HETATM   15  C   UNL     1       8.516  20.541  54.677  1.00  0.00     0.043 A 
HETATM   16  F   UNL     1       8.295  19.695  52.488  1.00  0.00    -0.206 F 
HETATM   17  C   UNL     1       8.475  21.628  55.556  1.00  0.00     0.017 A 
ENDBRANCH   9  11
ENDBRANCH   1   5
BRANCH   2  18
HETATM   18  C   UNL     1       6.592  29.582  56.349  1.00  0.00     0.156 C 
BRANCH  18  19
HETATM   19  C   UNL     1       5.073  29.542  56.520  1.00  0.00     0.159 C 
BRANCH  19  20
HETATM   20  O   UNL     1       4.736  29.256  57.887  1.00  0.00    -0.392 OA
HETATM   21  H   UNL     1       5.450  28.663  58.197  1.00  0.00     0.210 HD
ENDBRANCH  19  20
BRANCH  19  22
HETATM   22  C   UNL     1       4.373  28.549  55.585  1.00  0.00     0.201 C 
BRANCH  22  23
HETATM   23  O   UNL     1       4.834  28.859  54.258  1.00  0.00    -0.383 OA
BRANCH  23  24
HETATM   24  C   UNL     1       4.629  27.806  53.311  1.00  0.00     0.121 C 
HETATM   25  C   UNL     1       4.966  26.492  54.023  1.00  0.00     0.032 C 
HETATM   26  C   UNL     1       4.857  25.294  53.086  1.00  0.00     0.002 C 
HETATM   27  C   UNL     1       5.720  25.480  51.843  1.00  0.00     0.000 C 
HETATM   28  C   UNL     1       5.406  26.792  51.129  1.00  0.00     0.002 C 
HETATM   29  C   UNL     1       5.506  27.991  52.070  1.00  0.00     0.032 C 
ENDBRANCH  23  24
ENDBRANCH  22  23
ENDBRANCH  19  22
ENDBRANCH  18  19
ENDBRANCH   2  18
TORSDOF 8
ENDMDL
MODEL 4
REMARK VINA RESULT:      -8.1      6.404      9.803
REMARK  8 active torsions:
REMARK  status: ('A' for Active; 'I' for Inactive)
REMARK    1  A    between atoms: C_2  and  C_3 
REMARK    2  A    between atoms: C_7  and  C_8 
REMARK       I    between atoms: C_8  and  N_9 
REMARK    3  A    between atoms: N_9  and  C_10 
REMARK    4  A    between atoms: C_10  and  C_11 
REMARK    5  A    between atoms: C_11  and  O_12 
REMARK    6  A    between atoms: C_11  and  C_13 
REMARK    7  A    between atoms: C_13  and  O_14 
REMARK    8  A    between atoms: O_14  and  C_15 
ROOT
HETATM    1  C   UNL     1       8.576  29.113  57.816  1.00  0.00     0.269 C 
HETATM    2  N   UNL     1       7.608  28.159  57.643  1.00  0.00    -0.353 N 
HETATM    3  O   UNL     1       9.676  29.042  57.278  1.00  0.00    -0.266 OA
HETATM    4  H   UNL     1       6.789  28.156  58.234  1.00  0.00     0.162 HD
ENDROOT
BRANCH   1   5
HETATM    5  C   UNL     1       8.189  30.227  58.641  1.00  0.00     0.120 A 
HETATM    6  N   UNL     1       7.468  31.277  58.147  1.00  0.00    -0.272 N 
HETATM    7  N   UNL     1       7.090  32.172  59.074  1.00  0.00    -0.174 NA
HETATM    8  H   UNL     1       7.171  31.411  57.186  1.00  0.00     0.189 HD
HETATM    9  C   UNL     1       7.599  31.704  60.224  1.00  0.00     0.089 A 
HETATM   10  C   UNL     1       8.324  30.503  59.989  1.00  0.00     0.071 A 
BRANCH   9  11
HETATM   11  C   UNL     1       7.350  32.367  61.507  1.00  0.00    -0.005 A 
HETATM   12  C   UNL     1       6.205  33.165  61.681  1.00  0.00     0.017 A 
HETATM   13  C   UNL     1       5.932  33.762  62.914  1.00  0.00     0.043 A 
HETATM   14  C   UNL     1       6.808  33.571  63.975  1.00  0.00     0.116 A 
HETATM   15  C   UNL     1       7.952  32.797  63.826  1.00  0.00     0.043 A 
HETATM   16  F   UNL     1       6.546  34.137  65.160  1.00  0.00    -0.206 F 
HETATM   17  C   UNL     1       8.224  32.195  62.594  1.00  0.00     0.017 A 
ENDBRANCH   9  11
ENDBRANCH   1   5
BRANCH   2  18
HETATM   18  C   UNL     1       7.691  27.108  56.648  1.00  0.00     0.156 C 
BRANCH  18  19
HETATM   19  C   UNL     1       7.538  25.697  57.219  1.00  0.00     0.159 C 
BRANCH  19  20
HETATM   20  O   UNL     1       7.881  25.688  58.613  1.00  0.00    -0.392 OA
HETATM   21  H   UNL     1       8.637  26.305  58.685  1.00  0.00     0.210 HD
ENDBRANCH  19  20
BRANCH  19  22
HETATM   22  C   UNL     1       8.351  24.637  56.468  1.00  0.00     0.201 C 
BRANCH  22  23
HETATM   23  O   UNL     1       7.700  23.380  56.724  1.00  0.00    -0.383 OA
BRANCH  23  24
HETATM   24  C   UNL     1       7.434  22.613  55.547  1.00  0.00     0.121 C 
HETATM   25  C   UNL     1       8.166  21.276  55.708  1.00  0.00     0.032 C 
HETATM   26  C   UNL     1       8.018  20.395  54.473  1.00  0.00     0.002 C 
HETATM   27  C   UNL     1       8.477  21.121  53.213  1.00  0.00     0.000 C 
HETATM   28  C   UNL     1       7.767  22.461  53.044  1.00  0.00     0.002 C 
HETATM   29  C   UNL     1       7.906  23.340  54.285  1.00  0.00     0.032 C 
ENDBRANCH  23  24
ENDBRANCH  22  23
ENDBRANCH  19  22
ENDBRANCH  18  19
ENDBRANCH   2  18
TORSDOF 8
ENDMDL
MODEL 5
REMARK VINA RESULT:      -8.0      5.042      6.117
REMARK  8 active torsions:
REMARK  status: ('A' for Active; 'I' for Inactive)
REMARK    1  A    between atoms: C_2  and  C_3 
REMARK    2  A    between atoms: C_7  and  C_8 
REMARK       I    between atoms: C_8  and  N_9 
REMARK    3  A    between atoms: N_9  and  C_10 
REMARK    4  A    between atoms: C_10  and  C_11 
REMARK    5  A    between atoms: C_11  and  O_12 
REMARK    6  A    between atoms: C_11  and  C_13 
REMARK    7  A    between atoms: C_13  and  O_14 
REMARK    8  A    between atoms: O_14  and  C_15 
ROOT
HETATM    1  C   UNL     1       6.803  27.663  57.455  1.00  0.00     0.269 C 
HETATM    2  N   UNL     1       7.760  28.434  58.060  1.00  0.00    -0.353 N 
HETATM    3  O   UNL     1       5.661  28.066  57.256  1.00  0.00    -0.266 OA
HETATM    4  H   UNL     1       8.627  28.016  58.367  1.00  0.00     0.162 HD
ENDROOT
BRANCH   1   5
HETATM    5  C   UNL     1       7.250  26.363  57.029  1.00  0.00     0.120 A 
HETATM    6  N   UNL     1       7.745  25.444  57.911  1.00  0.00    -0.272 N 
HETATM    7  N   UNL     1       8.005  24.243  57.369  1.00  0.00    -0.174 NA
HETATM    8  H   UNL     1       7.887  25.573  58.908  1.00  0.00     0.189 HD
HETATM    9  C   UNL     1       7.689  24.382  56.072  1.00  0.00     0.089 A 
HETATM   10  C   UNL     1       7.242  25.708  55.813  1.00  0.00     0.071 A 
BRANCH   9  11
HETATM   11  C   UNL     1       7.766  23.259  55.133  1.00  0.00    -0.005 A 
HETATM   12  C   UNL     1       7.847  23.499  53.750  1.00  0.00     0.017 A 
HETATM   13  C   UNL     1       7.969  22.438  52.848  1.00  0.00     0.043 A 
HETATM   14  C   UNL     1       8.001  21.135  53.326  1.00  0.00     0.116 A 
HETATM   15  C   UNL     1       7.910  20.871  54.687  1.00  0.00     0.043 A 
HETATM   16  F   UNL     1       8.125  20.117  52.465  1.00  0.00    -0.206 F 
HETATM   17  C   UNL     1       7.793  21.931  55.591  1.00  0.00     0.017 A 
ENDBRANCH   9  11
ENDBRANCH   1   5
BRANCH   2  18
HETATM   18  C   UNL     1       7.601  29.852  58.317  1.00  0.00     0.156 C 
BRANCH  18  19
HETATM   19  C   UNL     1       8.883  30.665  58.139  1.00  0.00     0.159 C 
BRANCH  19  20
HETATM   20  O   UNL     1       9.998  29.789  57.910  1.00  0.00    -0.392 OA
HETATM   21  H   UNL     1       9.667  29.135  57.261  1.00  0.00     0.210 HD
ENDBRANCH  19  20
BRANCH  19  22
HETATM   22  C   UNL     1       9.184  31.607  59.309  1.00  0.00     0.201 C 
BRANCH  22  23
HETATM   23  O   UNL     1       8.210  31.307  60.323  1.00  0.00    -0.383 OA
BRANCH  23  24
HETATM   24  C   UNL     1       8.001  32.367  61.261  1.00  0.00     0.121 C 
HETATM   25  C   UNL     1       8.273  31.790  62.655  1.00  0.00     0.032 C 
HETATM   26  C   UNL     1       8.008  32.813  63.754  1.00  0.00     0.002 C 
HETATM   27  C   UNL     1       6.594  33.376  63.661  1.00  0.00     0.000 C 
HETATM   28  C   UNL     1       6.302  33.943  62.274  1.00  0.00     0.002 C 
HETATM   29  C   UNL     1       6.577  32.921  61.172  1.00  0.00     0.032 C 
ENDBRANCH  23  24
ENDBRANCH  22  23
ENDBRANCH  19  22
ENDBRANCH  18  19
ENDBRANCH   2  18
TORSDOF 8
ENDMDL
MODEL 6
REMARK VINA RESULT:      -7.9      7.550     10.567
REMARK  8 active torsions:
REMARK  status: ('A' for Active; 'I' for Inactive)
REMARK    1  A    between atoms: C_2  and  C_3 
REMARK    2  A    between atoms: C_7  and  C_8 
REMARK       I    between atoms: C_8  and  N_9 
REMARK    3  A    between atoms: N_9  and  C_10 
REMARK    4  A    between atoms: C_10  and  C_11 
REMARK    5  A    between atoms: C_11  and  O_12 
REMARK    6  A    between atoms: C_11  and  C_13 
REMARK    7  A    between atoms: C_13  and  O_14 
REMARK    8  A    between atoms: O_14  and  C_15 
ROOT
HETATM    1  C   UNL     1       9.668  31.112  58.792  1.00  0.00     0.269 C 
HETATM    2  N   UNL     1       9.311  29.908  58.243  1.00  0.00    -0.353 N 
HETATM    3  O   UNL     1      10.418  31.900  58.224  1.00  0.00    -0.266 OA
HETATM    4  H   UNL     1       8.842  29.214  58.808  1.00  0.00     0.162 HD
ENDROOT
BRANCH   1   5
HETATM    5  C   UNL     1       9.062  31.402  60.065  1.00  0.00     0.120 A 
HETATM    6  N   UNL     1       9.318  30.650  61.177  1.00  0.00    -0.272 N 
HETATM    7  N   UNL     1       8.766  31.126  62.304  1.00  0.00    -0.174 NA
HETATM    8  H   UNL     1       9.900  29.821  61.229  1.00  0.00     0.189 HD
HETATM    9  C   UNL     1       8.101  32.226  61.918  1.00  0.00     0.089 A 
HETATM   10  C   UNL     1       8.235  32.415  60.514  1.00  0.00     0.071 A 
BRANCH   9  11
HETATM   11  C   UNL     1       7.407  33.089  62.878  1.00  0.00    -0.005 A 
HETATM   12  C   UNL     1       6.428  33.996  62.436  1.00  0.00     0.017 A 
HETATM   13  C   UNL     1       5.727  34.790  63.348  1.00  0.00     0.043 A 
HETATM   14  C   UNL     1       6.009  34.685  64.704  1.00  0.00     0.116 A 
HETATM   15  C   UNL     1       6.980  33.805  65.165  1.00  0.00     0.043 A 
HETATM   16  F   UNL     1       5.333  35.439  65.580  1.00  0.00    -0.206 F 
HETATM   17  C   UNL     1       7.679  33.006  64.254  1.00  0.00     0.017 A 
ENDBRANCH   9  11
ENDBRANCH   1   5
BRANCH   2  18
HETATM   18  C   UNL     1       9.588  29.543  56.868  1.00  0.00     0.156 C 
BRANCH  18  19
HETATM   19  C   UNL     1       8.458  28.767  56.190  1.00  0.00     0.159 C 
BRANCH  19  20
HETATM   20  O   UNL     1       7.569  29.674  55.519  1.00  0.00    -0.392 OA
HETATM   21  H   UNL     1       7.017  29.100  54.950  1.00  0.00     0.210 HD
ENDBRANCH  19  20
BRANCH  19  22
HETATM   22  C   UNL     1       7.670  27.865  57.145  1.00  0.00     0.201 C 
BRANCH  22  23
HETATM   23  O   UNL     1       8.510  26.725  57.400  1.00  0.00    -0.383 OA
BRANCH  23  24
HETATM   24  C   UNL     1       7.894  25.470  57.101  1.00  0.00     0.121 C 
HETATM   25  C   UNL     1       8.948  24.384  57.345  1.00  0.00     0.032 C 
HETATM   26  C   UNL     1       8.428  22.997  56.985  1.00  0.00     0.002 C 
HETATM   27  C   UNL     1       7.917  22.950  55.549  1.00  0.00     0.000 C 
HETATM   28  C   UNL     1       6.876  24.034  55.284  1.00  0.00     0.002 C 
HETATM   29  C   UNL     1       7.393  25.422  55.655  1.00  0.00     0.032 C 
ENDBRANCH  23  24
ENDBRANCH  22  23
ENDBRANCH  19  22
ENDBRANCH  18  19
ENDBRANCH   2  18
TORSDOF 8
ENDMDL
MODEL 7
REMARK VINA RESULT:      -7.9      3.841      4.406
REMARK  8 active torsions:
REMARK  status: ('A' for Active; 'I' for Inactive)
REMARK    1  A    between atoms: C_2  and  C_3 
REMARK    2  A    between atoms: C_7  and  C_8 
REMARK       I    between atoms: C_8  and  N_9 
REMARK    3  A    between atoms: N_9  and  C_10 
REMARK    4  A    between atoms: C_10  and  C_11 
REMARK    5  A    between atoms: C_11  and  O_12 
REMARK    6  A    between atoms: C_11  and  C_13 
REMARK    7  A    between atoms: C_13  and  O_14 
REMARK    8  A    between atoms: O_14  and  C_15 
ROOT
HETATM    1  C   UNL     1       5.402  27.966  55.294  1.00  0.00     0.269 C 
HETATM    2  N   UNL     1       6.360  28.752  55.878  1.00  0.00    -0.353 N 
HETATM    3  O   UNL     1       4.221  28.294  55.244  1.00  0.00    -0.266 OA
HETATM    4  H   UNL     1       7.281  28.377  56.059  1.00  0.00     0.162 HD
ENDROOT
BRANCH   1   5
HETATM    5  C   UNL     1       5.892  26.748  54.704  1.00  0.00     0.120 A 
HETATM    6  N   UNL     1       6.328  26.696  53.409  1.00  0.00    -0.272 N 
HETATM    7  N   UNL     1       6.862  25.517  53.054  1.00  0.00    -0.174 NA
HETATM    8  H   UNL     1       6.321  27.455  52.735  1.00  0.00     0.189 HD
HETATM    9  C   UNL     1       6.756  24.753  54.152  1.00  0.00     0.089 A 
HETATM   10  C   UNL     1       6.123  25.479  55.199  1.00  0.00     0.071 A 
BRANCH   9  11
HETATM   11  C   UNL     1       7.295  23.390  54.201  1.00  0.00    -0.005 A 
HETATM   12  C   UNL     1       7.409  22.719  55.431  1.00  0.00     0.017 A 
HETATM   13  C   UNL     1       7.877  21.402  55.485  1.00  0.00     0.043 A 
HETATM   14  C   UNL     1       8.239  20.757  54.309  1.00  0.00     0.116 A 
HETATM   15  C   UNL     1       8.146  21.403  53.082  1.00  0.00     0.043 A 
HETATM   16  F   UNL     1       8.680  19.494  54.357  1.00  0.00    -0.206 F 
HETATM   17  C   UNL     1       7.674  22.718  53.027  1.00  0.00     0.017 A 
ENDBRANCH   9  11
ENDBRANCH   1   5
BRANCH   2  18
HETATM   18  C   UNL     1       6.130  30.124  56.286  1.00  0.00     0.156 C 
BRANCH  18  19
HETATM   19  C   UNL     1       5.796  30.285  57.769  1.00  0.00     0.159 C 
BRANCH  19  20
HETATM   20  O   UNL     1       4.509  29.714  58.051  1.00  0.00    -0.392 OA
HETATM   21  H   UNL     1       4.458  28.925  57.474  1.00  0.00     0.210 HD
ENDBRANCH  19  20
BRANCH  19  22
HETATM   22  C   UNL     1       5.848  31.737  58.258  1.00  0.00     0.201 C 
BRANCH  22  23
HETATM   23  O   UNL     1       7.231  32.014  58.537  1.00  0.00    -0.383 OA
BRANCH  23  24
HETATM   24  C   UNL     1       7.662  31.583  59.831  1.00  0.00     0.121 C 
HETATM   25  C   UNL     1       6.631  32.102  60.841  1.00  0.00     0.032 C 
HETATM   26  C   UNL     1       7.024  31.767  62.275  1.00  0.00     0.002 C 
HETATM   27  C   UNL     1       8.421  32.284  62.604  1.00  0.00     0.000 C 
HETATM   28  C   UNL     1       9.457  31.788  61.601  1.00  0.00     0.002 C 
HETATM   29  C   UNL     1       9.059  32.114  60.163  1.00  0.00     0.032 C 
ENDBRANCH  23  24
ENDBRANCH  22  23
ENDBRANCH  19  22
ENDBRANCH  18  19
ENDBRANCH   2  18
TORSDOF 8
ENDMDL
MODEL 8
REMARK VINA RESULT:      -7.8      5.025      8.017
REMARK  8 active torsions:
REMARK  status: ('A' for Active; 'I' for Inactive)
REMARK    1  A    between atoms: C_2  and  C_3 
REMARK    2  A    between atoms: C_7  and  C_8 
REMARK       I    between atoms: C_8  and  N_9 
REMARK    3  A    between atoms: N_9  and  C_10 
REMARK    4  A    between atoms: C_10  and  C_11 
REMARK    5  A    between atoms: C_11  and  O_12 
REMARK    6  A    between atoms: C_11  and  C_13 
REMARK    7  A    between atoms: C_13  and  O_14 
REMARK    8  A    between atoms: O_14  and  C_15 
ROOT
HETATM    1  C   UNL     1       7.937  28.481  55.177  1.00  0.00     0.269 C 
HETATM    2  N   UNL     1       6.729  27.838  55.241  1.00  0.00    -0.353 N 
HETATM    3  O   UNL     1       8.583  28.570  54.137  1.00  0.00    -0.266 OA
HETATM    4  H   UNL     1       6.313  27.631  56.138  1.00  0.00     0.162 HD
ENDROOT
BRANCH   1   5
HETATM    5  C   UNL     1       8.370  29.084  56.410  1.00  0.00     0.120 A 
HETATM    6  N   UNL     1       9.682  29.385  56.647  1.00  0.00    -0.272 N 
HETATM    7  N   UNL     1       9.898  30.049  57.793  1.00  0.00    -0.174 NA
HETATM    8  H   UNL     1      10.469  29.193  56.035  1.00  0.00     0.189 HD
HETATM    9  C   UNL     1       8.681  30.174  58.346  1.00  0.00     0.089 A 
HETATM   10  C   UNL     1       7.700  29.552  57.525  1.00  0.00     0.071 A 
BRANCH   9  11
HETATM   11  C   UNL     1       8.471  30.913  59.595  1.00  0.00    -0.005 A 
HETATM   12  C   UNL     1       7.337  31.730  59.751  1.00  0.00     0.017 A 
HETATM   13  C   UNL     1       7.102  32.401  60.954  1.00  0.00     0.043 A 
HETATM   14  C   UNL     1       8.004  32.263  62.002  1.00  0.00     0.116 A 
HETATM   15  C   UNL     1       9.138  31.471  61.868  1.00  0.00     0.043 A 
HETATM   16  F   UNL     1       7.777  32.900  63.158  1.00  0.00    -0.206 F 
HETATM   17  C   UNL     1       9.372  30.796  60.666  1.00  0.00     0.017 A 
ENDBRANCH   9  11
ENDBRANCH   1   5
BRANCH   2  18
HETATM   18  C   UNL     1       5.991  27.404  54.071  1.00  0.00     0.156 C 
BRANCH  18  19
HETATM   19  C   UNL     1       5.302  26.049  54.237  1.00  0.00     0.159 C 
BRANCH  19  20
HETATM   20  O   UNL     1       5.067  25.780  55.628  1.00  0.00    -0.392 OA
HETATM   21  H   UNL     1       5.941  25.900  56.052  1.00  0.00     0.210 HD
ENDBRANCH  19  20
BRANCH  19  22
HETATM   22  C   UNL     1       6.065  24.886  53.596  1.00  0.00     0.201 C 
BRANCH  22  23
HETATM   23  O   UNL     1       7.401  24.945  54.128  1.00  0.00    -0.383 OA
BRANCH  23  24
HETATM   24  C   UNL     1       8.017  23.665  54.296  1.00  0.00     0.121 C 
HETATM   25  C   UNL     1       7.833  22.902  52.980  1.00  0.00     0.032 C 
HETATM   26  C   UNL     1       8.386  21.484  53.062  1.00  0.00     0.002 C 
HETATM   27  C   UNL     1       7.775  20.716  54.229  1.00  0.00     0.000 C 
HETATM   28  C   UNL     1       7.938  21.468  55.548  1.00  0.00     0.002 C 
HETATM   29  C   UNL     1       7.393  22.892  55.461  1.00  0.00     0.032 C 
ENDBRANCH  23  24
ENDBRANCH  22  23
ENDBRANCH  19  22
ENDBRANCH  18  19
ENDBRANCH   2  18
TORSDOF 8
ENDMDL
MODEL 9
REMARK VINA RESULT:      -7.8      4.157      5.031
REMARK  8 active torsions:
REMARK  status: ('A' for Active; 'I' for Inactive)
REMARK    1  A    between atoms: C_2  and  C_3 
REMARK    2  A    between atoms: C_7  and  C_8 
REMARK       I    between atoms: C_8  and  N_9 
REMARK    3  A    between atoms: N_9  and  C_10 
REMARK    4  A    between atoms: C_10  and  C_11 
REMARK    5  A    between atoms: C_11  and  O_12 
REMARK    6  A    between atoms: C_11  and  C_13 
REMARK    7  A    between atoms: C_13  and  O_14 
REMARK    8  A    between atoms: O_14  and  C_15 
ROOT
HETATM    1  C   UNL     1       4.306  28.781  56.138  1.00  0.00     0.269 C 
HETATM    2  N   UNL     1       4.198  29.313  57.396  1.00  0.00    -0.353 N 
HETATM    3  O   UNL     1       3.943  29.384  55.133  1.00  0.00    -0.266 OA
HETATM    4  H   UNL     1       4.339  28.727  58.207  1.00  0.00     0.162 HD
ENDROOT
BRANCH   1   5
HETATM    5  C   UNL     1       4.918  27.480  56.080  1.00  0.00     0.120 A 
HETATM    6  N   UNL     1       4.661  26.516  57.014  1.00  0.00    -0.272 N 
HETATM    7  N   UNL     1       5.219  25.325  56.748  1.00  0.00    -0.174 NA
HETATM    8  H   UNL     1       4.073  26.609  57.837  1.00  0.00     0.189 HD
HETATM    9  C   UNL     1       5.889  25.515  55.601  1.00  0.00     0.089 A 
HETATM   10  C   UNL     1       5.753  26.863  55.167  1.00  0.00     0.071 A 
BRANCH   9  11
HETATM   11  C   UNL     1       6.592  24.420  54.924  1.00  0.00    -0.005 A 
HETATM   12  C   UNL     1       6.688  24.401  53.522  1.00  0.00     0.017 A 
HETATM   13  C   UNL     1       7.396  23.388  52.869  1.00  0.00     0.043 A 
HETATM   14  C   UNL     1       8.002  22.386  53.616  1.00  0.00     0.116 A 
HETATM   15  C   UNL     1       7.911  22.376  55.003  1.00  0.00     0.043 A 
HETATM   16  F   UNL     1       8.686  21.418  52.994  1.00  0.00    -0.206 F 
HETATM   17  C   UNL     1       7.207  23.391  55.658  1.00  0.00     0.017 A 
ENDBRANCH   9  11
ENDBRANCH   1   5
BRANCH   2  18
HETATM   18  C   UNL     1       3.866  30.700  57.652  1.00  0.00     0.156 C 
BRANCH  18  19
HETATM   19  C   UNL     1       5.048  31.660  57.511  1.00  0.00     0.159 C 
BRANCH  19  20
HETATM   20  O   UNL     1       5.147  32.127  56.156  1.00  0.00    -0.392 OA
HETATM   21  H   UNL     1       4.453  32.813  56.081  1.00  0.00     0.210 HD
ENDBRANCH  19  20
BRANCH  19  22
HETATM   22  C   UNL     1       6.385  31.063  57.962  1.00  0.00     0.201 C 
BRANCH  22  23
HETATM   23  O   UNL     1       7.040  32.088  58.730  1.00  0.00    -0.383 OA
BRANCH  23  24
HETATM   24  C   UNL     1       7.543  31.637  59.991  1.00  0.00     0.121 C 
HETATM   25  C   UNL     1       6.579  32.151  61.066  1.00  0.00     0.032 C 
HETATM   26  C   UNL     1       7.054  31.795  62.471  1.00  0.00     0.002 C 
HETATM   27  C   UNL     1       8.472  32.297  62.722  1.00  0.00     0.000 C 
HETATM   28  C   UNL     1       9.443  31.806  61.652  1.00  0.00     0.002 C 
HETATM   29  C   UNL     1       8.962  32.153  60.245  1.00  0.00     0.032 C 
ENDBRANCH  23  24
ENDBRANCH  22  23
ENDBRANCH  19  22
ENDBRANCH  18  19
ENDBRANCH   2  18
TORSDOF 8
ENDMDL
MODEL 10
REMARK VINA RESULT:      -7.6      5.729      6.882
REMARK  8 active torsions:
REMARK  status: ('A' for Active; 'I' for Inactive)
REMARK    1  A    between atoms: C_2  and  C_3 
REMARK    2  A    between atoms: C_7  and  C_8 
REMARK       I    between atoms: C_8  and  N_9 
REMARK    3  A    between atoms: N_9  and  C_10 
REMARK    4  A    between atoms: C_10  and  C_11 
REMARK    5  A    between atoms: C_11  and  O_12 
REMARK    6  A    between atoms: C_11  and  C_13 
REMARK    7  A    between atoms: C_13  and  O_14 
REMARK    8  A    between atoms: O_14  and  C_15 
ROOT
HETATM    1  C   UNL     1       7.152  29.403  57.713  1.00  0.00     0.269 C 
HETATM    2  N   UNL     1       8.246  29.306  58.533  1.00  0.00    -0.353 N 
HETATM    3  O   UNL     1       6.226  30.177  57.937  1.00  0.00    -0.266 OA
HETATM    4  H   UNL     1       8.897  28.543  58.418  1.00  0.00     0.162 HD
ENDROOT
BRANCH   1   5
HETATM    5  C   UNL     1       7.193  28.563  56.545  1.00  0.00     0.120 A 
HETATM    6  N   UNL     1       7.456  29.065  55.302  1.00  0.00    -0.272 N 
HETATM    7  N   UNL     1       7.574  28.132  54.343  1.00  0.00    -0.174 NA
HETATM    8  H   UNL     1       7.606  30.039  55.059  1.00  0.00     0.189 HD
HETATM    9  C   UNL     1       7.360  26.968  54.976  1.00  0.00     0.089 A 
HETATM   10  C   UNL     1       7.084  27.199  56.353  1.00  0.00     0.071 A 
BRANCH   9  11
HETATM   11  C   UNL     1       7.469  25.680  54.285  1.00  0.00    -0.005 A 
HETATM   12  C   UNL     1       7.714  25.638  52.901  1.00  0.00     0.017 A 
HETATM   13  C   UNL     1       7.867  24.416  52.240  1.00  0.00     0.043 A 
HETATM   14  C   UNL     1       7.767  23.232  52.960  1.00  0.00     0.116 A 
HETATM   15  C   UNL     1       7.514  23.247  54.326  1.00  0.00     0.043 A 
HETATM   16  F   UNL     1       7.920  22.060  52.331  1.00  0.00    -0.206 F 
HETATM   17  C   UNL     1       7.365  24.469  54.989  1.00  0.00     0.017 A 
ENDBRANCH   9  11
ENDBRANCH   1   5
BRANCH   2  18
HETATM   18  C   UNL     1       8.530  30.244  59.601  1.00  0.00     0.156 C 
BRANCH  18  19
HETATM   19  C   UNL     1       8.295  31.707  59.225  1.00  0.00     0.159 C 
BRANCH  19  20
HETATM   20  O   UNL     1       9.546  32.353  58.943  1.00  0.00    -0.392 OA
HETATM   21  H   UNL     1       9.297  33.193  58.507  1.00  0.00     0.210 HD
ENDBRANCH  19  20
BRANCH  19  22
HETATM   22  C   UNL     1       7.519  32.499  60.283  1.00  0.00     0.201 C 
BRANCH  22  23
HETATM   23  O   UNL     1       7.531  31.691  61.473  1.00  0.00    -0.383 OA
BRANCH  23  24
HETATM   24  C   UNL     1       6.880  32.297  62.593  1.00  0.00     0.121 C 
HETATM   25  C   UNL     1       6.148  33.537  62.069  1.00  0.00     0.032 C 
HETATM   26  C   UNL     1       5.473  34.316  63.192  1.00  0.00     0.002 C 
HETATM   27  C   UNL     1       6.467  34.690  64.286  1.00  0.00     0.000 C 
HETATM   28  C   UNL     1       7.214  33.467  64.811  1.00  0.00     0.002 C 
HETATM   29  C   UNL     1       7.882  32.681  63.684  1.00  0.00     0.032 C 
ENDBRANCH  23  24
ENDBRANCH  22  23
ENDBRANCH  19  22
ENDBRANCH  18  19
ENDBRANCH   2  18
TORSDOF 8
ENDMDL
