MODEL 1
REMARK VINA RESULT:      -8.6      0.000      0.000
REMARK  6 active torsions:
REMARK  status: ('A' for Active; 'I' for Inactive)
REMARK    1  A    between atoms: C_2  and  C_3 
REMARK    2  A    between atoms: C_2  and  C_9 
REMARK    3  A    between atoms: C_9  and  N_10 
REMARK       I    between atoms: N_10  and  C_11 
REMARK       I    between atoms: C_11  and  N_12 
REMARK    4  A    between atoms: N_12  and  C_13 
REMARK    5  A    between atoms: C_14  and  O_15 
REMARK    6  A    between atoms: O_15  and  C_16 
ROOT
HETATM    1  N   UNL     1       7.817  25.073  56.258  1.00  0.00    -0.342 N 
HETATM    2  C   UNL     1       7.645  26.172  57.046  1.00  0.00     0.320 C 
HETATM    3  N   UNL     1       7.537  27.362  56.380  1.00  0.00    -0.306 N 
HETATM    4  O   UNL     1       7.534  26.016  58.259  1.00  0.00    -0.247 OA
HETATM    5  H   UNL     1       7.872  24.223  56.808  1.00  0.00     0.164 HD
HETATM    6  H   UNL     1       7.057  27.276  55.500  1.00  0.00     0.171 HD
ENDROOT
BRANCH   1   7
HETATM    7  C   UNL     1       8.304  24.992  54.889  1.00  0.00     0.138 C 
BRANCH   7   8
HETATM    8  C   UNL     1       7.429  24.152  53.906  1.00  0.00    -0.004 C 
HETATM    9  C   UNL     1       7.697  24.722  52.487  1.00  0.00     0.021 C 
HETATM   10  C   UNL     1       5.925  24.395  54.170  1.00  0.00     0.021 C 
BRANCH   8  11
HETATM   11  C   UNL     1       7.759  22.649  54.005  1.00  0.00    -0.046 A 
HETATM   12  C   UNL     1       7.797  21.960  55.224  1.00  0.00     0.027 A 
HETATM   13  C   UNL     1       8.118  20.607  55.240  1.00  0.00     0.116 A 
HETATM   14  N   UNL     1       8.392  19.885  54.137  1.00  0.00    -0.273 NA
HETATM   15  C   UNL     1       8.340  20.544  52.965  1.00  0.00     0.116 A 
HETATM   16  C   UNL     1       8.033  21.894  52.852  1.00  0.00     0.027 A 
ENDBRANCH   8  11
ENDBRANCH   7   8
ENDBRANCH   1   7
BRANCH   3  17
HETATM   17  C   UNL     1       7.383  28.604  57.038  1.00  0.00     0.070 A 
HETATM   18  C   UNL     1       8.458  29.314  57.598  1.00  0.00     0.101 A 
HETATM   19  C   UNL     1       8.226  30.536  58.238  1.00  0.00     0.039 A 
HETATM   20  C   UNL     1       6.928  31.038  58.345  1.00  0.00     0.003 A 
HETATM   21  C   UNL     1       5.863  30.344  57.775  1.00  0.00     0.002 A 
HETATM   22  C   UNL     1       6.092  29.141  57.107  1.00  0.00     0.032 A 
BRANCH  18  23
HETATM   23  O   UNL     1       9.741  28.897  57.346  1.00  0.00    -0.288 OA
BRANCH  23  24
HETATM   24  C   UNL     1      10.524  29.918  56.742  1.00  0.00     0.505 C 
HETATM   25  F   UNL     1      11.830  29.601  56.949  1.00  0.00    -0.184 F 
HETATM   26  F   UNL     1      10.340  29.866  55.395  1.00  0.00    -0.184 F 
ENDBRANCH  23  24
ENDBRANCH  18  23
ENDBRANCH   3  17
TORSDOF 6
ENDMDL
MODEL 2
REMARK VINA RESULT:      -8.6      3.403      7.999
REMARK  6 active torsions:
REMARK  status: ('A' for Active; 'I' for Inactive)
REMARK    1  A    between atoms: C_2  and  C_3 
REMARK    2  A    between atoms: C_2  and  C_9 
REMARK    3  A    between atoms: C_9  and  N_10 
REMARK       I    between atoms: N_10  and  C_11 
REMARK       I    between atoms: C_11  and  N_12 
REMARK    4  A    between atoms: N_12  and  C_13 
REMARK    5  A    between atoms: C_14  and  O_15 
REMARK    6  A    between atoms: O_15  and  C_16 
ROOT
HETATM    1  N   UNL     1       6.817  26.451  57.552  1.00  0.00    -0.342 N 
HETATM    2  C   UNL     1       6.679  25.490  56.596  1.00  0.00     0.320 C 
HETATM    3  N   UNL     1       7.828  25.146  55.938  1.00  0.00    -0.306 N 
HETATM    4  O   UNL     1       5.580  24.965  56.442  1.00  0.00    -0.247 OA
HETATM    5  H   UNL     1       5.936  26.648  58.015  1.00  0.00     0.164 HD
HETATM    6  H   UNL     1       8.641  25.175  56.529  1.00  0.00     0.171 HD
ENDROOT
BRANCH   1   7
HETATM    7  C   UNL     1       7.869  27.445  57.711  1.00  0.00     0.138 C 
BRANCH   7   8
HETATM    8  C   UNL     1       7.588  28.839  57.067  1.00  0.00    -0.004 C 
HETATM    9  C   UNL     1       6.094  29.155  57.345  1.00  0.00     0.021 C 
HETATM   10  C   UNL     1       7.715  28.766  55.528  1.00  0.00     0.021 C 
BRANCH   8  11
HETATM   11  C   UNL     1       8.530  29.919  57.637  1.00  0.00    -0.046 A 
HETATM   12  C   UNL     1       8.131  30.826  58.628  1.00  0.00     0.027 A 
HETATM   13  C   UNL     1       9.029  31.785  59.083  1.00  0.00     0.116 A 
HETATM   14  N   UNL     1      10.295  31.905  58.639  1.00  0.00    -0.273 NA
HETATM   15  C   UNL     1      10.681  31.023  57.699  1.00  0.00     0.116 A 
HETATM   16  C   UNL     1       9.854  30.034  57.181  1.00  0.00     0.027 A 
ENDBRANCH   8  11
ENDBRANCH   7   8
ENDBRANCH   1   7
BRANCH   3  17
HETATM   17  C   UNL     1       7.865  24.189  54.898  1.00  0.00     0.070 A 
HETATM   18  C   UNL     1       8.048  22.816  55.126  1.00  0.00     0.101 A 
HETATM   19  C   UNL     1       8.077  21.929  54.044  1.00  0.00     0.039 A 
HETATM   20  C   UNL     1       7.953  22.408  52.739  1.00  0.00     0.003 A 
HETATM   21  C   UNL     1       7.754  23.768  52.511  1.00  0.00     0.002 A 
HETATM   22  C   UNL     1       7.690  24.653  53.588  1.00  0.00     0.032 A 
BRANCH  18  23
HETATM   23  O   UNL     1       8.005  22.337  56.411  1.00  0.00    -0.288 OA
BRANCH  23  24
HETATM   24  C   UNL     1       8.243  20.937  56.468  1.00  0.00     0.505 C 
HETATM   25  F   UNL     1       8.683  20.653  57.723  1.00  0.00    -0.184 F 
HETATM   26  F   UNL     1       7.054  20.289  56.338  1.00  0.00    -0.184 F 
ENDBRANCH  23  24
ENDBRANCH  18  23
ENDBRANCH   3  17
TORSDOF 6
ENDMDL
MODEL 3
REMARK VINA RESULT:      -8.5      3.011      7.699
REMARK  6 active torsions:
REMARK  status: ('A' for Active; 'I' for Inactive)
REMARK    1  A    between atoms: C_2  and  C_3 
REMARK    2  A    between atoms: C_2  and  C_9 
REMARK    3  A    between atoms: C_9  and  N_10 
REMARK       I    between atoms: N_10  and  C_11 
REMARK       I    between atoms: C_11  and  N_12 
REMARK    4  A    between atoms: N_12  and  C_13 
REMARK    5  A    between atoms: C_14  and  O_15 
REMARK    6  A    between atoms: O_15  and  C_16 
ROOT
HETATM    1  N   UNL     1       7.006  26.047  57.338  1.00  0.00    -0.342 N 
HETATM    2  C   UNL     1       6.821  24.942  56.561  1.00  0.00     0.320 C 
HETATM    3  N   UNL     1       7.957  24.409  56.017  1.00  0.00    -0.306 N 
HETATM    4  O   UNL     1       5.690  24.475  56.460  1.00  0.00    -0.247 OA
HETATM    5  H   UNL     1       6.131  26.383  57.725  1.00  0.00     0.164 HD
HETATM    6  H   UNL     1       8.755  24.486  56.624  1.00  0.00     0.171 HD
ENDROOT
BRANCH   1   7
HETATM    7  C   UNL     1       8.125  26.978  57.359  1.00  0.00     0.138 C 
BRANCH   7   8
HETATM    8  C   UNL     1       7.850  28.383  56.737  1.00  0.00    -0.004 C 
HETATM    9  C   UNL     1       6.384  28.742  57.100  1.00  0.00     0.021 C 
HETATM   10  C   UNL     1       7.887  28.315  55.193  1.00  0.00     0.021 C 
BRANCH   8  11
HETATM   11  C   UNL     1       8.854  29.433  57.256  1.00  0.00    -0.046 A 
HETATM   12  C   UNL     1       8.510  30.406  58.203  1.00  0.00     0.027 A 
HETATM   13  C   UNL     1       9.464  31.331  58.615  1.00  0.00     0.116 A 
HETATM   14  N   UNL     1      10.733  31.356  58.166  1.00  0.00    -0.273 NA
HETATM   15  C   UNL     1      11.066  30.410  57.269  1.00  0.00     0.116 A 
HETATM   16  C   UNL     1      10.182  29.449  56.796  1.00  0.00     0.027 A 
ENDBRANCH   8  11
ENDBRANCH   7   8
ENDBRANCH   1   7
BRANCH   3  17
HETATM   17  C   UNL     1       7.948  23.281  55.164  1.00  0.00     0.070 A 
HETATM   18  C   UNL     1       7.931  23.380  53.763  1.00  0.00     0.101 A 
HETATM   19  C   UNL     1       7.919  22.217  52.984  1.00  0.00     0.039 A 
HETATM   20  C   UNL     1       7.898  20.962  53.595  1.00  0.00     0.003 A 
HETATM   21  C   UNL     1       7.932  20.862  54.984  1.00  0.00     0.002 A 
HETATM   22  C   UNL     1       7.978  22.018  55.766  1.00  0.00     0.032 A 
BRANCH  18  23
HETATM   23  O   UNL     1       8.117  24.605  53.174  1.00  0.00    -0.288 OA
BRANCH  23  24
HETATM   24  C   UNL     1       6.892  25.178  52.735  1.00  0.00     0.505 C 
HETATM   25  F   UNL     1       6.904  25.164  51.375  1.00  0.00    -0.184 F 
HETATM   26  F   UNL     1       5.872  24.357  53.104  1.00  0.00    -0.184 F 
ENDBRANCH  23  24
ENDBRANCH  18  23
ENDBRANCH   3  17
TORSDOF 6
ENDMDL
MODEL 4
REMARK VINA RESULT:      -8.3      5.849      7.613
REMARK  6 active torsions:
REMARK  status: ('A' for Active; 'I' for Inactive)
REMARK    1  A    between atoms: C_2  and  C_3 
REMARK    2  A    between atoms: C_2  and  C_9 
REMARK    3  A    between atoms: C_9  and  N_10 
REMARK       I    between atoms: N_10  and  C_11 
REMARK       I    between atoms: C_11  and  N_12 
REMARK    4  A    between atoms: N_12  and  C_13 
REMARK    5  A    between atoms: C_14  and  O_15 
REMARK    6  A    between atoms: O_15  and  C_16 
ROOT
HETATM    1  N   UNL     1       4.652  25.709  52.964  1.00  0.00    -0.342 N 
HETATM    2  C   UNL     1       4.497  26.739  52.086  1.00  0.00     0.320 C 
HETATM    3  N   UNL     1       4.751  26.440  50.776  1.00  0.00    -0.306 N 
HETATM    4  O   UNL     1       4.086  27.817  52.508  1.00  0.00    -0.247 OA
HETATM    5  H   UNL     1       4.433  25.989  53.914  1.00  0.00     0.164 HD
HETATM    6  H   UNL     1       4.477  25.504  50.528  1.00  0.00     0.171 HD
ENDROOT
BRANCH   1   7
HETATM    7  C   UNL     1       5.418  24.480  52.812  1.00  0.00     0.138 C 
BRANCH   7   8
HETATM    8  C   UNL     1       6.892  24.531  53.322  1.00  0.00    -0.004 C 
HETATM    9  C   UNL     1       6.931  25.613  54.435  1.00  0.00     0.021 C 
HETATM   10  C   UNL     1       7.837  25.046  52.213  1.00  0.00     0.021 C 
BRANCH   8  11
HETATM   11  C   UNL     1       7.358  23.152  53.831  1.00  0.00    -0.046 A 
HETATM   12  C   UNL     1       7.778  22.129  52.970  1.00  0.00     0.027 A 
HETATM   13  C   UNL     1       8.170  20.904  53.499  1.00  0.00     0.116 A 
HETATM   14  N   UNL     1       8.188  20.621  54.815  1.00  0.00    -0.273 NA
HETATM   15  C   UNL     1       7.799  21.610  55.641  1.00  0.00     0.116 A 
HETATM   16  C   UNL     1       7.387  22.863  55.206  1.00  0.00     0.027 A 
ENDBRANCH   8  11
ENDBRANCH   7   8
ENDBRANCH   1   7
BRANCH   3  17
HETATM   17  C   UNL     1       4.667  27.393  49.735  1.00  0.00     0.070 A 
HETATM   18  C   UNL     1       3.834  27.235  48.616  1.00  0.00     0.101 A 
HETATM   19  C   UNL     1       3.808  28.221  47.624  1.00  0.00     0.039 A 
HETATM   20  C   UNL     1       4.627  29.347  47.730  1.00  0.00     0.003 A 
HETATM   21  C   UNL     1       5.442  29.513  48.848  1.00  0.00     0.002 A 
HETATM   22  C   UNL     1       5.447  28.549  49.857  1.00  0.00     0.032 A 
BRANCH  18  23
HETATM   23  O   UNL     1       2.917  26.214  48.600  1.00  0.00    -0.288 OA
BRANCH  23  24
HETATM   24  C   UNL     1       3.281  25.184  47.691  1.00  0.00     0.505 C 
HETATM   25  F   UNL     1       2.866  24.006  48.228  1.00  0.00    -0.184 F 
HETATM   26  F   UNL     1       2.565  25.342  46.546  1.00  0.00    -0.184 F 
ENDBRANCH  23  24
ENDBRANCH  18  23
ENDBRANCH   3  17
TORSDOF 6
ENDMDL
MODEL 5
REMARK VINA RESULT:      -7.8      6.145     10.733
REMARK  6 active torsions:
REMARK  status: ('A' for Active; 'I' for Inactive)
REMARK    1  A    between atoms: C_2  and  C_3 
REMARK    2  A    between atoms: C_2  and  C_9 
REMARK    3  A    between atoms: C_9  and  N_10 
REMARK       I    between atoms: N_10  and  C_11 
REMARK       I    between atoms: C_11  and  N_12 
REMARK    4  A    between atoms: N_12  and  C_13 
REMARK    5  A    between atoms: C_14  and  O_15 
REMARK    6  A    between atoms: O_15  and  C_16 
ROOT
HETATM    1  N   UNL     1       4.992  32.673  60.158  1.00  0.00    -0.342 N 
HETATM    2  C   UNL     1       5.963  32.294  59.280  1.00  0.00     0.320 C 
HETATM    3  N   UNL     1       6.796  31.302  59.716  1.00  0.00    -0.306 N 
HETATM    4  O   UNL     1       5.981  32.807  58.164  1.00  0.00    -0.247 OA
HETATM    5  H   UNL     1       4.398  33.398  59.770  1.00  0.00     0.164 HD
HETATM    6  H   UNL     1       6.329  30.623  60.294  1.00  0.00     0.171 HD
ENDROOT
BRANCH   1   7
HETATM    7  C   UNL     1       4.940  32.497  61.602  1.00  0.00     0.138 C 
BRANCH   7   8
HETATM    8  C   UNL     1       4.505  33.751  62.424  1.00  0.00    -0.004 C 
HETATM    9  C   UNL     1       2.963  33.658  62.577  1.00  0.00     0.021 C 
HETATM   10  C   UNL     1       4.763  35.047  61.621  1.00  0.00     0.021 C 
BRANCH   8  11
HETATM   11  C   UNL     1       5.226  33.807  63.786  1.00  0.00    -0.046 A 
HETATM   12  C   UNL     1       6.620  33.732  63.909  1.00  0.00     0.027 A 
HETATM   13  C   UNL     1       7.202  33.773  65.171  1.00  0.00     0.116 A 
HETATM   14  N   UNL     1       6.507  33.894  66.318  1.00  0.00    -0.273 NA
HETATM   15  C   UNL     1       5.169  33.981  66.198  1.00  0.00     0.116 A 
HETATM   16  C   UNL     1       4.500  33.945  64.981  1.00  0.00     0.027 A 
ENDBRANCH   8  11
ENDBRANCH   7   8
ENDBRANCH   1   7
BRANCH   3  17
HETATM   17  C   UNL     1       7.875  30.805  58.948  1.00  0.00     0.070 A 
HETATM   18  C   UNL     1       9.152  31.389  58.953  1.00  0.00     0.101 A 
HETATM   19  C   UNL     1      10.169  30.843  58.163  1.00  0.00     0.039 A 
HETATM   20  C   UNL     1       9.911  29.738  57.350  1.00  0.00     0.003 A 
HETATM   21  C   UNL     1       8.649  29.147  57.356  1.00  0.00     0.002 A 
HETATM   22  C   UNL     1       7.640  29.667  58.168  1.00  0.00     0.032 A 
BRANCH  18  23
HETATM   23  O   UNL     1       9.440  32.366  59.872  1.00  0.00    -0.288 OA
BRANCH  23  24
HETATM   24  C   UNL     1       9.639  31.833  61.175  1.00  0.00     0.505 C 
HETATM   25  F   UNL     1      10.858  32.256  61.603  1.00  0.00    -0.184 F 
HETATM   26  F   UNL     1       8.734  32.398  62.018  1.00  0.00    -0.184 F 
ENDBRANCH  23  24
ENDBRANCH  18  23
ENDBRANCH   3  17
TORSDOF 6
ENDMDL
MODEL 6
REMARK VINA RESULT:      -7.7     11.725     15.692
REMARK  6 active torsions:
REMARK  status: ('A' for Active; 'I' for Inactive)
REMARK    1  A    between atoms: C_2  and  C_3 
REMARK    2  A    between atoms: C_2  and  C_9 
REMARK    3  A    between atoms: C_9  and  N_10 
REMARK       I    between atoms: N_10  and  C_11 
REMARK       I    between atoms: C_11  and  N_12 
REMARK    4  A    between atoms: N_12  and  C_13 
REMARK    5  A    between atoms: C_14  and  O_15 
REMARK    6  A    between atoms: O_15  and  C_16 
ROOT
HETATM    1  N   UNL     1       5.161  34.951  68.622  1.00  0.00    -0.342 N 
HETATM    2  C   UNL     1       5.358  34.958  67.273  1.00  0.00     0.320 C 
HETATM    3  N   UNL     1       5.657  33.746  66.716  1.00  0.00    -0.306 N 
HETATM    4  O   UNL     1       5.192  36.009  66.659  1.00  0.00    -0.247 OA
HETATM    5  H   UNL     1       4.927  35.874  68.971  1.00  0.00     0.164 HD
HETATM    6  H   UNL     1       5.182  32.981  67.165  1.00  0.00     0.171 HD
ENDROOT
BRANCH   1   7
HETATM    7  C   UNL     1       5.604  33.978  69.610  1.00  0.00     0.138 C 
BRANCH   7   8
HETATM    8  C   UNL     1       6.889  34.359  70.410  1.00  0.00    -0.004 C 
HETATM    9  C   UNL     1       6.548  35.658  71.189  1.00  0.00     0.021 C 
HETATM   10  C   UNL     1       8.038  34.744  69.449  1.00  0.00     0.021 C 
BRANCH   8  11
HETATM   11  C   UNL     1       7.327  33.214  71.345  1.00  0.00    -0.046 A 
HETATM   12  C   UNL     1       7.023  31.870  71.091  1.00  0.00     0.027 A 
HETATM   13  C   UNL     1       7.437  30.890  71.987  1.00  0.00     0.116 A 
HETATM   14  N   UNL     1       8.139  31.142  73.108  1.00  0.00    -0.273 NA
HETATM   15  C   UNL     1       8.444  32.432  73.343  1.00  0.00     0.116 A 
HETATM   16  C   UNL     1       8.071  33.477  72.508  1.00  0.00     0.027 A 
ENDBRANCH   8  11
ENDBRANCH   7   8
ENDBRANCH   1   7
BRANCH   3  17
HETATM   17  C   UNL     1       5.919  33.573  65.337  1.00  0.00     0.070 A 
HETATM   18  C   UNL     1       4.907  33.522  64.364  1.00  0.00     0.101 A 
HETATM   19  C   UNL     1       5.245  33.344  63.018  1.00  0.00     0.039 A 
HETATM   20  C   UNL     1       6.581  33.191  62.643  1.00  0.00     0.003 A 
HETATM   21  C   UNL     1       7.587  33.259  63.604  1.00  0.00     0.002 A 
HETATM   22  C   UNL     1       7.259  33.469  64.945  1.00  0.00     0.032 A 
BRANCH  18  23
HETATM   23  O   UNL     1       3.619  33.835  64.719  1.00  0.00    -0.288 OA
BRANCH  23  24
HETATM   24  C   UNL     1       2.820  34.165  63.590  1.00  0.00     0.505 C 
HETATM   25  F   UNL     1       1.542  33.805  63.881  1.00  0.00    -0.184 F 
HETATM   26  F   UNL     1       2.801  35.518  63.453  1.00  0.00    -0.184 F 
ENDBRANCH  23  24
ENDBRANCH  18  23
ENDBRANCH   3  17
TORSDOF 6
ENDMDL
MODEL 7
REMARK VINA RESULT:      -7.6      3.884      5.814
REMARK  6 active torsions:
REMARK  status: ('A' for Active; 'I' for Inactive)
REMARK    1  A    between atoms: C_2  and  C_3 
REMARK    2  A    between atoms: C_2  and  C_9 
REMARK    3  A    between atoms: C_9  and  N_10 
REMARK       I    between atoms: N_10  and  C_11 
REMARK       I    between atoms: C_11  and  N_12 
REMARK    4  A    between atoms: N_12  and  C_13 
REMARK    5  A    between atoms: C_14  and  O_15 
REMARK    6  A    between atoms: O_15  and  C_16 
ROOT
HETATM    1  N   UNL     1       8.652  30.269  58.701  1.00  0.00    -0.342 N 
HETATM    2  C   UNL     1       8.058  31.383  59.214  1.00  0.00     0.320 C 
HETATM    3  N   UNL     1       6.816  31.193  59.752  1.00  0.00    -0.306 N 
HETATM    4  O   UNL     1       8.688  32.438  59.218  1.00  0.00    -0.247 OA
HETATM    5  H   UNL     1       9.576  30.472  58.334  1.00  0.00     0.164 HD
HETATM    6  H   UNL     1       6.718  30.300  60.206  1.00  0.00     0.171 HD
ENDROOT
BRANCH   1   7
HETATM    7  C   UNL     1       8.043  29.020  58.268  1.00  0.00     0.138 C 
BRANCH   7   8
HETATM    8  C   UNL     1       7.971  28.799  56.724  1.00  0.00    -0.004 C 
HETATM    9  C   UNL     1       9.269  29.413  56.135  1.00  0.00     0.021 C 
HETATM   10  C   UNL     1       6.812  29.617  56.109  1.00  0.00     0.021 C 
BRANCH   8  11
HETATM   11  C   UNL     1       7.821  27.304  56.378  1.00  0.00    -0.046 A 
HETATM   12  C   UNL     1       8.109  26.282  57.293  1.00  0.00     0.027 A 
HETATM   13  C   UNL     1       7.966  24.954  56.906  1.00  0.00     0.116 A 
HETATM   14  N   UNL     1       7.548  24.564  55.687  1.00  0.00    -0.273 NA
HETATM   15  C   UNL     1       7.257  25.546  54.815  1.00  0.00     0.116 A 
HETATM   16  C   UNL     1       7.373  26.899  55.109  1.00  0.00     0.027 A 
ENDBRANCH   8  11
ENDBRANCH   7   8
ENDBRANCH   1   7
BRANCH   3  17
HETATM   17  C   UNL     1       6.043  32.242  60.302  1.00  0.00     0.070 A 
HETATM   18  C   UNL     1       5.991  32.515  61.679  1.00  0.00     0.101 A 
HETATM   19  C   UNL     1       5.200  33.569  62.149  1.00  0.00     0.039 A 
HETATM   20  C   UNL     1       4.443  34.331  61.258  1.00  0.00     0.003 A 
HETATM   21  C   UNL     1       4.506  34.072  59.890  1.00  0.00     0.002 A 
HETATM   22  C   UNL     1       5.319  33.044  59.412  1.00  0.00     0.032 A 
BRANCH  18  23
HETATM   23  O   UNL     1       6.860  31.872  62.525  1.00  0.00    -0.288 OA
BRANCH  23  24
HETATM   24  C   UNL     1       7.927  32.716  62.937  1.00  0.00     0.505 C 
HETATM   25  F   UNL     1       7.998  32.644  64.293  1.00  0.00    -0.184 F 
HETATM   26  F   UNL     1       9.095  32.195  62.477  1.00  0.00    -0.184 F 
ENDBRANCH  23  24
ENDBRANCH  18  23
ENDBRANCH   3  17
TORSDOF 6
ENDMDL
MODEL 8
REMARK VINA RESULT:      -7.6      3.999      5.997
REMARK  6 active torsions:
REMARK  status: ('A' for Active; 'I' for Inactive)
REMARK    1  A    between atoms: C_2  and  C_3 
REMARK    2  A    between atoms: C_2  and  C_9 
REMARK    3  A    between atoms: C_9  and  N_10 
REMARK       I    between atoms: N_10  and  C_11 
REMARK       I    between atoms: C_11  and  N_12 
REMARK    4  A    between atoms: N_12  and  C_13 
REMARK    5  A    between atoms: C_14  and  O_15 
REMARK    6  A    between atoms: O_15  and  C_16 
ROOT
HETATM    1  N   UNL     1       8.564  30.309  58.353  1.00  0.00    -0.342 N 
HETATM    2  C   UNL     1       8.366  31.268  59.301  1.00  0.00     0.320 C 
HETATM    3  N   UNL     1       7.683  30.862  60.415  1.00  0.00    -0.306 N 
HETATM    4  O   UNL     1       8.857  32.380  59.127  1.00  0.00    -0.247 OA
HETATM    5  H   UNL     1       9.090  30.667  57.563  1.00  0.00     0.164 HD
HETATM    6  H   UNL     1       7.889  29.912  60.675  1.00  0.00     0.171 HD
ENDROOT
BRANCH   1   7
HETATM    7  C   UNL     1       7.840  29.064  58.140  1.00  0.00     0.138 C 
BRANCH   7   8
HETATM    8  C   UNL     1       7.632  28.647  56.650  1.00  0.00    -0.004 C 
HETATM    9  C   UNL     1       8.880  29.150  55.878  1.00  0.00     0.021 C 
HETATM   10  C   UNL     1       6.432  29.403  56.033  1.00  0.00     0.021 C 
BRANCH   8  11
HETATM   11  C   UNL     1       7.436  27.123  56.517  1.00  0.00    -0.046 A 
HETATM   12  C   UNL     1       6.477  26.554  55.669  1.00  0.00     0.027 A 
HETATM   13  C   UNL     1       6.345  25.170  55.611  1.00  0.00     0.116 A 
HETATM   14  N   UNL     1       7.101  24.311  56.320  1.00  0.00    -0.273 NA
HETATM   15  C   UNL     1       8.033  24.858  57.122  1.00  0.00     0.116 A 
HETATM   16  C   UNL     1       8.234  26.227  57.249  1.00  0.00     0.027 A 
ENDBRANCH   8  11
ENDBRANCH   7   8
ENDBRANCH   1   7
BRANCH   3  17
HETATM   17  C   UNL     1       7.364  31.730  61.484  1.00  0.00     0.070 A 
HETATM   18  C   UNL     1       6.187  32.496  61.525  1.00  0.00     0.101 A 
HETATM   19  C   UNL     1       5.942  33.337  62.616  1.00  0.00     0.039 A 
HETATM   20  C   UNL     1       6.875  33.437  63.650  1.00  0.00     0.003 A 
HETATM   21  C   UNL     1       8.035  32.665  63.619  1.00  0.00     0.002 A 
HETATM   22  C   UNL     1       8.269  31.800  62.550  1.00  0.00     0.032 A 
BRANCH  18  23
HETATM   23  O   UNL     1       5.206  32.270  60.592  1.00  0.00    -0.288 OA
BRANCH  23  24
HETATM   24  C   UNL     1       5.211  33.251  59.564  1.00  0.00     0.505 C 
HETATM   25  F   UNL     1       4.841  32.631  58.412  1.00  0.00    -0.184 F 
HETATM   26  F   UNL     1       4.232  34.159  59.826  1.00  0.00    -0.184 F 
ENDBRANCH  23  24
ENDBRANCH  18  23
ENDBRANCH   3  17
TORSDOF 6
ENDMDL
MODEL 9
REMARK VINA RESULT:      -7.5      5.619     10.561
REMARK  6 active torsions:
REMARK  status: ('A' for Active; 'I' for Inactive)
REMARK    1  A    between atoms: C_2  and  C_3 
REMARK    2  A    between atoms: C_2  and  C_9 
REMARK    3  A    between atoms: C_9  and  N_10 
REMARK       I    between atoms: N_10  and  C_11 
REMARK       I    between atoms: C_11  and  N_12 
REMARK    4  A    between atoms: N_12  and  C_13 
REMARK    5  A    between atoms: C_14  and  O_15 
REMARK    6  A    between atoms: O_15  and  C_16 
ROOT
HETATM    1  N   UNL     1       5.552  32.254  60.133  1.00  0.00    -0.342 N 
HETATM    2  C   UNL     1       6.424  31.853  59.166  1.00  0.00     0.320 C 
HETATM    3  N   UNL     1       7.450  31.055  59.593  1.00  0.00    -0.306 N 
HETATM    4  O   UNL     1       6.199  32.169  58.001  1.00  0.00    -0.247 OA
HETATM    5  H   UNL     1       4.807  32.827  59.751  1.00  0.00     0.164 HD
HETATM    6  H   UNL     1       7.179  30.432  60.335  1.00  0.00     0.171 HD
ENDROOT
BRANCH   1   7
HETATM    7  C   UNL     1       5.744  32.318  61.575  1.00  0.00     0.138 C 
BRANCH   7   8
HETATM    8  C   UNL     1       4.940  33.431  62.318  1.00  0.00    -0.004 C 
HETATM    9  C   UNL     1       3.450  33.003  62.261  1.00  0.00     0.021 C 
HETATM   10  C   UNL     1       5.016  34.769  61.546  1.00  0.00     0.021 C 
BRANCH   8  11
HETATM   11  C   UNL     1       5.442  33.614  63.765  1.00  0.00    -0.046 A 
HETATM   12  C   UNL     1       6.801  33.584  64.105  1.00  0.00     0.027 A 
HETATM   13  C   UNL     1       7.180  33.741  65.434  1.00  0.00     0.116 A 
HETATM   14  N   UNL     1       6.316  33.935  66.447  1.00  0.00    -0.273 NA
HETATM   15  C   UNL     1       5.012  33.979  66.117  1.00  0.00     0.116 A 
HETATM   16  C   UNL     1       4.538  33.829  64.819  1.00  0.00     0.027 A 
ENDBRANCH   8  11
ENDBRANCH   7   8
ENDBRANCH   1   7
BRANCH   3  17
HETATM   17  C   UNL     1       8.461  30.570  58.732  1.00  0.00     0.070 A 
HETATM   18  C   UNL     1       8.369  29.343  58.055  1.00  0.00     0.101 A 
HETATM   19  C   UNL     1       9.413  28.928  57.222  1.00  0.00     0.039 A 
HETATM   20  C   UNL     1      10.557  29.716  57.083  1.00  0.00     0.003 A 
HETATM   21  C   UNL     1      10.643  30.942  57.740  1.00  0.00     0.002 A 
HETATM   22  C   UNL     1       9.590  31.377  58.546  1.00  0.00     0.032 A 
BRANCH  18  23
HETATM   23  O   UNL     1       7.180  28.657  58.068  1.00  0.00    -0.288 OA
BRANCH  23  24
HETATM   24  C   UNL     1       6.444  28.841  56.866  1.00  0.00     0.505 C 
HETATM   25  F   UNL     1       6.423  27.647  56.218  1.00  0.00    -0.184 F 
HETATM   26  F   UNL     1       5.150  29.112  57.186  1.00  0.00    -0.184 F 
ENDBRANCH  23  24
ENDBRANCH  18  23
ENDBRANCH   3  17
TORSDOF 6
ENDMDL
MODEL 10
REMARK VINA RESULT:      -7.5     11.962     16.514
REMARK  6 active torsions:
REMARK  status: ('A' for Active; 'I' for Inactive)
REMARK    1  A    between atoms: C_2  and  C_3 
REMARK    2  A    between atoms: C_2  and  C_9 
REMARK    3  A    between atoms: C_9  and  N_10 
REMARK       I    between atoms: N_10  and  C_11 
REMARK       I    between atoms: C_11  and  N_12 
REMARK    4  A    between atoms: N_12  and  C_13 
REMARK    5  A    between atoms: C_14  and  O_15 
REMARK    6  A    between atoms: O_15  and  C_16 
ROOT
HETATM    1  N   UNL     1       5.533  34.474  68.299  1.00  0.00    -0.342 N 
HETATM    2  C   UNL     1       5.458  34.155  66.976  1.00  0.00     0.320 C 
HETATM    3  N   UNL     1       6.590  34.398  66.248  1.00  0.00    -0.306 N 
HETATM    4  O   UNL     1       4.435  33.624  66.555  1.00  0.00    -0.247 OA
HETATM    5  H   UNL     1       4.670  34.254  68.787  1.00  0.00     0.164 HD
HETATM    6  H   UNL     1       7.434  34.239  66.772  1.00  0.00     0.171 HD
ENDROOT
BRANCH   1   7
HETATM    7  C   UNL     1       6.444  35.387  68.975  1.00  0.00     0.138 C 
BRANCH   7   8
HETATM    8  C   UNL     1       7.245  34.784  70.171  1.00  0.00    -0.004 C 
HETATM    9  C   UNL     1       8.722  34.692  69.704  1.00  0.00     0.021 C 
HETATM   10  C   UNL     1       6.807  33.326  70.444  1.00  0.00     0.021 C 
BRANCH   8  11
HETATM   11  C   UNL     1       7.086  35.643  71.442  1.00  0.00    -0.046 A 
HETATM   12  C   UNL     1       7.794  36.835  71.644  1.00  0.00     0.027 A 
HETATM   13  C   UNL     1       7.612  37.551  72.823  1.00  0.00     0.116 A 
HETATM   14  N   UNL     1       6.773  37.180  73.808  1.00  0.00    -0.273 NA
HETATM   15  C   UNL     1       6.081  36.044  73.606  1.00  0.00     0.116 A 
HETATM   16  C   UNL     1       6.200  35.261  72.464  1.00  0.00     0.027 A 
ENDBRANCH   8  11
ENDBRANCH   7   8
ENDBRANCH   1   7
BRANCH   3  17
HETATM   17  C   UNL     1       6.682  34.154  64.859  1.00  0.00     0.070 A 
HETATM   18  C   UNL     1       6.041  34.951  63.896  1.00  0.00     0.101 A 
HETATM   19  C   UNL     1       6.175  34.644  62.538  1.00  0.00     0.039 A 
HETATM   20  C   UNL     1       6.921  33.533  62.139  1.00  0.00     0.003 A 
HETATM   21  C   UNL     1       7.571  32.751  63.091  1.00  0.00     0.002 A 
HETATM   22  C   UNL     1       7.468  33.072  64.445  1.00  0.00     0.032 A 
BRANCH  18  23
HETATM   23  O   UNL     1       5.451  36.128  64.284  1.00  0.00    -0.288 OA
BRANCH  23  24
HETATM   24  C   UNL     1       4.041  36.102  64.107  1.00  0.00     0.505 C 
HETATM   25  F   UNL     1       3.477  36.247  65.336  1.00  0.00    -0.184 F 
HETATM   26  F   UNL     1       3.672  37.202  63.398  1.00  0.00    -0.184 F 
ENDBRANCH  23  24
ENDBRANCH  18  23
ENDBRANCH   3  17
TORSDOF 6
ENDMDL
