MODEL 1
REMARK VINA RESULT:      -9.3      0.000      0.000
REMARK  7 active torsions:
REMARK  status: ('A' for Active; 'I' for Inactive)
REMARK    1  A    between atoms: C_2  and  N_3 
REMARK       I    between atoms: N_3  and  C_4 
REMARK    2  A    between atoms: C_4  and  C_5 
REMARK    3  A    between atoms: C_9  and  N_10 
REMARK       I    between atoms: N_10  and  C_11 
REMARK    4  A    between atoms: C_11  and  C_12 
REMARK    5  A    between atoms: C_12  and  S_13 
REMARK    6  A    between atoms: S_13  and  C_14 
REMARK    7  A    between atoms: C_14  and  C_15 
ROOT
HETATM    1  N   UNL     1       8.781  30.125  58.988  1.00  0.00    -0.326 N 
HETATM    2  C   UNL     1       9.762  30.441  58.058  1.00  0.00     0.231 C 
HETATM    3  O   UNL     1      10.432  31.469  58.017  1.00  0.00    -0.272 OA
HETATM    4  H   UNL     1       8.349  29.218  58.869  1.00  0.00     0.169 HD
ENDROOT
BRANCH   2   5
HETATM    5  C   UNL     1       9.966  29.338  57.022  1.00  0.00     0.177 C 
BRANCH   5   6
HETATM    6  S   UNL     1       8.455  29.217  55.999  1.00  0.00    -0.147 SA
BRANCH   6   7
HETATM    7  C   UNL     1       7.615  27.785  56.781  1.00  0.00     0.113 C 
HETATM    8  C   UNL     1       6.207  28.159  57.239  1.00  0.00     0.029 C 
BRANCH   7   9
HETATM    9  C   UNL     1       7.631  26.554  55.923  1.00  0.00     0.118 A 
HETATM   10  N   UNL     1       7.894  25.322  56.315  1.00  0.00    -0.232 NA
HETATM   11  C   UNL     1       7.883  24.554  55.177  1.00  0.00     0.085 A 
HETATM   12  C   UNL     1       7.585  25.326  54.062  1.00  0.00     0.062 A 
HETATM   13  C   UNL     1       8.127  23.182  55.017  1.00  0.00     0.034 A 
HETATM   14  N   UNL     1       7.429  26.593  54.561  1.00  0.00    -0.342 N 
HETATM   15  C   UNL     1       7.501  24.804  52.769  1.00  0.00     0.032 A 
HETATM   16  H   UNL     1       7.200  27.421  54.028  1.00  0.00     0.167 HD
HETATM   17  C   UNL     1       7.746  23.434  52.628  1.00  0.00     0.002 A 
HETATM   18  C   UNL     1       8.059  22.634  53.731  1.00  0.00     0.002 A 
ENDBRANCH   7   9
ENDBRANCH   6   7
ENDBRANCH   5   6
ENDBRANCH   2   5
BRANCH   1  19
HETATM   19  C   UNL     1       8.389  30.859  60.131  1.00  0.00     0.040 A 
HETATM   20  C   UNL     1       7.233  31.669  60.054  1.00  0.00    -0.034 A 
HETATM   21  C   UNL     1       6.793  32.365  61.200  1.00  0.00     0.026 A 
HETATM   22  C   UNL     1       6.439  31.823  58.784  1.00  0.00     0.050 C 
HETATM   23  C   UNL     1       7.483  32.262  62.412  1.00  0.00     0.032 A 
HETATM   24  C   UNL     1       8.645  31.494  62.470  1.00  0.00     0.019 A 
HETATM   25  C   UNL     1       9.090  30.797  61.340  1.00  0.00     0.031 A 
BRANCH  23  26
HETATM   26  C   UNL     1       7.026  32.958  63.650  1.00  0.00     0.251 C 
HETATM   27  N   UNL     1       5.661  33.010  63.854  1.00  0.00    -0.357 N 
HETATM   28  H   UNL     1       5.054  32.447  63.275  1.00  0.00     0.162 HD
HETATM   29  O   UNL     1       7.846  33.412  64.439  1.00  0.00    -0.268 OA
BRANCH  27  30
HETATM   30  C   UNL     1       5.100  33.555  65.073  1.00  0.00     0.118 C 
HETATM   31  C   UNL     1       3.833  34.344  64.797  1.00  0.00     0.026 C 
ENDBRANCH  27  30
ENDBRANCH  23  26
ENDBRANCH   1  19
TORSDOF 7
ENDMDL
MODEL 2
REMARK VINA RESULT:      -9.2      1.346      1.757
REMARK  7 active torsions:
REMARK  status: ('A' for Active; 'I' for Inactive)
REMARK    1  A    between atoms: C_2  and  N_3 
REMARK       I    between atoms: N_3  and  C_4 
REMARK    2  A    between atoms: C_4  and  C_5 
REMARK    3  A    between atoms: C_9  and  N_10 
REMARK       I    between atoms: N_10  and  C_11 
REMARK    4  A    between atoms: C_11  and  C_12 
REMARK    5  A    between atoms: C_12  and  S_13 
REMARK    6  A    between atoms: S_13  and  C_14 
REMARK    7  A    between atoms: C_14  and  C_15 
ROOT
HETATM    1  N   UNL     1       7.957  30.927  60.074  1.00  0.00    -0.326 N 
HETATM    2  C   UNL     1       8.865  31.328  59.103  1.00  0.00     0.231 C 
HETATM    3  O   UNL     1       9.452  32.404  59.045  1.00  0.00    -0.272 OA
HETATM    4  H   UNL     1       7.591  29.991  59.962  1.00  0.00     0.169 HD
ENDROOT
BRANCH   2   5
HETATM    5  C   UNL     1       9.102  30.255  58.043  1.00  0.00     0.177 C 
BRANCH   5   6
HETATM    6  S   UNL     1       7.716  29.063  58.103  1.00  0.00    -0.147 SA
BRANCH   6   7
HETATM    7  C   UNL     1       7.698  28.459  56.370  1.00  0.00     0.113 C 
HETATM    8  C   UNL     1       8.796  29.128  55.546  1.00  0.00     0.029 C 
BRANCH   7   9
HETATM    9  C   UNL     1       7.738  26.963  56.269  1.00  0.00     0.118 A 
HETATM   10  N   UNL     1       8.224  26.124  57.164  1.00  0.00    -0.232 NA
HETATM   11  C   UNL     1       8.131  24.876  56.600  1.00  0.00     0.085 A 
HETATM   12  C   UNL     1       7.555  24.944  55.338  1.00  0.00     0.062 A 
HETATM   13  C   UNL     1       8.527  23.629  57.107  1.00  0.00     0.034 A 
HETATM   14  N   UNL     1       7.314  26.280  55.150  1.00  0.00    -0.342 N 
HETATM   15  C   UNL     1       7.332  23.823  54.535  1.00  0.00     0.032 A 
HETATM   16  H   UNL     1       6.893  26.702  54.334  1.00  0.00     0.167 HD
HETATM   17  C   UNL     1       7.732  22.588  55.058  1.00  0.00     0.002 A 
HETATM   18  C   UNL     1       8.324  22.489  56.320  1.00  0.00     0.002 A 
ENDBRANCH   7   9
ENDBRANCH   6   7
ENDBRANCH   5   6
ENDBRANCH   2   5
BRANCH   1  19
HETATM   19  C   UNL     1       7.565  31.617  61.244  1.00  0.00     0.040 A 
HETATM   20  C   UNL     1       6.337  32.318  61.241  1.00  0.00    -0.034 A 
HETATM   21  C   UNL     1       5.901  32.965  62.416  1.00  0.00     0.026 A 
HETATM   22  C   UNL     1       5.461  32.403  60.020  1.00  0.00     0.050 C 
HETATM   23  C   UNL     1       6.666  32.921  63.586  1.00  0.00     0.032 A 
HETATM   24  C   UNL     1       7.896  32.263  63.571  1.00  0.00     0.019 A 
HETATM   25  C   UNL     1       8.337  31.615  62.411  1.00  0.00     0.031 A 
BRANCH  23  26
HETATM   26  C   UNL     1       6.220  33.566  64.855  1.00  0.00     0.251 C 
HETATM   27  N   UNL     1       4.861  33.552  65.103  1.00  0.00    -0.357 N 
HETATM   28  H   UNL     1       4.261  32.976  64.529  1.00  0.00     0.162 HD
HETATM   29  O   UNL     1       7.044  34.038  65.629  1.00  0.00    -0.268 OA
BRANCH  27  30
HETATM   30  C   UNL     1       4.316  34.042  66.352  1.00  0.00     0.118 C 
HETATM   31  C   UNL     1       3.884  35.493  66.238  1.00  0.00     0.026 C 
ENDBRANCH  27  30
ENDBRANCH  23  26
ENDBRANCH   1  19
TORSDOF 7
ENDMDL
MODEL 3
REMARK VINA RESULT:      -9.1      2.362      4.290
REMARK  7 active torsions:
REMARK  status: ('A' for Active; 'I' for Inactive)
REMARK    1  A    between atoms: C_2  and  N_3 
REMARK       I    between atoms: N_3  and  C_4 
REMARK    2  A    between atoms: C_4  and  C_5 
REMARK    3  A    between atoms: C_9  and  N_10 
REMARK       I    between atoms: N_10  and  C_11 
REMARK    4  A    between atoms: C_11  and  C_12 
REMARK    5  A    between atoms: C_12  and  S_13 
REMARK    6  A    between atoms: S_13  and  C_14 
REMARK    7  A    between atoms: C_14  and  C_15 
ROOT
HETATM    1  N   UNL     1       7.827  28.821  55.615  1.00  0.00    -0.326 N 
HETATM    2  C   UNL     1       7.538  27.479  55.408  1.00  0.00     0.231 C 
HETATM    3  O   UNL     1       7.529  26.590  56.254  1.00  0.00    -0.272 OA
HETATM    4  H   UNL     1       7.764  29.408  54.794  1.00  0.00     0.169 HD
ENDROOT
BRANCH   2   5
HETATM    5  C   UNL     1       7.202  27.170  53.951  1.00  0.00     0.177 C 
BRANCH   5   6
HETATM    6  S   UNL     1       5.723  26.095  53.912  1.00  0.00    -0.147 SA
BRANCH   6   7
HETATM    7  C   UNL     1       6.306  24.736  52.825  1.00  0.00     0.113 C 
HETATM    8  C   UNL     1       7.162  25.278  51.682  1.00  0.00     0.029 C 
BRANCH   7   9
HETATM    9  C   UNL     1       6.990  23.633  53.578  1.00  0.00     0.118 A 
HETATM   10  N   UNL     1       7.420  22.488  53.084  1.00  0.00    -0.232 NA
HETATM   11  C   UNL     1       7.885  21.766  54.155  1.00  0.00     0.085 A 
HETATM   12  C   UNL     1       7.759  22.490  55.333  1.00  0.00     0.062 A 
HETATM   13  C   UNL     1       8.428  20.473  54.199  1.00  0.00     0.034 A 
HETATM   14  N   UNL     1       7.188  23.673  54.942  1.00  0.00    -0.342 N 
HETATM   15  C   UNL     1       8.159  22.003  56.579  1.00  0.00     0.032 A 
HETATM   16  H   UNL     1       6.952  24.450  55.543  1.00  0.00     0.167 HD
HETATM   17  C   UNL     1       8.699  20.712  56.604  1.00  0.00     0.002 A 
HETATM   18  C   UNL     1       8.829  19.955  55.436  1.00  0.00     0.002 A 
ENDBRANCH   7   9
ENDBRANCH   6   7
ENDBRANCH   5   6
ENDBRANCH   2   5
BRANCH   1  19
HETATM   19  C   UNL     1       8.093  29.481  56.837  1.00  0.00     0.040 A 
HETATM   20  C   UNL     1       9.431  29.809  57.156  1.00  0.00    -0.034 A 
HETATM   21  C   UNL     1       9.711  30.517  58.343  1.00  0.00     0.026 A 
HETATM   22  C   UNL     1      10.587  29.429  56.269  1.00  0.00     0.050 C 
HETATM   23  C   UNL     1       8.682  30.903  59.208  1.00  0.00     0.032 A 
HETATM   24  C   UNL     1       7.369  30.541  58.909  1.00  0.00     0.019 A 
HETATM   25  C   UNL     1       7.079  29.840  57.732  1.00  0.00     0.031 A 
BRANCH  23  26
HETATM   26  C   UNL     1       8.940  31.681  60.455  1.00  0.00     0.251 C 
HETATM   27  N   UNL     1       8.102  31.421  61.522  1.00  0.00    -0.357 N 
HETATM   28  H   UNL     1       7.484  30.622  61.480  1.00  0.00     0.162 HD
HETATM   29  O   UNL     1       9.875  32.470  60.507  1.00  0.00    -0.268 OA
BRANCH  27  30
HETATM   30  C   UNL     1       8.321  32.025  62.820  1.00  0.00     0.118 C 
HETATM   31  C   UNL     1       7.215  33.003  63.171  1.00  0.00     0.026 C 
ENDBRANCH  27  30
ENDBRANCH  23  26
ENDBRANCH   1  19
TORSDOF 7
ENDMDL
MODEL 4
REMARK VINA RESULT:      -9.1      6.013      9.986
REMARK  7 active torsions:
REMARK  status: ('A' for Active; 'I' for Inactive)
REMARK    1  A    between atoms: C_2  and  N_3 
REMARK       I    between atoms: N_3  and  C_4 
REMARK    2  A    between atoms: C_4  and  C_5 
REMARK    3  A    between atoms: C_9  and  N_10 
REMARK       I    between atoms: N_10  and  C_11 
REMARK    4  A    between atoms: C_11  and  C_12 
REMARK    5  A    between atoms: C_12  and  S_13 
REMARK    6  A    between atoms: S_13  and  C_14 
REMARK    7  A    between atoms: C_14  and  C_15 
ROOT
HETATM    1  N   UNL     1       5.771  27.390  54.002  1.00  0.00    -0.326 N 
HETATM    2  C   UNL     1       6.990  27.790  54.533  1.00  0.00     0.231 C 
HETATM    3  O   UNL     1       8.038  27.962  53.920  1.00  0.00    -0.272 OA
HETATM    4  H   UNL     1       5.012  27.320  54.667  1.00  0.00     0.169 HD
ENDROOT
BRANCH   2   5
HETATM    5  C   UNL     1       6.925  28.019  56.041  1.00  0.00     0.177 C 
BRANCH   5   6
HETATM    6  S   UNL     1       8.259  27.052  56.834  1.00  0.00    -0.147 SA
BRANCH   6   7
HETATM    7  C   UNL     1       7.369  25.502  57.250  1.00  0.00     0.113 C 
HETATM    8  C   UNL     1       5.859  25.729  57.278  1.00  0.00     0.029 C 
BRANCH   7   9
HETATM    9  C   UNL     1       7.758  24.348  56.374  1.00  0.00     0.118 A 
HETATM   10  N   UNL     1       7.870  24.357  55.059  1.00  0.00    -0.232 NA
HETATM   11  C   UNL     1       8.152  23.064  54.696  1.00  0.00     0.085 A 
HETATM   12  C   UNL     1       8.238  22.243  55.813  1.00  0.00     0.062 A 
HETATM   13  C   UNL     1       8.343  22.511  53.421  1.00  0.00     0.034 A 
HETATM   14  N   UNL     1       7.985  23.081  56.867  1.00  0.00    -0.342 N 
HETATM   15  C   UNL     1       8.522  20.878  55.740  1.00  0.00     0.032 A 
HETATM   16  H   UNL     1       7.969  22.824  57.844  1.00  0.00     0.167 HD
HETATM   17  C   UNL     1       8.710  20.343  54.461  1.00  0.00     0.002 A 
HETATM   18  C   UNL     1       8.619  21.142  53.318  1.00  0.00     0.002 A 
ENDBRANCH   7   9
ENDBRANCH   6   7
ENDBRANCH   5   6
ENDBRANCH   2   5
BRANCH   1  19
HETATM   19  C   UNL     1       5.436  27.174  52.645  1.00  0.00     0.040 A 
HETATM   20  C   UNL     1       5.055  25.875  52.237  1.00  0.00    -0.034 A 
HETATM   21  C   UNL     1       4.663  25.651  50.901  1.00  0.00     0.026 A 
HETATM   22  C   UNL     1       5.049  24.703  53.183  1.00  0.00     0.050 C 
HETATM   23  C   UNL     1       4.643  26.698  49.973  1.00  0.00     0.032 A 
HETATM   24  C   UNL     1       5.059  27.968  50.372  1.00  0.00     0.019 A 
HETATM   25  C   UNL     1       5.448  28.202  51.696  1.00  0.00     0.031 A 
BRANCH  23  26
HETATM   26  C   UNL     1       4.203  26.503  48.561  1.00  0.00     0.251 C 
HETATM   27  N   UNL     1       2.881  26.149  48.377  1.00  0.00    -0.357 N 
HETATM   28  H   UNL     1       2.242  26.204  49.157  1.00  0.00     0.162 HD
HETATM   29  O   UNL     1       4.987  26.693  47.640  1.00  0.00    -0.268 OA
BRANCH  27  30
HETATM   30  C   UNL     1       2.305  26.044  47.052  1.00  0.00     0.118 C 
HETATM   31  C   UNL     1       1.222  27.086  46.834  1.00  0.00     0.026 C 
ENDBRANCH  27  30
ENDBRANCH  23  26
ENDBRANCH   1  19
TORSDOF 7
ENDMDL
MODEL 5
REMARK VINA RESULT:      -8.9      3.100     10.095
REMARK  7 active torsions:
REMARK  status: ('A' for Active; 'I' for Inactive)
REMARK    1  A    between atoms: C_2  and  N_3 
REMARK       I    between atoms: N_3  and  C_4 
REMARK    2  A    between atoms: C_4  and  C_5 
REMARK    3  A    between atoms: C_9  and  N_10 
REMARK       I    between atoms: N_10  and  C_11 
REMARK    4  A    between atoms: C_11  and  C_12 
REMARK    5  A    between atoms: C_12  and  S_13 
REMARK    6  A    between atoms: S_13  and  C_14 
REMARK    7  A    between atoms: C_14  and  C_15 
ROOT
HETATM    1  N   UNL     1       4.814  27.392  55.892  1.00  0.00    -0.326 N 
HETATM    2  C   UNL     1       5.250  28.663  56.242  1.00  0.00     0.231 C 
HETATM    3  O   UNL     1       6.393  28.990  56.546  1.00  0.00    -0.272 OA
HETATM    4  H   UNL     1       3.834  27.323  55.654  1.00  0.00     0.169 HD
ENDROOT
BRANCH   2   5
HETATM    5  C   UNL     1       4.128  29.697  56.212  1.00  0.00     0.177 C 
BRANCH   5   6
HETATM    6  S   UNL     1       4.872  31.366  56.292  1.00  0.00    -0.147 SA
BRANCH   6   7
HETATM    7  C   UNL     1       4.490  31.838  58.023  1.00  0.00     0.113 C 
HETATM    8  C   UNL     1       3.426  30.919  58.619  1.00  0.00     0.029 C 
BRANCH   7   9
HETATM    9  C   UNL     1       5.712  31.935  58.889  1.00  0.00     0.118 A 
HETATM   10  N   UNL     1       6.967  31.952  58.484  1.00  0.00    -0.232 NA
HETATM   11  C   UNL     1       7.731  31.954  59.625  1.00  0.00     0.085 A 
HETATM   12  C   UNL     1       6.929  31.960  60.758  1.00  0.00     0.062 A 
HETATM   13  C   UNL     1       9.126  31.943  59.771  1.00  0.00     0.034 A 
HETATM   14  N   UNL     1       5.651  31.948  60.266  1.00  0.00    -0.342 N 
HETATM   15  C   UNL     1       7.439  31.970  62.058  1.00  0.00     0.032 A 
HETATM   16  H   UNL     1       4.800  31.953  60.812  1.00  0.00     0.167 HD
HETATM   17  C   UNL     1       8.833  31.961  62.185  1.00  0.00     0.002 A 
HETATM   18  C   UNL     1       9.666  31.943  61.063  1.00  0.00     0.002 A 
ENDBRANCH   7   9
ENDBRANCH   6   7
ENDBRANCH   5   6
ENDBRANCH   2   5
BRANCH   1  19
HETATM   19  C   UNL     1       5.583  26.217  55.727  1.00  0.00     0.040 A 
HETATM   20  C   UNL     1       5.678  25.642  54.439  1.00  0.00    -0.034 A 
HETATM   21  C   UNL     1       6.486  24.503  54.242  1.00  0.00     0.026 A 
HETATM   22  C   UNL     1       4.944  26.203  53.250  1.00  0.00     0.050 C 
HETATM   23  C   UNL     1       7.198  23.935  55.304  1.00  0.00     0.032 A 
HETATM   24  C   UNL     1       7.067  24.483  56.580  1.00  0.00     0.019 A 
HETATM   25  C   UNL     1       6.270  25.615  56.787  1.00  0.00     0.031 A 
BRANCH  23  26
HETATM   26  C   UNL     1       8.086  22.750  55.125  1.00  0.00     0.251 C 
HETATM   27  N   UNL     1       7.479  21.593  54.678  1.00  0.00    -0.357 N 
HETATM   28  H   UNL     1       6.530  21.635  54.335  1.00  0.00     0.162 HD
HETATM   29  O   UNL     1       9.289  22.846  55.334  1.00  0.00    -0.268 OA
BRANCH  27  30
HETATM   30  C   UNL     1       8.251  20.411  54.355  1.00  0.00     0.118 C 
HETATM   31  C   UNL     1       8.585  20.354  52.875  1.00  0.00     0.026 C 
ENDBRANCH  27  30
ENDBRANCH  23  26
ENDBRANCH   1  19
TORSDOF 7
ENDMDL
MODEL 6
REMARK VINA RESULT:      -8.9      2.560     10.625
REMARK  7 active torsions:
REMARK  status: ('A' for Active; 'I' for Inactive)
REMARK    1  A    between atoms: C_2  and  N_3 
REMARK       I    between atoms: N_3  and  C_4 
REMARK    2  A    between atoms: C_4  and  C_5 
REMARK    3  A    between atoms: C_9  and  N_10 
REMARK       I    between atoms: N_10  and  C_11 
REMARK    4  A    between atoms: C_11  and  C_12 
REMARK    5  A    between atoms: C_12  and  S_13 
REMARK    6  A    between atoms: S_13  and  C_14 
REMARK    7  A    between atoms: C_14  and  C_15 
ROOT
HETATM    1  N   UNL     1       6.963  28.252  57.728  1.00  0.00    -0.326 N 
HETATM    2  C   UNL     1       7.830  29.280  58.074  1.00  0.00     0.231 C 
HETATM    3  O   UNL     1       9.056  29.240  58.069  1.00  0.00    -0.272 OA
HETATM    4  H   UNL     1       5.979  28.482  57.778  1.00  0.00     0.169 HD
ENDROOT
BRANCH   2   5
HETATM    5  C   UNL     1       7.095  30.553  58.486  1.00  0.00     0.177 C 
BRANCH   5   6
HETATM    6  S   UNL     1       8.261  31.627  59.398  1.00  0.00    -0.147 SA
BRANCH   6   7
HETATM    7  C   UNL     1       8.255  30.828  61.050  1.00  0.00     0.113 C 
HETATM    8  C   UNL     1       9.660  30.378  61.445  1.00  0.00     0.029 C 
BRANCH   7   9
HETATM    9  C   UNL     1       7.605  31.670  62.108  1.00  0.00     0.118 A 
HETATM   10  N   UNL     1       8.213  32.346  63.063  1.00  0.00    -0.232 NA
HETATM   11  C   UNL     1       7.216  32.880  63.841  1.00  0.00     0.085 A 
HETATM   12  C   UNL     1       5.964  32.544  63.341  1.00  0.00     0.062 A 
HETATM   13  C   UNL     1       7.304  33.663  65.002  1.00  0.00     0.034 A 
HETATM   14  N   UNL     1       6.237  31.775  62.241  1.00  0.00    -0.342 N 
HETATM   15  C   UNL     1       4.768  32.958  63.930  1.00  0.00     0.032 A 
HETATM   16  H   UNL     1       5.557  31.356  61.621  1.00  0.00     0.167 HD
HETATM   17  C   UNL     1       4.874  33.739  65.086  1.00  0.00     0.002 A 
HETATM   18  C   UNL     1       6.120  34.084  65.619  1.00  0.00     0.002 A 
ENDBRANCH   7   9
ENDBRANCH   6   7
ENDBRANCH   5   6
ENDBRANCH   2   5
BRANCH   1  19
HETATM   19  C   UNL     1       7.281  26.972  57.218  1.00  0.00     0.040 A 
HETATM   20  C   UNL     1       6.947  26.672  55.878  1.00  0.00    -0.034 A 
HETATM   21  C   UNL     1       7.306  25.421  55.333  1.00  0.00     0.026 A 
HETATM   22  C   UNL     1       6.213  27.644  54.993  1.00  0.00     0.050 C 
HETATM   23  C   UNL     1       7.993  24.474  56.101  1.00  0.00     0.032 A 
HETATM   24  C   UNL     1       8.284  24.761  57.434  1.00  0.00     0.019 A 
HETATM   25  C   UNL     1       7.933  26.000  57.985  1.00  0.00     0.031 A 
BRANCH  23  26
HETATM   26  C   UNL     1       8.417  23.156  55.547  1.00  0.00     0.251 C 
HETATM   27  N   UNL     1       8.477  23.062  54.170  1.00  0.00    -0.357 N 
HETATM   28  H   UNL     1       8.406  23.903  53.615  1.00  0.00     0.162 HD
HETATM   29  O   UNL     1       8.725  22.241  56.302  1.00  0.00    -0.268 OA
BRANCH  27  30
HETATM   30  C   UNL     1       8.985  21.874  53.516  1.00  0.00     0.118 C 
HETATM   31  C   UNL     1       7.870  20.891  53.206  1.00  0.00     0.026 C 
ENDBRANCH  27  30
ENDBRANCH  23  26
ENDBRANCH   1  19
TORSDOF 7
ENDMDL
MODEL 7
REMARK VINA RESULT:      -8.8      2.625      4.553
REMARK  7 active torsions:
REMARK  status: ('A' for Active; 'I' for Inactive)
REMARK    1  A    between atoms: C_2  and  N_3 
REMARK       I    between atoms: N_3  and  C_4 
REMARK    2  A    between atoms: C_4  and  C_5 
REMARK    3  A    between atoms: C_9  and  N_10 
REMARK       I    between atoms: N_10  and  C_11 
REMARK    4  A    between atoms: C_11  and  C_12 
REMARK    5  A    between atoms: C_12  and  S_13 
REMARK    6  A    between atoms: S_13  and  C_14 
REMARK    7  A    between atoms: C_14  and  C_15 
ROOT
HETATM    1  N   UNL     1       5.561  29.688  55.094  1.00  0.00    -0.326 N 
HETATM    2  C   UNL     1       4.472  28.838  54.948  1.00  0.00     0.231 C 
HETATM    3  O   UNL     1       3.880  28.242  55.842  1.00  0.00    -0.272 OA
HETATM    4  H   UNL     1       5.903  30.103  54.237  1.00  0.00     0.169 HD
ENDROOT
BRANCH   2   5
HETATM    5  C   UNL     1       4.033  28.694  53.493  1.00  0.00     0.177 C 
BRANCH   5   6
HETATM    6  S   UNL     1       5.479  28.183  52.497  1.00  0.00    -0.147 SA
BRANCH   6   7
HETATM    7  C   UNL     1       5.096  26.412  52.206  1.00  0.00     0.113 C 
HETATM    8  C   UNL     1       5.150  26.077  50.717  1.00  0.00     0.029 C 
BRANCH   7   9
HETATM    9  C   UNL     1       5.939  25.485  53.032  1.00  0.00     0.118 A 
HETATM   10  N   UNL     1       6.154  25.560  54.331  1.00  0.00    -0.232 NA
HETATM   11  C   UNL     1       7.055  24.567  54.623  1.00  0.00     0.085 A 
HETATM   12  C   UNL     1       7.388  23.849  53.481  1.00  0.00     0.062 A 
HETATM   13  C   UNL     1       7.644  24.219  55.847  1.00  0.00     0.034 A 
HETATM   14  N   UNL     1       6.666  24.451  52.483  1.00  0.00    -0.342 N 
HETATM   15  C   UNL     1       8.280  22.775  53.483  1.00  0.00     0.032 A 
HETATM   16  H   UNL     1       6.658  24.185  51.508  1.00  0.00     0.167 HD
HETATM   17  C   UNL     1       8.858  22.442  54.714  1.00  0.00     0.002 A 
HETATM   18  C   UNL     1       8.551  23.153  55.878  1.00  0.00     0.002 A 
ENDBRANCH   7   9
ENDBRANCH   6   7
ENDBRANCH   5   6
ENDBRANCH   2   5
BRANCH   1  19
HETATM   19  C   UNL     1       6.177  30.123  56.290  1.00  0.00     0.040 A 
HETATM   20  C   UNL     1       7.409  29.542  56.670  1.00  0.00    -0.034 A 
HETATM   21  C   UNL     1       8.068  30.002  57.830  1.00  0.00     0.026 A 
HETATM   22  C   UNL     1       8.057  28.437  55.879  1.00  0.00     0.050 C 
HETATM   23  C   UNL     1       7.521  31.028  58.607  1.00  0.00     0.032 A 
HETATM   24  C   UNL     1       6.286  31.569  58.249  1.00  0.00     0.019 A 
HETATM   25  C   UNL     1       5.624  31.121  57.099  1.00  0.00     0.031 A 
BRANCH  23  26
HETATM   26  C   UNL     1       8.207  31.561  59.820  1.00  0.00     0.251 C 
HETATM   27  N   UNL     1       7.987  30.874  60.997  1.00  0.00    -0.357 N 
HETATM   28  H   UNL     1       7.533  29.972  60.965  1.00  0.00     0.162 HD
HETATM   29  O   UNL     1       8.947  32.533  59.732  1.00  0.00    -0.268 OA
BRANCH  27  30
HETATM   30  C   UNL     1       8.686  31.222  62.217  1.00  0.00     0.118 C 
HETATM   31  C   UNL     1       7.885  32.200  63.056  1.00  0.00     0.026 C 
ENDBRANCH  27  30
ENDBRANCH  23  26
ENDBRANCH   1  19
TORSDOF 7
ENDMDL
MODEL 8
REMARK VINA RESULT:      -8.7      1.780      2.461
REMARK  7 active torsions:
REMARK  status: ('A' for Active; 'I' for Inactive)
REMARK    1  A    between atoms: C_2  and  N_3 
REMARK       I    between atoms: N_3  and  C_4 
REMARK    2  A    between atoms: C_4  and  C_5 
REMARK    3  A    between atoms: C_9  and  N_10 
REMARK       I    between atoms: N_10  and  C_11 
REMARK    4  A    between atoms: C_11  and  C_12 
REMARK    5  A    between atoms: C_12  and  S_13 
REMARK    6  A    between atoms: S_13  and  C_14 
REMARK    7  A    between atoms: C_14  and  C_15 
ROOT
HETATM    1  N   UNL     1       7.515  29.871  57.621  1.00  0.00    -0.326 N 
HETATM    2  C   UNL     1       7.648  28.501  57.445  1.00  0.00     0.231 C 
HETATM    3  O   UNL     1       7.894  27.669  58.313  1.00  0.00    -0.272 OA
HETATM    4  H   UNL     1       7.292  30.394  56.784  1.00  0.00     0.169 HD
ENDROOT
BRANCH   2   5
HETATM    5  C   UNL     1       7.447  28.073  55.993  1.00  0.00     0.177 C 
BRANCH   5   6
HETATM    6  S   UNL     1       6.148  26.786  55.941  1.00  0.00    -0.147 SA
BRANCH   6   7
HETATM    7  C   UNL     1       6.482  26.016  54.309  1.00  0.00     0.113 C 
HETATM    8  C   UNL     1       7.491  26.840  53.512  1.00  0.00     0.029 C 
BRANCH   7   9
HETATM    9  C   UNL     1       6.876  24.572  54.411  1.00  0.00     0.118 A 
HETATM   10  N   UNL     1       7.023  23.870  55.518  1.00  0.00    -0.232 NA
HETATM   11  C   UNL     1       7.479  22.636  55.124  1.00  0.00     0.085 A 
HETATM   12  C   UNL     1       7.594  22.569  53.742  1.00  0.00     0.062 A 
HETATM   13  C   UNL     1       7.824  21.518  55.897  1.00  0.00     0.034 A 
HETATM   14  N   UNL     1       7.206  23.810  53.311  1.00  0.00    -0.342 N 
HETATM   15  C   UNL     1       8.030  21.429  53.063  1.00  0.00     0.032 A 
HETATM   16  H   UNL     1       7.161  24.122  52.350  1.00  0.00     0.167 HD
HETATM   17  C   UNL     1       8.369  20.322  53.850  1.00  0.00     0.002 A 
HETATM   18  C   UNL     1       8.273  20.363  55.244  1.00  0.00     0.002 A 
ENDBRANCH   7   9
ENDBRANCH   6   7
ENDBRANCH   5   6
ENDBRANCH   2   5
BRANCH   1  19
HETATM   19  C   UNL     1       7.548  30.607  58.828  1.00  0.00     0.040 A 
HETATM   20  C   UNL     1       6.589  31.626  59.030  1.00  0.00    -0.034 A 
HETATM   21  C   UNL     1       6.569  32.333  60.250  1.00  0.00     0.026 A 
HETATM   22  C   UNL     1       5.572  31.994  57.982  1.00  0.00     0.050 C 
HETATM   23  C   UNL     1       7.484  32.037  61.266  1.00  0.00     0.032 A 
HETATM   24  C   UNL     1       8.453  31.059  61.045  1.00  0.00     0.019 A 
HETATM   25  C   UNL     1       8.481  30.350  59.838  1.00  0.00     0.031 A 
BRANCH  23  26
HETATM   26  C   UNL     1       7.470  32.742  62.581  1.00  0.00     0.251 C 
HETATM   27  N   UNL     1       6.410  33.598  62.804  1.00  0.00    -0.357 N 
HETATM   28  H   UNL     1       5.623  33.584  62.170  1.00  0.00     0.162 HD
HETATM   29  O   UNL     1       8.346  32.519  63.408  1.00  0.00    -0.268 OA
BRANCH  27  30
HETATM   30  C   UNL     1       6.222  34.251  64.083  1.00  0.00     0.118 C 
HETATM   31  C   UNL     1       4.996  33.720  64.802  1.00  0.00     0.026 C 
ENDBRANCH  27  30
ENDBRANCH  23  26
ENDBRANCH   1  19
TORSDOF 7
ENDMDL
MODEL 9
REMARK VINA RESULT:      -8.6      3.607     10.195
REMARK  7 active torsions:
REMARK  status: ('A' for Active; 'I' for Inactive)
REMARK    1  A    between atoms: C_2  and  N_3 
REMARK       I    between atoms: N_3  and  C_4 
REMARK    2  A    between atoms: C_4  and  C_5 
REMARK    3  A    between atoms: C_9  and  N_10 
REMARK       I    between atoms: N_10  and  C_11 
REMARK    4  A    between atoms: C_11  and  C_12 
REMARK    5  A    between atoms: C_12  and  S_13 
REMARK    6  A    between atoms: S_13  and  C_14 
REMARK    7  A    between atoms: C_14  and  C_15 
ROOT
HETATM    1  N   UNL     1       5.489  28.010  55.615  1.00  0.00    -0.326 N 
HETATM    2  C   UNL     1       4.391  28.639  55.043  1.00  0.00     0.231 C 
HETATM    3  O   UNL     1       3.805  28.306  54.018  1.00  0.00    -0.272 OA
HETATM    4  H   UNL     1       5.823  28.423  56.476  1.00  0.00     0.169 HD
ENDROOT
BRANCH   2   5
HETATM    5  C   UNL     1       3.930  29.855  55.843  1.00  0.00     0.177 C 
BRANCH   5   6
HETATM    6  S   UNL     1       5.394  30.875  56.245  1.00  0.00    -0.147 SA
BRANCH   6   7
HETATM    7  C   UNL     1       4.843  31.682  57.798  1.00  0.00     0.113 C 
HETATM    8  C   UNL     1       3.616  30.979  58.375  1.00  0.00     0.029 C 
BRANCH   7   9
HETATM    9  C   UNL     1       5.944  31.831  58.806  1.00  0.00     0.118 A 
HETATM   10  N   UNL     1       7.240  31.873  58.559  1.00  0.00    -0.232 NA
HETATM   11  C   UNL     1       7.855  31.920  59.785  1.00  0.00     0.085 A 
HETATM   12  C   UNL     1       6.918  31.930  60.810  1.00  0.00     0.062 A 
HETATM   13  C   UNL     1       9.221  31.951  60.104  1.00  0.00     0.034 A 
HETATM   14  N   UNL     1       5.712  31.872  60.164  1.00  0.00    -0.342 N 
HETATM   15  C   UNL     1       7.262  31.982  62.163  1.00  0.00     0.032 A 
HETATM   16  H   UNL     1       4.800  31.866  60.600  1.00  0.00     0.167 HD
HETATM   17  C   UNL     1       8.629  32.012  62.462  1.00  0.00     0.002 A 
HETATM   18  C   UNL     1       9.596  31.993  61.452  1.00  0.00     0.002 A 
ENDBRANCH   7   9
ENDBRANCH   6   7
ENDBRANCH   5   6
ENDBRANCH   2   5
BRANCH   1  19
HETATM   19  C   UNL     1       6.126  26.816  55.205  1.00  0.00     0.040 A 
HETATM   20  C   UNL     1       5.882  25.630  55.936  1.00  0.00    -0.034 A 
HETATM   21  C   UNL     1       6.463  24.418  55.510  1.00  0.00     0.026 A 
HETATM   22  C   UNL     1       5.015  25.606  57.167  1.00  0.00     0.050 C 
HETATM   23  C   UNL     1       7.275  24.371  54.372  1.00  0.00     0.032 A 
HETATM   24  C   UNL     1       7.544  25.551  53.679  1.00  0.00     0.019 A 
HETATM   25  C   UNL     1       6.972  26.760  54.092  1.00  0.00     0.031 A 
BRANCH  23  26
HETATM   26  C   UNL     1       7.878  23.100  53.875  1.00  0.00     0.251 C 
HETATM   27  N   UNL     1       8.359  22.235  54.837  1.00  0.00    -0.357 N 
HETATM   28  H   UNL     1       8.137  22.404  55.808  1.00  0.00     0.162 HD
HETATM   29  O   UNL     1       7.893  22.854  52.675  1.00  0.00    -0.268 OA
BRANCH  27  30
HETATM   30  C   UNL     1       8.861  20.922  54.489  1.00  0.00     0.118 C 
HETATM   31  C   UNL     1       8.624  19.923  55.607  1.00  0.00     0.026 C 
ENDBRANCH  27  30
ENDBRANCH  23  26
ENDBRANCH   1  19
TORSDOF 7
ENDMDL
MODEL 10
REMARK VINA RESULT:      -8.4      2.786     10.878
REMARK  7 active torsions:
REMARK  status: ('A' for Active; 'I' for Inactive)
REMARK    1  A    between atoms: C_2  and  N_3 
REMARK       I    between atoms: N_3  and  C_4 
REMARK    2  A    between atoms: C_4  and  C_5 
REMARK    3  A    between atoms: C_9  and  N_10 
REMARK       I    between atoms: N_10  and  C_11 
REMARK    4  A    between atoms: C_11  and  C_12 
REMARK    5  A    between atoms: C_12  and  S_13 
REMARK    6  A    between atoms: S_13  and  C_14 
REMARK    7  A    between atoms: C_14  and  C_15 
ROOT
HETATM    1  N   UNL     1       6.313  28.176  56.674  1.00  0.00    -0.326 N 
HETATM    2  C   UNL     1       7.085  28.843  57.616  1.00  0.00     0.231 C 
HETATM    3  O   UNL     1       8.092  28.419  58.174  1.00  0.00    -0.272 OA
HETATM    4  H   UNL     1       5.527  28.699  56.311  1.00  0.00     0.169 HD
ENDROOT
BRANCH   2   5
HETATM    5  C   UNL     1       6.557  30.242  57.923  1.00  0.00     0.177 C 
BRANCH   5   6
HETATM    6  S   UNL     1       7.544  30.948  59.291  1.00  0.00    -0.147 SA
BRANCH   6   7
HETATM    7  C   UNL     1       6.568  32.451  59.687  1.00  0.00     0.113 C 
HETATM    8  C   UNL     1       5.208  32.419  58.995  1.00  0.00     0.029 C 
BRANCH   7   9
HETATM    9  C   UNL     1       6.454  32.706  61.161  1.00  0.00     0.118 A 
HETATM   10  N   UNL     1       5.342  32.881  61.849  1.00  0.00    -0.232 NA
HETATM   11  C   UNL     1       5.733  33.174  63.131  1.00  0.00     0.085 A 
HETATM   12  C   UNL     1       7.117  33.158  63.243  1.00  0.00     0.062 A 
HETATM   13  C   UNL     1       4.957  33.474  64.261  1.00  0.00     0.034 A 
HETATM   14  N   UNL     1       7.553  32.858  61.979  1.00  0.00    -0.342 N 
HETATM   15  C   UNL     1       7.793  33.415  64.438  1.00  0.00     0.032 A 
HETATM   16  H   UNL     1       8.516  32.759  61.687  1.00  0.00     0.167 HD
HETATM   17  C   UNL     1       7.003  33.711  65.554  1.00  0.00     0.002 A 
HETATM   18  C   UNL     1       5.608  33.745  65.470  1.00  0.00     0.002 A 
ENDBRANCH   7   9
ENDBRANCH   6   7
ENDBRANCH   5   6
ENDBRANCH   2   5
BRANCH   1  19
HETATM   19  C   UNL     1       6.546  26.911  56.087  1.00  0.00     0.040 A 
HETATM   20  C   UNL     1       6.965  26.854  54.738  1.00  0.00    -0.034 A 
HETATM   21  C   UNL     1       7.257  25.605  54.151  1.00  0.00     0.026 A 
HETATM   22  C   UNL     1       7.114  28.088  53.888  1.00  0.00     0.050 C 
HETATM   23  C   UNL     1       7.142  24.422  54.887  1.00  0.00     0.032 A 
HETATM   24  C   UNL     1       6.690  24.481  56.205  1.00  0.00     0.019 A 
HETATM   25  C   UNL     1       6.399  25.715  56.798  1.00  0.00     0.031 A 
BRANCH  23  26
HETATM   26  C   UNL     1       7.475  23.088  54.308  1.00  0.00     0.251 C 
HETATM   27  N   UNL     1       7.669  22.061  55.211  1.00  0.00    -0.357 N 
HETATM   28  H   UNL     1       7.416  22.201  56.179  1.00  0.00     0.162 HD
HETATM   29  O   UNL     1       7.527  22.939  53.093  1.00  0.00    -0.268 OA
BRANCH  27  30
HETATM   30  C   UNL     1       7.882  20.697  54.770  1.00  0.00     0.118 C 
HETATM   31  C   UNL     1       8.236  19.787  55.932  1.00  0.00     0.026 C 
ENDBRANCH  27  30
ENDBRANCH  23  26
ENDBRANCH   1  19
TORSDOF 7
ENDMDL
