MODEL 1
REMARK VINA RESULT:      -9.7      0.000      0.000
REMARK  5 active torsions:
REMARK  status: ('A' for Active; 'I' for Inactive)
REMARK    1  A    between atoms: C_5  and  C_6 
REMARK    2  A    between atoms: C_9  and  O_10 
REMARK    3  A    between atoms: O_10  and  C_11 
REMARK    4  A    between atoms: C_11  and  C_12 
REMARK       I    between atoms: C_12  and  N_13 
REMARK    5  A    between atoms: N_13  and  C_14 
ROOT
HETATM    1  C   UNL     1       7.734  30.303  58.576  1.00  0.00     0.278 C 
ENDROOT
BRANCH   1   2
HETATM    2  O   UNL     1       6.600  29.765  57.901  1.00  0.00    -0.342 OA
BRANCH   2   3
HETATM    3  C   UNL     1       6.708  28.462  57.489  1.00  0.00     0.069 A 
HETATM    4  C   UNL     1       5.670  27.676  56.985  1.00  0.00     0.038 A 
HETATM    5  C   UNL     1       5.911  26.353  56.597  1.00  0.00     0.018 A 
HETATM    6  C   UNL     1       7.191  25.791  56.704  1.00  0.00     0.015 A 
HETATM    7  C   UNL     1       8.228  26.587  57.207  1.00  0.00     0.018 A 
HETATM    8  C   UNL     1       7.986  27.911  57.595  1.00  0.00     0.038 A 
BRANCH   6   9
HETATM    9  C   UNL     1       7.424  24.413  56.294  1.00  0.00     0.198 A 
HETATM   10  N   UNL     1       6.943  23.897  55.109  1.00  0.00    -0.136 NA
HETATM   11  N   UNL     1       7.336  22.634  55.049  1.00  0.00     0.024 NA
HETATM   12  N   UNL     1       8.025  22.442  56.182  1.00  0.00    -0.196 N 
HETATM   13  C   UNL     1       8.647  21.183  56.490  1.00  0.00     0.200 C 
HETATM   14  N   UNL     1       8.120  23.503  57.001  1.00  0.00    -0.137 NA
ENDBRANCH   6   9
ENDBRANCH   2   3
ENDBRANCH   1   2
BRANCH   1  15
HETATM   15  C   UNL     1       7.369  31.391  59.590  1.00  0.00     0.246 C 
HETATM   16  N   UNL     1       7.371  30.944  60.899  1.00  0.00    -0.325 N 
HETATM   17  H   UNL     1       7.593  29.960  61.015  1.00  0.00     0.169 HD
HETATM   18  O   UNL     1       7.130  32.532  59.205  1.00  0.00    -0.271 OA
BRANCH  16  19
HETATM   19  C   UNL     1       7.100  31.685  62.067  1.00  0.00     0.036 A 
HETATM   20  C   UNL     1       5.805  31.905  62.553  1.00  0.00     0.059 A 
HETATM   21  C   UNL     1       5.657  32.660  63.727  1.00  0.00     0.044 A 
HETATM   22  C   UNL     1       6.738  33.195  64.423  1.00  0.00    -0.008 A 
HETATM   23  N   UNL     1       4.515  33.018  64.410  1.00  0.00    -0.365 N 
HETATM   24  C   UNL     1       8.034  32.970  63.926  1.00  0.00     0.016 A 
HETATM   25  C   UNL     1       6.210  33.890  65.546  1.00  0.00     0.030 A 
HETATM   26  C   UNL     1       8.198  32.215  62.754  1.00  0.00     0.030 A 
HETATM   27  C   UNL     1       4.840  33.762  65.513  1.00  0.00     0.089 A 
HETATM   28  H   UNL     1       3.579  32.763  64.129  1.00  0.00     0.165 HD
ENDBRANCH  16  19
ENDBRANCH   1  15
TORSDOF 5
ENDMDL
MODEL 2
REMARK VINA RESULT:      -9.6      2.958     10.413
REMARK  5 active torsions:
REMARK  status: ('A' for Active; 'I' for Inactive)
REMARK    1  A    between atoms: C_5  and  C_6 
REMARK    2  A    between atoms: C_9  and  O_10 
REMARK    3  A    between atoms: O_10  and  C_11 
REMARK    4  A    between atoms: C_11  and  C_12 
REMARK       I    between atoms: C_12  and  N_13 
REMARK    5  A    between atoms: N_13  and  C_14 
ROOT
HETATM    1  C   UNL     1       6.798  27.835  53.876  1.00  0.00     0.278 C 
ENDROOT
BRANCH   1   2
HETATM    2  O   UNL     1       8.079  28.333  54.252  1.00  0.00    -0.342 OA
BRANCH   2   3
HETATM    3  C   UNL     1       8.137  29.002  55.447  1.00  0.00     0.069 A 
HETATM    4  C   UNL     1       7.041  29.422  56.203  1.00  0.00     0.038 A 
HETATM    5  C   UNL     1       7.234  30.100  57.412  1.00  0.00     0.018 A 
HETATM    6  C   UNL     1       8.524  30.368  57.890  1.00  0.00     0.015 A 
HETATM    7  C   UNL     1       9.620  29.941  57.128  1.00  0.00     0.018 A 
HETATM    8  C   UNL     1       9.425  29.263  55.918  1.00  0.00     0.038 A 
BRANCH   6   9
HETATM    9  C   UNL     1       8.708  31.074  59.152  1.00  0.00     0.198 A 
HETATM   10  N   UNL     1       9.346  32.292  59.237  1.00  0.00    -0.136 NA
HETATM   11  N   UNL     1       9.334  32.647  60.513  1.00  0.00     0.024 NA
HETATM   12  N   UNL     1       8.700  31.644  61.135  1.00  0.00    -0.196 N 
HETATM   13  C   UNL     1       8.459  31.658  62.552  1.00  0.00     0.200 C 
HETATM   14  N   UNL     1       8.284  30.634  60.351  1.00  0.00    -0.137 NA
ENDBRANCH   6   9
ENDBRANCH   2   3
ENDBRANCH   1   2
BRANCH   1  15
HETATM   15  C   UNL     1       6.610  26.352  54.207  1.00  0.00     0.246 C 
HETATM   16  N   UNL     1       7.714  25.577  53.902  1.00  0.00    -0.325 N 
HETATM   17  H   UNL     1       8.490  26.082  53.485  1.00  0.00     0.169 HD
HETATM   18  O   UNL     1       5.559  25.966  54.714  1.00  0.00    -0.271 OA
BRANCH  16  19
HETATM   19  C   UNL     1       7.878  24.191  54.096  1.00  0.00     0.036 A 
HETATM   20  C   UNL     1       8.097  23.612  55.352  1.00  0.00     0.059 A 
HETATM   21  C   UNL     1       8.247  22.219  55.424  1.00  0.00     0.044 A 
HETATM   22  C   UNL     1       8.187  21.394  54.303  1.00  0.00    -0.008 A 
HETATM   23  N   UNL     1       8.467  21.408  56.516  1.00  0.00    -0.365 N 
HETATM   24  C   UNL     1       7.968  21.984  53.046  1.00  0.00     0.016 A 
HETATM   25  C   UNL     1       8.381  20.059  54.756  1.00  0.00     0.030 A 
HETATM   26  C   UNL     1       7.815  23.377  52.959  1.00  0.00     0.030 A 
HETATM   27  C   UNL     1       8.550  20.098  56.121  1.00  0.00     0.089 A 
HETATM   28  H   UNL     1       8.554  21.741  57.466  1.00  0.00     0.165 HD
ENDBRANCH  16  19
ENDBRANCH   1  15
TORSDOF 5
ENDMDL
MODEL 3
REMARK VINA RESULT:      -9.5      1.753     10.286
REMARK  5 active torsions:
REMARK  status: ('A' for Active; 'I' for Inactive)
REMARK    1  A    between atoms: C_5  and  C_6 
REMARK    2  A    between atoms: C_9  and  O_10 
REMARK    3  A    between atoms: O_10  and  C_11 
REMARK    4  A    between atoms: C_11  and  C_12 
REMARK       I    between atoms: C_12  and  N_13 
REMARK    5  A    between atoms: N_13  and  C_14 
ROOT
HETATM    1  C   UNL     1       8.269  30.220  58.161  1.00  0.00     0.278 C 
ENDROOT
BRANCH   1   2
HETATM    2  O   UNL     1       9.134  30.613  59.224  1.00  0.00    -0.342 OA
BRANCH   2   3
HETATM    3  C   UNL     1       8.521  31.077  60.358  1.00  0.00     0.069 A 
HETATM    4  C   UNL     1       9.006  30.949  61.660  1.00  0.00     0.038 A 
HETATM    5  C   UNL     1       8.281  31.469  62.739  1.00  0.00     0.018 A 
HETATM    6  C   UNL     1       7.061  32.127  62.537  1.00  0.00     0.015 A 
HETATM    7  C   UNL     1       6.581  32.255  61.227  1.00  0.00     0.018 A 
HETATM    8  C   UNL     1       7.307  31.734  60.149  1.00  0.00     0.038 A 
BRANCH   6   9
HETATM    9  C   UNL     1       6.319  32.663  63.672  1.00  0.00     0.198 A 
HETATM   10  N   UNL     1       4.970  32.443  63.850  1.00  0.00    -0.136 NA
HETATM   11  N   UNL     1       4.622  33.060  64.969  1.00  0.00     0.024 NA
HETATM   12  N   UNL     1       5.757  33.620  65.411  1.00  0.00    -0.196 N 
HETATM   13  C   UNL     1       5.807  34.374  66.634  1.00  0.00     0.200 C 
HETATM   14  N   UNL     1       6.849  33.414  64.655  1.00  0.00    -0.137 NA
ENDBRANCH   6   9
ENDBRANCH   2   3
ENDBRANCH   1   2
BRANCH   1  15
HETATM   15  C   UNL     1       8.680  28.896  57.512  1.00  0.00     0.246 C 
HETATM   16  N   UNL     1       7.642  27.987  57.416  1.00  0.00    -0.325 N 
HETATM   17  H   UNL     1       6.758  28.304  57.801  1.00  0.00     0.169 HD
HETATM   18  O   UNL     1       9.833  28.738  57.119  1.00  0.00    -0.271 OA
BRANCH  16  19
HETATM   19  C   UNL     1       7.674  26.692  56.859  1.00  0.00     0.036 A 
HETATM   20  C   UNL     1       8.021  25.550  57.591  1.00  0.00     0.059 A 
HETATM   21  C   UNL     1       8.019  24.312  56.930  1.00  0.00     0.044 A 
HETATM   22  C   UNL     1       7.688  24.175  55.584  1.00  0.00    -0.008 A 
HETATM   23  N   UNL     1       8.314  23.054  57.407  1.00  0.00    -0.365 N 
HETATM   24  C   UNL     1       7.342  25.328  54.857  1.00  0.00     0.016 A 
HETATM   25  C   UNL     1       7.796  22.793  55.265  1.00  0.00     0.030 A 
HETATM   26  C   UNL     1       7.339  26.573  55.505  1.00  0.00     0.030 A 
HETATM   27  C   UNL     1       8.181  22.127  56.406  1.00  0.00     0.089 A 
HETATM   28  H   UNL     1       8.587  22.855  58.359  1.00  0.00     0.165 HD
ENDBRANCH  16  19
ENDBRANCH   1  15
TORSDOF 5
ENDMDL
MODEL 4
REMARK VINA RESULT:      -9.2      4.936      8.599
REMARK  5 active torsions:
REMARK  status: ('A' for Active; 'I' for Inactive)
REMARK    1  A    between atoms: C_5  and  C_6 
REMARK    2  A    between atoms: C_9  and  O_10 
REMARK    3  A    between atoms: O_10  and  C_11 
REMARK    4  A    between atoms: C_11  and  C_12 
REMARK       I    between atoms: C_12  and  N_13 
REMARK    5  A    between atoms: N_13  and  C_14 
ROOT
HETATM    1  C   UNL     1       4.998  33.837  65.944  1.00  0.00     0.278 C 
ENDROOT
BRANCH   1   2
HETATM    2  O   UNL     1       5.968  34.595  65.224  1.00  0.00    -0.342 OA
BRANCH   2   3
HETATM    3  C   UNL     1       6.566  33.958  64.168  1.00  0.00     0.069 A 
HETATM    4  C   UNL     1       7.597  33.022  64.256  1.00  0.00     0.038 A 
HETATM    5  C   UNL     1       8.125  32.440  63.097  1.00  0.00     0.018 A 
HETATM    6  C   UNL     1       7.630  32.782  61.830  1.00  0.00     0.015 A 
HETATM    7  C   UNL     1       6.593  33.719  61.750  1.00  0.00     0.018 A 
HETATM    8  C   UNL     1       6.066  34.300  62.910  1.00  0.00     0.038 A 
BRANCH   6   9
HETATM    9  C   UNL     1       8.190  32.166  60.634  1.00  0.00     0.198 A 
HETATM   10  N   UNL     1       9.136  32.790  59.849  1.00  0.00    -0.136 NA
HETATM   11  N   UNL     1       9.426  31.960  58.859  1.00  0.00     0.024 NA
HETATM   12  N   UNL     1       8.654  30.887  59.082  1.00  0.00    -0.196 N 
HETATM   13  C   UNL     1       8.690  29.732  58.227  1.00  0.00     0.200 C 
HETATM   14  N   UNL     1       7.863  30.947  60.167  1.00  0.00    -0.137 NA
ENDBRANCH   6   9
ENDBRANCH   2   3
ENDBRANCH   1   2
BRANCH   1  15
HETATM   15  C   UNL     1       5.164  33.939  67.463  1.00  0.00     0.246 C 
HETATM   16  N   UNL     1       6.464  34.200  67.856  1.00  0.00    -0.325 N 
HETATM   17  H   UNL     1       7.136  34.271  67.098  1.00  0.00     0.169 HD
HETATM   18  O   UNL     1       4.187  33.811  68.196  1.00  0.00    -0.271 OA
BRANCH  16  19
HETATM   19  C   UNL     1       6.953  34.371  69.168  1.00  0.00     0.036 A 
HETATM   20  C   UNL     1       6.994  33.338  70.113  1.00  0.00     0.059 A 
HETATM   21  C   UNL     1       7.503  33.626  71.388  1.00  0.00     0.044 A 
HETATM   22  C   UNL     1       7.965  34.889  71.750  1.00  0.00    -0.008 A 
HETATM   23  N   UNL     1       7.654  32.807  72.485  1.00  0.00    -0.365 N 
HETATM   24  C   UNL     1       7.919  35.920  70.795  1.00  0.00     0.016 A 
HETATM   25  C   UNL     1       8.398  34.805  73.102  1.00  0.00     0.030 A 
HETATM   26  C   UNL     1       7.414  35.646  69.514  1.00  0.00     0.030 A 
HETATM   27  C   UNL     1       8.196  33.512  73.528  1.00  0.00     0.089 A 
HETATM   28  H   UNL     1       7.399  31.829  72.507  1.00  0.00     0.165 HD
ENDBRANCH  16  19
ENDBRANCH   1  15
TORSDOF 5
ENDMDL
MODEL 5
REMARK VINA RESULT:      -9.1      3.645     10.285
REMARK  5 active torsions:
REMARK  status: ('A' for Active; 'I' for Inactive)
REMARK    1  A    between atoms: C_5  and  C_6 
REMARK    2  A    between atoms: C_9  and  O_10 
REMARK    3  A    between atoms: O_10  and  C_11 
REMARK    4  A    between atoms: C_11  and  C_12 
REMARK       I    between atoms: C_12  and  N_13 
REMARK    5  A    between atoms: N_13  and  C_14 
ROOT
HETATM    1  C   UNL     1       5.311  26.739  52.227  1.00  0.00     0.278 C 
ENDROOT
BRANCH   1   2
HETATM    2  O   UNL     1       6.460  27.561  52.419  1.00  0.00    -0.342 OA
BRANCH   2   3
HETATM    3  C   UNL     1       6.609  28.103  53.669  1.00  0.00     0.069 A 
HETATM    4  C   UNL     1       5.575  28.539  54.499  1.00  0.00     0.038 A 
HETATM    5  C   UNL     1       5.860  29.077  55.760  1.00  0.00     0.018 A 
HETATM    6  C   UNL     1       7.182  29.187  56.214  1.00  0.00     0.015 A 
HETATM    7  C   UNL     1       8.214  28.745  55.377  1.00  0.00     0.018 A 
HETATM    8  C   UNL     1       7.927  28.207  54.116  1.00  0.00     0.038 A 
BRANCH   6   9
HETATM    9  C   UNL     1       7.461  29.748  57.530  1.00  0.00     0.198 A 
HETATM   10  N   UNL     1       8.271  29.119  58.451  1.00  0.00    -0.136 NA
HETATM   11  N   UNL     1       8.314  29.895  59.523  1.00  0.00     0.024 NA
HETATM   12  N   UNL     1       7.538  30.942  59.212  1.00  0.00    -0.196 N 
HETATM   13  C   UNL     1       7.339  32.038  60.120  1.00  0.00     0.200 C 
HETATM   14  N   UNL     1       6.977  30.917  57.990  1.00  0.00    -0.137 NA
ENDBRANCH   6   9
ENDBRANCH   2   3
ENDBRANCH   1   2
BRANCH   1  15
HETATM   15  C   UNL     1       5.466  25.341  52.832  1.00  0.00     0.246 C 
HETATM   16  N   UNL     1       6.783  24.974  53.034  1.00  0.00    -0.325 N 
HETATM   17  H   UNL     1       7.470  25.662  52.742  1.00  0.00     0.169 HD
HETATM   18  O   UNL     1       4.468  24.678  53.104  1.00  0.00    -0.271 OA
BRANCH  16  19
HETATM   19  C   UNL     1       7.271  23.772  53.586  1.00  0.00     0.036 A 
HETATM   20  C   UNL     1       7.482  23.586  54.958  1.00  0.00     0.059 A 
HETATM   21  C   UNL     1       7.971  22.346  55.393  1.00  0.00     0.044 A 
HETATM   22  C   UNL     1       8.256  21.298  54.521  1.00  0.00    -0.008 A 
HETATM   23  N   UNL     1       8.261  21.906  56.666  1.00  0.00    -0.365 N 
HETATM   24  C   UNL     1       8.043  21.493  53.145  1.00  0.00     0.016 A 
HETATM   25  C   UNL     1       8.728  20.213  55.310  1.00  0.00     0.030 A 
HETATM   26  C   UNL     1       7.551  22.729  52.695  1.00  0.00     0.030 A 
HETATM   27  C   UNL     1       8.719  20.615  56.626  1.00  0.00     0.089 A 
HETATM   28  H   UNL     1       8.147  22.463  57.502  1.00  0.00     0.165 HD
ENDBRANCH  16  19
ENDBRANCH   1  15
TORSDOF 5
ENDMDL
MODEL 6
REMARK VINA RESULT:      -9.1      2.106     10.228
REMARK  5 active torsions:
REMARK  status: ('A' for Active; 'I' for Inactive)
REMARK    1  A    between atoms: C_5  and  C_6 
REMARK    2  A    between atoms: C_9  and  O_10 
REMARK    3  A    between atoms: O_10  and  C_11 
REMARK    4  A    between atoms: C_11  and  C_12 
REMARK       I    between atoms: C_12  and  N_13 
REMARK    5  A    between atoms: N_13  and  C_14 
ROOT
HETATM    1  C   UNL     1       8.792  30.572  58.127  1.00  0.00     0.278 C 
ENDROOT
BRANCH   1   2
HETATM    2  O   UNL     1       9.523  30.641  59.349  1.00  0.00    -0.342 OA
BRANCH   2   3
HETATM    3  C   UNL     1       8.840  31.130  60.432  1.00  0.00     0.069 A 
HETATM    4  C   UNL     1       9.384  31.395  61.690  1.00  0.00     0.038 A 
HETATM    5  C   UNL     1       8.576  31.895  62.718  1.00  0.00     0.018 A 
HETATM    6  C   UNL     1       7.212  32.140  62.509  1.00  0.00     0.015 A 
HETATM    7  C   UNL     1       6.673  31.875  61.243  1.00  0.00     0.018 A 
HETATM    8  C   UNL     1       7.482  31.375  60.215  1.00  0.00     0.038 A 
BRANCH   6   9
HETATM    9  C   UNL     1       6.386  32.662  63.590  1.00  0.00     0.198 A 
HETATM   10  N   UNL     1       5.020  32.478  63.638  1.00  0.00    -0.136 NA
HETATM   11  N   UNL     1       4.589  33.068  64.742  1.00  0.00     0.024 NA
HETATM   12  N   UNL     1       5.694  33.577  65.305  1.00  0.00    -0.196 N 
HETATM   13  C   UNL     1       5.653  34.289  66.553  1.00  0.00     0.200 C 
HETATM   14  N   UNL     1       6.844  33.362  64.644  1.00  0.00    -0.137 NA
ENDBRANCH   6   9
ENDBRANCH   2   3
ENDBRANCH   1   2
BRANCH   1  15
HETATM   15  C   UNL     1       8.999  29.253  57.378  1.00  0.00     0.246 C 
HETATM   16  N   UNL     1       7.895  28.422  57.415  1.00  0.00    -0.325 N 
HETATM   17  H   UNL     1       7.106  28.780  57.944  1.00  0.00     0.169 HD
HETATM   18  O   UNL     1      10.063  29.035  56.804  1.00  0.00    -0.271 OA
BRANCH  16  19
HETATM   19  C   UNL     1       7.746  27.154  56.817  1.00  0.00     0.036 A 
HETATM   20  C   UNL     1       7.429  26.975  55.464  1.00  0.00     0.059 A 
HETATM   21  C   UNL     1       7.306  25.665  54.979  1.00  0.00     0.044 A 
HETATM   22  C   UNL     1       7.484  24.541  55.783  1.00  0.00    -0.008 A 
HETATM   23  N   UNL     1       7.008  25.215  53.711  1.00  0.00    -0.365 N 
HETATM   24  C   UNL     1       7.800  24.730  57.140  1.00  0.00     0.016 A 
HETATM   25  C   UNL     1       7.282  23.400  54.959  1.00  0.00     0.030 A 
HETATM   26  C   UNL     1       7.929  26.036  57.639  1.00  0.00     0.030 A 
HETATM   27  C   UNL     1       6.992  23.845  53.689  1.00  0.00     0.089 A 
HETATM   28  H   UNL     1       6.830  25.818  52.920  1.00  0.00     0.165 HD
ENDBRANCH  16  19
ENDBRANCH   1  15
TORSDOF 5
ENDMDL
MODEL 7
REMARK VINA RESULT:      -8.6      8.811     12.258
REMARK  5 active torsions:
REMARK  status: ('A' for Active; 'I' for Inactive)
REMARK    1  A    between atoms: C_5  and  C_6 
REMARK    2  A    between atoms: C_9  and  O_10 
REMARK    3  A    between atoms: O_10  and  C_11 
REMARK    4  A    between atoms: C_11  and  C_12 
REMARK       I    between atoms: C_12  and  N_13 
REMARK    5  A    between atoms: N_13  and  C_14 
ROOT
HETATM    1  C   UNL     1       5.540  26.677  51.751  1.00  0.00     0.278 C 
ENDROOT
BRANCH   1   2
HETATM    2  O   UNL     1       5.603  26.508  50.337  1.00  0.00    -0.342 OA
BRANCH   2   3
HETATM    3  C   UNL     1       4.519  26.955  49.629  1.00  0.00     0.069 A 
HETATM    4  C   UNL     1       3.727  28.058  49.956  1.00  0.00     0.038 A 
HETATM    5  C   UNL     1       2.642  28.414  49.146  1.00  0.00     0.018 A 
HETATM    6  C   UNL     1       2.329  27.677  47.996  1.00  0.00     0.015 A 
HETATM    7  C   UNL     1       3.129  26.574  47.672  1.00  0.00     0.018 A 
HETATM    8  C   UNL     1       4.214  26.219  48.482  1.00  0.00     0.038 A 
BRANCH   6   9
HETATM    9  C   UNL     1       1.196  28.062  47.164  1.00  0.00     0.198 A 
HETATM   10  N   UNL     1       0.065  27.285  47.040  1.00  0.00    -0.136 NA
HETATM   11  N   UNL     1      -0.758  27.925  46.224  1.00  0.00     0.024 NA
HETATM   12  N   UNL     1      -0.099  29.043  45.891  1.00  0.00    -0.196 N 
HETATM   13  C   UNL     1      -0.672  30.034  45.021  1.00  0.00     0.200 C 
HETATM   14  N   UNL     1       1.120  29.194  46.438  1.00  0.00    -0.137 NA
ENDBRANCH   6   9
ENDBRANCH   2   3
ENDBRANCH   1   2
BRANCH   1  15
HETATM   15  C   UNL     1       5.614  25.353  52.517  1.00  0.00     0.246 C 
HETATM   16  N   UNL     1       6.907  24.961  52.810  1.00  0.00    -0.325 N 
HETATM   17  H   UNL     1       7.633  25.583  52.466  1.00  0.00     0.169 HD
HETATM   18  O   UNL     1       4.581  24.766  52.827  1.00  0.00    -0.271 OA
BRANCH  16  19
HETATM   19  C   UNL     1       7.325  23.812  53.514  1.00  0.00     0.036 A 
HETATM   20  C   UNL     1       7.461  23.773  54.907  1.00  0.00     0.059 A 
HETATM   21  C   UNL     1       7.885  22.574  55.499  1.00  0.00     0.044 A 
HETATM   22  C   UNL     1       8.174  21.429  54.761  1.00  0.00    -0.008 A 
HETATM   23  N   UNL     1       8.095  22.269  56.825  1.00  0.00    -0.365 N 
HETATM   24  C   UNL     1       8.036  21.477  53.363  1.00  0.00     0.016 A 
HETATM   25  C   UNL     1       8.568  20.423  55.687  1.00  0.00     0.030 A 
HETATM   26  C   UNL     1       7.611  22.671  52.757  1.00  0.00     0.030 A 
HETATM   27  C   UNL     1       8.509  20.968  56.950  1.00  0.00     0.089 A 
HETATM   28  H   UNL     1       7.961  22.917  57.589  1.00  0.00     0.165 HD
ENDBRANCH  16  19
ENDBRANCH   1  15
TORSDOF 5
ENDMDL
MODEL 8
REMARK VINA RESULT:      -8.6      2.246     10.786
REMARK  5 active torsions:
REMARK  status: ('A' for Active; 'I' for Inactive)
REMARK    1  A    between atoms: C_5  and  C_6 
REMARK    2  A    between atoms: C_9  and  O_10 
REMARK    3  A    between atoms: O_10  and  C_11 
REMARK    4  A    between atoms: C_11  and  C_12 
REMARK       I    between atoms: C_12  and  N_13 
REMARK    5  A    between atoms: N_13  and  C_14 
ROOT
HETATM    1  C   UNL     1       6.741  28.262  56.092  1.00  0.00     0.278 C 
ENDROOT
BRANCH   1   2
HETATM    2  O   UNL     1       7.800  29.132  56.484  1.00  0.00    -0.342 OA
BRANCH   2   3
HETATM    3  C   UNL     1       7.550  29.934  57.567  1.00  0.00     0.069 A 
HETATM    4  C   UNL     1       6.486  30.828  57.694  1.00  0.00     0.038 A 
HETATM    5  C   UNL     1       6.341  31.594  58.857  1.00  0.00     0.018 A 
HETATM    6  C   UNL     1       7.254  31.479  59.914  1.00  0.00     0.015 A 
HETATM    7  C   UNL     1       8.318  30.577  59.782  1.00  0.00     0.018 A 
HETATM    8  C   UNL     1       8.462  29.812  58.618  1.00  0.00     0.038 A 
BRANCH   6   9
HETATM    9  C   UNL     1       7.087  32.283  61.118  1.00  0.00     0.198 A 
HETATM   10  N   UNL     1       6.196  33.331  61.195  1.00  0.00    -0.136 NA
HETATM   11  N   UNL     1       6.294  33.835  62.416  1.00  0.00     0.024 NA
HETATM   12  N   UNL     1       7.227  33.082  63.015  1.00  0.00    -0.196 N 
HETATM   13  C   UNL     1       7.615  33.297  64.382  1.00  0.00     0.200 C 
HETATM   14  N   UNL     1       7.762  32.101  62.268  1.00  0.00    -0.137 NA
ENDBRANCH   6   9
ENDBRANCH   2   3
ENDBRANCH   1   2
BRANCH   1  15
HETATM   15  C   UNL     1       7.164  26.792  56.028  1.00  0.00     0.246 C 
HETATM   16  N   UNL     1       7.022  26.234  54.771  1.00  0.00    -0.325 N 
HETATM   17  H   UNL     1       6.642  26.858  54.065  1.00  0.00     0.169 HD
HETATM   18  O   UNL     1       7.599  26.236  57.033  1.00  0.00    -0.271 OA
BRANCH  16  19
HETATM   19  C   UNL     1       7.334  24.920  54.367  1.00  0.00     0.036 A 
HETATM   20  C   UNL     1       7.349  23.830  55.246  1.00  0.00     0.059 A 
HETATM   21  C   UNL     1       7.674  22.566  54.730  1.00  0.00     0.044 A 
HETATM   22  C   UNL     1       7.983  22.355  53.388  1.00  0.00    -0.008 A 
HETATM   23  N   UNL     1       7.759  21.347  55.365  1.00  0.00    -0.365 N 
HETATM   24  C   UNL     1       7.967  23.455  52.514  1.00  0.00     0.016 A 
HETATM   25  C   UNL     1       8.258  20.967  53.236  1.00  0.00     0.030 A 
HETATM   26  C   UNL     1       7.640  24.726  53.015  1.00  0.00     0.030 A 
HETATM   27  C   UNL     1       8.112  20.372  54.468  1.00  0.00     0.089 A 
HETATM   28  H   UNL     1       7.585  21.203  56.350  1.00  0.00     0.165 HD
ENDBRANCH  16  19
ENDBRANCH   1  15
TORSDOF 5
ENDMDL
MODEL 9
REMARK VINA RESULT:      -8.3      3.592     10.892
REMARK  5 active torsions:
REMARK  status: ('A' for Active; 'I' for Inactive)
REMARK    1  A    between atoms: C_5  and  C_6 
REMARK    2  A    between atoms: C_9  and  O_10 
REMARK    3  A    between atoms: O_10  and  C_11 
REMARK    4  A    between atoms: C_11  and  C_12 
REMARK       I    between atoms: C_12  and  N_13 
REMARK    5  A    between atoms: N_13  and  C_14 
ROOT
HETATM    1  C   UNL     1       5.036  27.147  53.700  1.00  0.00     0.278 C 
ENDROOT
BRANCH   1   2
HETATM    2  O   UNL     1       6.084  27.856  54.355  1.00  0.00    -0.342 OA
BRANCH   2   3
HETATM    3  C   UNL     1       5.692  28.810  55.258  1.00  0.00     0.069 A 
HETATM    4  C   UNL     1       6.542  29.584  56.050  1.00  0.00     0.038 A 
HETATM    5  C   UNL     1       6.014  30.529  56.938  1.00  0.00     0.018 A 
HETATM    6  C   UNL     1       4.630  30.721  57.049  1.00  0.00     0.015 A 
HETATM    7  C   UNL     1       3.783  29.943  56.248  1.00  0.00     0.018 A 
HETATM    8  C   UNL     1       4.312  28.998  55.361  1.00  0.00     0.038 A 
BRANCH   6   9
HETATM    9  C   UNL     1       4.098  31.710  57.977  1.00  0.00     0.198 A 
HETATM   10  N   UNL     1       3.074  32.570  57.641  1.00  0.00    -0.136 NA
HETATM   11  N   UNL     1       2.837  33.323  58.704  1.00  0.00     0.024 NA
HETATM   12  N   UNL     1       3.715  32.895  59.622  1.00  0.00    -0.196 N 
HETATM   13  C   UNL     1       3.766  33.455  60.945  1.00  0.00     0.200 C 
HETATM   14  N   UNL     1       4.529  31.897  59.238  1.00  0.00    -0.137 NA
ENDBRANCH   6   9
ENDBRANCH   2   3
ENDBRANCH   1   2
BRANCH   1  15
HETATM   15  C   UNL     1       5.290  25.639  53.620  1.00  0.00     0.246 C 
HETATM   16  N   UNL     1       6.526  25.265  54.115  1.00  0.00    -0.325 N 
HETATM   17  H   UNL     1       7.106  26.030  54.445  1.00  0.00     0.169 HD
HETATM   18  O   UNL     1       4.424  24.895  53.168  1.00  0.00    -0.271 OA
BRANCH  16  19
HETATM   19  C   UNL     1       7.064  23.964  54.205  1.00  0.00     0.036 A 
HETATM   20  C   UNL     1       7.256  23.296  55.421  1.00  0.00     0.059 A 
HETATM   21  C   UNL     1       7.800  22.003  55.388  1.00  0.00     0.044 A 
HETATM   22  C   UNL     1       8.155  21.362  54.203  1.00  0.00    -0.008 A 
HETATM   23  N   UNL     1       8.085  21.137  56.421  1.00  0.00    -0.365 N 
HETATM   24  C   UNL     1       7.960  22.042  52.988  1.00  0.00     0.016 A 
HETATM   25  C   UNL     1       8.667  20.083  54.556  1.00  0.00     0.030 A 
HETATM   26  C   UNL     1       7.415  23.336  53.005  1.00  0.00     0.030 A 
HETATM   27  C   UNL     1       8.611  19.972  55.927  1.00  0.00     0.089 A 
HETATM   28  H   UNL     1       7.927  21.342  57.397  1.00  0.00     0.165 HD
ENDBRANCH  16  19
ENDBRANCH   1  15
TORSDOF 5
ENDMDL
MODEL 10
REMARK VINA RESULT:      -8.2      2.083      3.227
REMARK  5 active torsions:
REMARK  status: ('A' for Active; 'I' for Inactive)
REMARK    1  A    between atoms: C_5  and  C_6 
REMARK    2  A    between atoms: C_9  and  O_10 
REMARK    3  A    between atoms: O_10  and  C_11 
REMARK    4  A    between atoms: C_11  and  C_12 
REMARK       I    between atoms: C_12  and  N_13 
REMARK    5  A    between atoms: N_13  and  C_14 
ROOT
HETATM    1  C   UNL     1       5.819  29.284  55.664  1.00  0.00     0.278 C 
ENDROOT
BRANCH   1   2
HETATM    2  O   UNL     1       4.922  28.201  55.436  1.00  0.00    -0.342 OA
BRANCH   2   3
HETATM    3  C   UNL     1       5.499  26.971  55.250  1.00  0.00     0.069 A 
HETATM    4  C   UNL     1       5.932  26.111  56.260  1.00  0.00     0.038 A 
HETATM    5  C   UNL     1       6.508  24.876  55.937  1.00  0.00     0.018 A 
HETATM    6  C   UNL     1       6.659  24.478  54.601  1.00  0.00     0.015 A 
HETATM    7  C   UNL     1       6.218  25.345  53.593  1.00  0.00     0.018 A 
HETATM    8  C   UNL     1       5.643  26.580  53.917  1.00  0.00     0.038 A 
BRANCH   6   9
HETATM    9  C   UNL     1       7.259  23.189  54.283  1.00  0.00     0.198 A 
HETATM   10  N   UNL     1       7.523  22.790  52.990  1.00  0.00    -0.136 NA
HETATM   11  N   UNL     1       8.066  21.584  53.060  1.00  0.00     0.024 NA
HETATM   12  N   UNL     1       8.104  21.308  54.371  1.00  0.00    -0.196 N 
HETATM   13  C   UNL     1       8.652  20.078  54.875  1.00  0.00     0.200 C 
HETATM   14  N   UNL     1       7.619  22.260  55.188  1.00  0.00    -0.137 NA
ENDBRANCH   6   9
ENDBRANCH   2   3
ENDBRANCH   1   2
BRANCH   1  15
HETATM   15  C   UNL     1       5.783  29.800  57.105  1.00  0.00     0.246 C 
HETATM   16  N   UNL     1       7.021  30.197  57.577  1.00  0.00    -0.325 N 
HETATM   17  H   UNL     1       7.788  30.079  56.921  1.00  0.00     0.169 HD
HETATM   18  O   UNL     1       4.717  29.847  57.713  1.00  0.00    -0.271 OA
BRANCH  16  19
HETATM   19  C   UNL     1       7.334  30.733  58.843  1.00  0.00     0.036 A 
HETATM   20  C   UNL     1       6.574  31.732  59.463  1.00  0.00     0.059 A 
HETATM   21  C   UNL     1       6.982  32.189  60.725  1.00  0.00     0.044 A 
HETATM   22  C   UNL     1       8.105  31.693  61.382  1.00  0.00    -0.008 A 
HETATM   23  N   UNL     1       6.422  33.147  61.542  1.00  0.00    -0.365 N 
HETATM   24  C   UNL     1       8.863  30.691  60.751  1.00  0.00     0.016 A 
HETATM   25  C   UNL     1       8.206  32.385  62.620  1.00  0.00     0.030 A 
HETATM   26  C   UNL     1       8.466  30.222  59.488  1.00  0.00     0.030 A 
HETATM   27  C   UNL     1       7.156  33.272  62.692  1.00  0.00     0.089 A 
HETATM   28  H   UNL     1       5.591  33.675  61.316  1.00  0.00     0.165 HD
ENDBRANCH  16  19
ENDBRANCH   1  15
TORSDOF 5
ENDMDL
