MODEL 1
REMARK VINA RESULT:      -9.9      0.000      0.000
REMARK  5 active torsions:
REMARK  status: ('A' for Active; 'I' for Inactive)
REMARK    1  A    between atoms: C_4  and  C_5 
REMARK    2  A    between atoms: C_5  and  S_6 
REMARK    3  A    between atoms: S_6  and  C_7 
REMARK    4  A    between atoms: C_9  and  C_10 
REMARK       I    between atoms: C_10  and  N_11 
REMARK    5  A    between atoms: N_11  and  C_12 
ROOT
HETATM    1  C   UNL     1       8.264  31.269  59.704  1.00  0.00     0.189 A 
HETATM    2  N   UNL     1       8.646  30.145  59.080  1.00  0.00    -0.216 NA
HETATM    3  C   UNL     1       7.866  29.744  58.027  1.00  0.00     0.150 A 
HETATM    4  C   UNL     1       6.770  30.454  57.568  1.00  0.00     0.086 A 
HETATM    5 CL   UNL     1       5.778  30.075  56.223  1.00  0.00    -0.080 Cl
HETATM    6  C   UNL     1       6.503  31.602  58.277  1.00  0.00     0.146 A 
HETATM    7  N   UNL     1       7.219  32.023  59.340  1.00  0.00    -0.234 NA
ENDROOT
BRANCH   3   8
HETATM    8  C   UNL     1       8.308  28.443  57.411  1.00  0.00     0.278 C 
HETATM    9  N   UNL     1       7.307  27.494  57.391  1.00  0.00    -0.300 N 
HETATM   10  H   UNL     1       6.396  27.736  57.759  1.00  0.00     0.171 HD
HETATM   11  O   UNL     1       9.445  28.303  56.985  1.00  0.00    -0.265 OA
BRANCH   9  12
HETATM   12  C   UNL     1       7.492  26.237  56.893  1.00  0.00     0.174 A 
HETATM   13  S   UNL     1       7.079  26.068  55.248  1.00  0.00    -0.050 SA
HETATM   14  C   UNL     1       7.498  24.395  55.325  1.00  0.00     0.039 A 
HETATM   15  C   UNL     1       7.946  24.105  56.617  1.00  0.00     0.077 A 
HETATM   16  C   UNL     1       7.438  23.415  54.321  1.00  0.00     0.045 A 
HETATM   17  N   UNL     1       7.928  25.166  57.500  1.00  0.00    -0.223 NA
HETATM   18  C   UNL     1       8.365  22.792  56.913  1.00  0.00     0.035 A 
HETATM   19  C   UNL     1       8.316  21.806  55.922  1.00  0.00     0.026 A 
HETATM   20  C   UNL     1       7.853  22.120  54.648  1.00  0.00     0.035 A 
HETATM   21 CL   UNL     1       7.789  20.889  53.445  1.00  0.00    -0.084 Cl
ENDBRANCH   9  12
ENDBRANCH   3   8
BRANCH   1  22
HETATM   22  S   UNL     1       9.131  31.769  61.158  1.00  0.00    -0.086 SA
BRANCH  22  23
HETATM   23  C   UNL     1       7.877  31.349  62.398  1.00  0.00     0.121 C 
BRANCH  23  24
HETATM   24  C   UNL     1       7.315  32.588  63.048  1.00  0.00    -0.049 A 
HETATM   25  C   UNL     1       7.640  32.911  64.375  1.00  0.00     0.008 A 
HETATM   26  C   UNL     1       7.093  34.043  64.984  1.00  0.00     0.001 A 
HETATM   27  C   UNL     1       6.215  34.862  64.275  1.00  0.00     0.000 A 
HETATM   28  C   UNL     1       5.881  34.550  62.960  1.00  0.00     0.001 A 
HETATM   29  C   UNL     1       6.424  33.418  62.349  1.00  0.00     0.008 A 
ENDBRANCH  23  24
ENDBRANCH  22  23
ENDBRANCH   1  22
TORSDOF 5
ENDMDL
MODEL 2
REMARK VINA RESULT:      -9.9      3.079     10.640
REMARK  5 active torsions:
REMARK  status: ('A' for Active; 'I' for Inactive)
REMARK    1  A    between atoms: C_4  and  C_5 
REMARK    2  A    between atoms: C_5  and  S_6 
REMARK    3  A    between atoms: S_6  and  C_7 
REMARK    4  A    between atoms: C_9  and  C_10 
REMARK       I    between atoms: C_10  and  N_11 
REMARK    5  A    between atoms: N_11  and  C_12 
ROOT
HETATM    1  C   UNL     1       7.694  28.429  57.132  1.00  0.00     0.189 A 
HETATM    2  N   UNL     1       7.205  29.348  57.978  1.00  0.00    -0.216 NA
HETATM    3  C   UNL     1       8.083  30.318  58.387  1.00  0.00     0.150 A 
HETATM    4  C   UNL     1       9.388  30.413  57.939  1.00  0.00     0.086 A 
HETATM    5 CL   UNL     1      10.536  31.624  58.335  1.00  0.00    -0.080 Cl
HETATM    6  C   UNL     1       9.755  29.427  57.052  1.00  0.00     0.146 A 
HETATM    7  N   UNL     1       8.941  28.432  56.643  1.00  0.00    -0.234 NA
ENDROOT
BRANCH   3   8
HETATM    8  C   UNL     1       7.494  31.279  59.386  1.00  0.00     0.278 C 
HETATM    9  N   UNL     1       7.609  30.834  60.687  1.00  0.00    -0.300 N 
HETATM   10  H   UNL     1       8.068  29.950  60.863  1.00  0.00     0.171 HD
HETATM   11  O   UNL     1       6.987  32.330  59.024  1.00  0.00    -0.265 OA
BRANCH   9  12
HETATM   12  C   UNL     1       7.128  31.539  61.753  1.00  0.00     0.174 A 
HETATM   13  S   UNL     1       8.327  32.054  62.849  1.00  0.00    -0.050 SA
HETATM   14  C   UNL     1       7.103  32.767  63.836  1.00  0.00     0.039 A 
HETATM   15  C   UNL     1       5.862  32.568  63.224  1.00  0.00     0.077 A 
HETATM   16  C   UNL     1       7.230  33.453  65.055  1.00  0.00     0.045 A 
HETATM   17  N   UNL     1       5.895  31.858  62.041  1.00  0.00    -0.223 NA
HETATM   18  C   UNL     1       4.706  33.086  63.845  1.00  0.00     0.035 A 
HETATM   19  C   UNL     1       4.818  33.775  65.056  1.00  0.00     0.026 A 
HETATM   20  C   UNL     1       6.065  33.948  65.649  1.00  0.00     0.035 A 
HETATM   21 CL   UNL     1       6.179  34.790  67.148  1.00  0.00    -0.084 Cl
ENDBRANCH   9  12
ENDBRANCH   3   8
BRANCH   1  22
HETATM   22  S   UNL     1       6.670  27.066  56.674  1.00  0.00    -0.086 SA
BRANCH  22  23
HETATM   23  C   UNL     1       7.140  26.928  54.928  1.00  0.00     0.121 C 
BRANCH  23  24
HETATM   24  C   UNL     1       7.382  25.491  54.540  1.00  0.00    -0.049 A 
HETATM   25  C   UNL     1       7.593  25.138  53.198  1.00  0.00     0.008 A 
HETATM   26  C   UNL     1       7.786  23.803  52.838  1.00  0.00     0.001 A 
HETATM   27  C   UNL     1       7.768  22.806  53.813  1.00  0.00     0.000 A 
HETATM   28  C   UNL     1       7.555  23.144  55.148  1.00  0.00     0.001 A 
HETATM   29  C   UNL     1       7.359  24.477  55.511  1.00  0.00     0.008 A 
ENDBRANCH  23  24
ENDBRANCH  22  23
ENDBRANCH   1  22
TORSDOF 5
ENDMDL
MODEL 3
REMARK VINA RESULT:      -9.9      2.950     10.147
REMARK  5 active torsions:
REMARK  status: ('A' for Active; 'I' for Inactive)
REMARK    1  A    between atoms: C_4  and  C_5 
REMARK    2  A    between atoms: C_5  and  S_6 
REMARK    3  A    between atoms: S_6  and  C_7 
REMARK    4  A    between atoms: C_9  and  C_10 
REMARK       I    between atoms: C_10  and  N_11 
REMARK    5  A    between atoms: N_11  and  C_12 
ROOT
HETATM    1  C   UNL     1       6.688  26.873  53.472  1.00  0.00     0.189 A 
HETATM    2  N   UNL     1       6.725  27.205  54.771  1.00  0.00    -0.216 NA
HETATM    3  C   UNL     1       6.062  28.353  55.119  1.00  0.00     0.150 A 
HETATM    4  C   UNL     1       5.340  29.125  54.226  1.00  0.00     0.086 A 
HETATM    5 CL   UNL     1       4.423  30.531  54.575  1.00  0.00    -0.080 Cl
HETATM    6  C   UNL     1       5.358  28.658  52.932  1.00  0.00     0.146 A 
HETATM    7  N   UNL     1       6.022  27.554  52.532  1.00  0.00    -0.234 NA
ENDROOT
BRANCH   3   8
HETATM    8  C   UNL     1       6.196  28.707  56.577  1.00  0.00     0.278 C 
HETATM    9  N   UNL     1       7.126  29.703  56.801  1.00  0.00    -0.300 N 
HETATM   10  H   UNL     1       7.610  30.107  56.010  1.00  0.00     0.171 HD
HETATM   11  O   UNL     1       5.522  28.144  57.425  1.00  0.00    -0.265 OA
BRANCH   9  12
HETATM   12  C   UNL     1       7.420  30.168  58.050  1.00  0.00     0.174 A 
HETATM   13  S   UNL     1       6.374  31.393  58.605  1.00  0.00    -0.050 SA
HETATM   14  C   UNL     1       7.285  31.494  60.068  1.00  0.00     0.039 A 
HETATM   15  C   UNL     1       8.317  30.553  60.018  1.00  0.00     0.077 A 
HETATM   16  C   UNL     1       7.100  32.338  61.175  1.00  0.00     0.045 A 
HETATM   17  N   UNL     1       8.384  29.811  58.856  1.00  0.00    -0.223 NA
HETATM   18  C   UNL     1       9.187  30.438  61.122  1.00  0.00     0.035 A 
HETATM   19  C   UNL     1       9.012  31.269  62.234  1.00  0.00     0.026 A 
HETATM   20  C   UNL     1       7.984  32.206  62.251  1.00  0.00     0.035 A 
HETATM   21 CL   UNL     1       7.793  33.227  63.625  1.00  0.00    -0.084 Cl
ENDBRANCH   9  12
ENDBRANCH   3   8
BRANCH   1  22
HETATM   22  S   UNL     1       7.639  25.490  52.923  1.00  0.00    -0.086 SA
BRANCH  22  23
HETATM   23  C   UNL     1       7.864  24.648  54.513  1.00  0.00     0.121 C 
BRANCH  23  24
HETATM   24  C   UNL     1       7.931  23.152  54.334  1.00  0.00    -0.049 A 
HETATM   25  C   UNL     1       8.081  22.591  53.057  1.00  0.00     0.008 A 
HETATM   26  C   UNL     1       8.111  21.204  52.890  1.00  0.00     0.001 A 
HETATM   27  C   UNL     1       7.990  20.365  53.997  1.00  0.00     0.000 A 
HETATM   28  C   UNL     1       7.835  20.911  55.269  1.00  0.00     0.001 A 
HETATM   29  C   UNL     1       7.802  22.296  55.439  1.00  0.00     0.008 A 
ENDBRANCH  23  24
ENDBRANCH  22  23
ENDBRANCH   1  22
TORSDOF 5
ENDMDL
MODEL 4
REMARK VINA RESULT:      -9.8      3.400     10.216
REMARK  5 active torsions:
REMARK  status: ('A' for Active; 'I' for Inactive)
REMARK    1  A    between atoms: C_4  and  C_5 
REMARK    2  A    between atoms: C_5  and  S_6 
REMARK    3  A    between atoms: S_6  and  C_7 
REMARK    4  A    between atoms: C_9  and  C_10 
REMARK       I    between atoms: C_10  and  N_11 
REMARK    5  A    between atoms: N_11  and  C_12 
ROOT
HETATM    1  C   UNL     1       6.282  26.272  52.478  1.00  0.00     0.189 A 
HETATM    2  N   UNL     1       6.235  26.774  53.720  1.00  0.00    -0.216 NA
HETATM    3  C   UNL     1       5.388  27.835  53.909  1.00  0.00     0.150 A 
HETATM    4  C   UNL     1       4.571  28.354  52.920  1.00  0.00     0.086 A 
HETATM    5 CL   UNL     1       3.432  29.626  53.075  1.00  0.00    -0.080 Cl
HETATM    6  C   UNL     1       4.694  27.729  51.701  1.00  0.00     0.146 A 
HETATM    7  N   UNL     1       5.537  26.705  51.453  1.00  0.00    -0.234 NA
ENDROOT
BRANCH   3   8
HETATM    8  C   UNL     1       5.429  28.397  55.307  1.00  0.00     0.278 C 
HETATM    9  N   UNL     1       6.413  29.351  55.470  1.00  0.00    -0.300 N 
HETATM   10  H   UNL     1       6.991  29.598  54.677  1.00  0.00     0.171 HD
HETATM   11  O   UNL     1       4.645  28.013  56.162  1.00  0.00    -0.265 OA
BRANCH   9  12
HETATM   12  C   UNL     1       6.640  29.979  56.660  1.00  0.00     0.174 A 
HETATM   13  S   UNL     1       7.961  29.357  57.539  1.00  0.00    -0.050 SA
HETATM   14  C   UNL     1       7.646  30.496  58.797  1.00  0.00     0.039 A 
HETATM   15  C   UNL     1       6.553  31.283  58.425  1.00  0.00     0.077 A 
HETATM   16  C   UNL     1       8.315  30.681  60.019  1.00  0.00     0.045 A 
HETATM   17  N   UNL     1       5.986  30.969  57.206  1.00  0.00    -0.223 NA
HETATM   18  C   UNL     1       6.121  32.305  59.297  1.00  0.00     0.035 A 
HETATM   19  C   UNL     1       6.781  32.504  60.514  1.00  0.00     0.026 A 
HETATM   20  C   UNL     1       7.859  31.697  60.865  1.00  0.00     0.035 A 
HETATM   21 CL   UNL     1       8.650  31.951  62.373  1.00  0.00    -0.084 Cl
ENDBRANCH   9  12
ENDBRANCH   3   8
BRANCH   1  22
HETATM   22  S   UNL     1       7.455  25.002  52.120  1.00  0.00    -0.086 SA
BRANCH  22  23
HETATM   23  C   UNL     1       7.933  24.569  53.815  1.00  0.00     0.121 C 
BRANCH  23  24
HETATM   24  C   UNL     1       7.926  23.075  54.020  1.00  0.00    -0.049 A 
HETATM   25  C   UNL     1       7.862  22.530  55.311  1.00  0.00     0.008 A 
HETATM   26  C   UNL     1       7.887  21.146  55.500  1.00  0.00     0.001 A 
HETATM   27  C   UNL     1       7.977  20.293  54.400  1.00  0.00     0.000 A 
HETATM   28  C   UNL     1       8.046  20.822  53.114  1.00  0.00     0.001 A 
HETATM   29  C   UNL     1       8.024  22.205  52.922  1.00  0.00     0.008 A 
ENDBRANCH  23  24
ENDBRANCH  22  23
ENDBRANCH   1  22
TORSDOF 5
ENDMDL
MODEL 5
REMARK VINA RESULT:      -9.7      1.329      1.761
REMARK  5 active torsions:
REMARK  status: ('A' for Active; 'I' for Inactive)
REMARK    1  A    between atoms: C_4  and  C_5 
REMARK    2  A    between atoms: C_5  and  S_6 
REMARK    3  A    between atoms: S_6  and  C_7 
REMARK    4  A    between atoms: C_9  and  C_10 
REMARK       I    between atoms: C_10  and  N_11 
REMARK    5  A    between atoms: N_11  and  C_12 
ROOT
HETATM    1  C   UNL     1       7.859  31.592  59.076  1.00  0.00     0.189 A 
HETATM    2  N   UNL     1       8.255  30.630  58.229  1.00  0.00    -0.216 NA
HETATM    3  C   UNL     1       7.327  30.218  57.308  1.00  0.00     0.150 A 
HETATM    4  C   UNL     1       6.064  30.771  57.189  1.00  0.00     0.086 A 
HETATM    5 CL   UNL     1       4.863  30.376  56.031  1.00  0.00    -0.080 Cl
HETATM    6  C   UNL     1       5.795  31.768  58.097  1.00  0.00     0.146 A 
HETATM    7  N   UNL     1       6.661  32.187  59.044  1.00  0.00    -0.234 NA
ENDROOT
BRANCH   3   8
HETATM    8  C   UNL     1       7.807  29.092  56.431  1.00  0.00     0.278 C 
HETATM    9  N   UNL     1       6.959  28.003  56.447  1.00  0.00    -0.300 N 
HETATM   10  H   UNL     1       6.117  28.048  57.006  1.00  0.00     0.171 HD
HETATM   11  O   UNL     1       8.843  29.192  55.792  1.00  0.00    -0.265 OA
BRANCH   9  12
HETATM   12  C   UNL     1       7.209  26.864  55.738  1.00  0.00     0.174 A 
HETATM   13  S   UNL     1       7.746  25.554  56.686  1.00  0.00    -0.050 SA
HETATM   14  C   UNL     1       7.873  24.589  55.259  1.00  0.00     0.039 A 
HETATM   15  C   UNL     1       7.468  25.355  54.163  1.00  0.00     0.077 A 
HETATM   16  C   UNL     1       8.297  23.257  55.121  1.00  0.00     0.045 A 
HETATM   17  N   UNL     1       7.100  26.653  54.454  1.00  0.00    -0.223 NA
HETATM   18  C   UNL     1       7.469  24.764  52.882  1.00  0.00     0.035 A 
HETATM   19  C   UNL     1       7.883  23.437  52.729  1.00  0.00     0.026 A 
HETATM   20  C   UNL     1       8.294  22.702  53.837  1.00  0.00     0.035 A 
HETATM   21 CL   UNL     1       8.811  21.073  53.626  1.00  0.00    -0.084 Cl
ENDBRANCH   9  12
ENDBRANCH   3   8
BRANCH   1  22
HETATM   22  S   UNL     1       8.946  32.072  60.382  1.00  0.00    -0.086 SA
BRANCH  22  23
HETATM   23  C   UNL     1       8.261  31.049  61.713  1.00  0.00     0.121 C 
BRANCH  23  24
HETATM   24  C   UNL     1       7.469  31.883  62.689  1.00  0.00    -0.049 A 
HETATM   25  C   UNL     1       8.120  32.711  63.617  1.00  0.00     0.008 A 
HETATM   26  C   UNL     1       7.385  33.458  64.540  1.00  0.00     0.001 A 
HETATM   27  C   UNL     1       5.992  33.384  64.547  1.00  0.00     0.000 A 
HETATM   28  C   UNL     1       5.335  32.563  63.634  1.00  0.00     0.001 A 
HETATM   29  C   UNL     1       6.067  31.812  62.713  1.00  0.00     0.008 A 
ENDBRANCH  23  24
ENDBRANCH  22  23
ENDBRANCH   1  22
TORSDOF 5
ENDMDL
MODEL 6
REMARK VINA RESULT:      -9.4      5.180      9.583
REMARK  5 active torsions:
REMARK  status: ('A' for Active; 'I' for Inactive)
REMARK    1  A    between atoms: C_4  and  C_5 
REMARK    2  A    between atoms: C_5  and  S_6 
REMARK    3  A    between atoms: S_6  and  C_7 
REMARK    4  A    between atoms: C_9  and  C_10 
REMARK       I    between atoms: C_10  and  N_11 
REMARK    5  A    between atoms: N_11  and  C_12 
ROOT
HETATM    1  C   UNL     1       7.935  26.147  56.711  1.00  0.00     0.189 A 
HETATM    2  N   UNL     1       7.153  26.341  55.639  1.00  0.00    -0.216 NA
HETATM    3  C   UNL     1       6.566  27.575  55.536  1.00  0.00     0.150 A 
HETATM    4  C   UNL     1       6.781  28.606  56.433  1.00  0.00     0.086 A 
HETATM    5 CL   UNL     1       6.152  30.199  56.352  1.00  0.00    -0.080 Cl
HETATM    6  C   UNL     1       7.626  28.287  57.470  1.00  0.00     0.146 A 
HETATM    7  N   UNL     1       8.203  27.079  57.635  1.00  0.00    -0.234 NA
ENDROOT
BRANCH   3   8
HETATM    8  C   UNL     1       5.648  27.707  54.349  1.00  0.00     0.278 C 
HETATM    9  N   UNL     1       6.316  27.612  53.145  1.00  0.00    -0.300 N 
HETATM   10  H   UNL     1       7.315  27.454  53.151  1.00  0.00     0.171 HD
HETATM   11  O   UNL     1       4.447  27.874  54.498  1.00  0.00    -0.265 OA
BRANCH   9  12
HETATM   12  C   UNL     1       5.683  27.721  51.940  1.00  0.00     0.174 A 
HETATM   13  S   UNL     1       5.307  29.321  51.490  1.00  0.00    -0.050 SA
HETATM   14  C   UNL     1       4.575  28.730  50.043  1.00  0.00     0.039 A 
HETATM   15  C   UNL     1       4.700  27.338  50.014  1.00  0.00     0.077 A 
HETATM   16  C   UNL     1       3.941  29.441  49.010  1.00  0.00     0.045 A 
HETATM   17  N   UNL     1       5.327  26.779  51.109  1.00  0.00    -0.223 NA
HETATM   18  C   UNL     1       4.187  26.632  48.906  1.00  0.00     0.035 A 
HETATM   19  C   UNL     1       3.559  27.327  47.868  1.00  0.00     0.026 A 
HETATM   20  C   UNL     1       3.437  28.712  47.929  1.00  0.00     0.035 A 
HETATM   21 CL   UNL     1       2.649  29.548  46.646  1.00  0.00    -0.084 Cl
ENDBRANCH   9  12
ENDBRANCH   3   8
BRANCH   1  22
HETATM   22  S   UNL     1       8.609  24.540  56.991  1.00  0.00    -0.086 SA
BRANCH  22  23
HETATM   23  C   UNL     1       7.195  23.540  56.453  1.00  0.00     0.121 C 
BRANCH  23  24
HETATM   24  C   UNL     1       7.570  22.639  55.303  1.00  0.00    -0.049 A 
HETATM   25  C   UNL     1       7.687  23.152  54.002  1.00  0.00     0.008 A 
HETATM   26  C   UNL     1       8.003  22.309  52.933  1.00  0.00     0.001 A 
HETATM   27  C   UNL     1       8.204  20.947  53.153  1.00  0.00     0.000 A 
HETATM   28  C   UNL     1       8.087  20.426  54.440  1.00  0.00     0.001 A 
HETATM   29  C   UNL     1       7.767  21.265  55.509  1.00  0.00     0.008 A 
ENDBRANCH  23  24
ENDBRANCH  22  23
ENDBRANCH   1  22
TORSDOF 5
ENDMDL
MODEL 7
REMARK VINA RESULT:      -9.3      2.900      3.176
REMARK  5 active torsions:
REMARK  status: ('A' for Active; 'I' for Inactive)
REMARK    1  A    between atoms: C_4  and  C_5 
REMARK    2  A    between atoms: C_5  and  S_6 
REMARK    3  A    between atoms: S_6  and  C_7 
REMARK    4  A    between atoms: C_9  and  C_10 
REMARK       I    between atoms: C_10  and  N_11 
REMARK    5  A    between atoms: N_11  and  C_12 
ROOT
HETATM    1  C   UNL     1       8.015  31.738  59.776  1.00  0.00     0.189 A 
HETATM    2  N   UNL     1       7.709  30.641  59.068  1.00  0.00    -0.216 NA
HETATM    3  C   UNL     1       8.676  30.190  58.208  1.00  0.00     0.150 A 
HETATM    4  C   UNL     1       9.927  30.768  58.085  1.00  0.00     0.086 A 
HETATM    5 CL   UNL     1      11.223  30.238  57.096  1.00  0.00    -0.080 Cl
HETATM    6  C   UNL     1      10.123  31.867  58.888  1.00  0.00     0.146 A 
HETATM    7  N   UNL     1       9.193  32.372  59.726  1.00  0.00    -0.234 NA
ENDROOT
BRANCH   3   8
HETATM    8  C   UNL     1       8.248  28.997  57.394  1.00  0.00     0.278 C 
HETATM    9  N   UNL     1       7.964  29.319  56.083  1.00  0.00    -0.300 N 
HETATM   10  H   UNL     1       8.072  30.279  55.780  1.00  0.00     0.171 HD
HETATM   11  O   UNL     1       8.184  27.884  57.895  1.00  0.00    -0.265 OA
BRANCH   9  12
HETATM   12  C   UNL     1       7.541  28.395  55.171  1.00  0.00     0.174 A 
HETATM   13  S   UNL     1       5.853  28.162  55.143  1.00  0.00    -0.050 SA
HETATM   14  C   UNL     1       6.051  26.965  53.914  1.00  0.00     0.039 A 
HETATM   15  C   UNL     1       7.410  26.857  53.608  1.00  0.00     0.077 A 
HETATM   16  C   UNL     1       5.078  26.184  53.268  1.00  0.00     0.045 A 
HETATM   17  N   UNL     1       8.247  27.674  54.342  1.00  0.00    -0.223 NA
HETATM   18  C   UNL     1       7.813  25.947  52.609  1.00  0.00     0.035 A 
HETATM   19  C   UNL     1       6.855  25.166  51.953  1.00  0.00     0.026 A 
HETATM   20  C   UNL     1       5.510  25.285  52.287  1.00  0.00     0.035 A 
HETATM   21 CL   UNL     1       4.348  24.306  51.476  1.00  0.00    -0.084 Cl
ENDBRANCH   9  12
ENDBRANCH   3   8
BRANCH   1  22
HETATM   22  S   UNL     1       6.770  32.465  60.795  1.00  0.00    -0.086 SA
BRANCH  22  23
HETATM   23  C   UNL     1       7.227  31.717  62.382  1.00  0.00     0.121 C 
BRANCH  23  24
HETATM   24  C   UNL     1       6.713  32.536  63.540  1.00  0.00    -0.049 A 
HETATM   25  C   UNL     1       5.334  32.707  63.739  1.00  0.00     0.008 A 
HETATM   26  C   UNL     1       4.862  33.492  64.793  1.00  0.00     0.001 A 
HETATM   27  C   UNL     1       5.761  34.115  65.658  1.00  0.00     0.000 A 
HETATM   28  C   UNL     1       7.131  33.956  65.468  1.00  0.00     0.001 A 
HETATM   29  C   UNL     1       7.607  33.175  64.413  1.00  0.00     0.008 A 
ENDBRANCH  23  24
ENDBRANCH  22  23
ENDBRANCH   1  22
TORSDOF 5
ENDMDL
MODEL 8
REMARK VINA RESULT:      -9.2      2.610      3.539
REMARK  5 active torsions:
REMARK  status: ('A' for Active; 'I' for Inactive)
REMARK    1  A    between atoms: C_4  and  C_5 
REMARK    2  A    between atoms: C_5  and  S_6 
REMARK    3  A    between atoms: S_6  and  C_7 
REMARK    4  A    between atoms: C_9  and  C_10 
REMARK       I    between atoms: C_10  and  N_11 
REMARK    5  A    between atoms: N_11  and  C_12 
ROOT
HETATM    1  C   UNL     1       5.184  31.025  56.634  1.00  0.00     0.189 A 
HETATM    2  N   UNL     1       5.909  29.973  56.228  1.00  0.00    -0.216 NA
HETATM    3  C   UNL     1       5.429  29.292  55.140  1.00  0.00     0.150 A 
HETATM    4  C   UNL     1       4.297  29.665  54.438  1.00  0.00     0.086 A 
HETATM    5 CL   UNL     1       3.658  28.925  53.030  1.00  0.00    -0.080 Cl
HETATM    6  C   UNL     1       3.663  30.778  54.938  1.00  0.00     0.146 A 
HETATM    7  N   UNL     1       4.075  31.464  56.025  1.00  0.00    -0.234 NA
ENDROOT
BRANCH   3   8
HETATM    8  C   UNL     1       6.250  28.082  54.776  1.00  0.00     0.278 C 
HETATM    9  N   UNL     1       5.580  26.896  54.995  1.00  0.00    -0.300 N 
HETATM   10  H   UNL     1       4.633  26.928  55.352  1.00  0.00     0.171 HD
HETATM   11  O   UNL     1       7.381  28.202  54.332  1.00  0.00    -0.265 OA
BRANCH   9  12
HETATM   12  C   UNL     1       6.141  25.676  54.750  1.00  0.00     0.174 A 
HETATM   13  S   UNL     1       6.438  24.750  56.149  1.00  0.00    -0.050 SA
HETATM   14  C   UNL     1       7.107  23.499  55.165  1.00  0.00     0.039 A 
HETATM   15  C   UNL     1       7.027  23.892  53.826  1.00  0.00     0.077 A 
HETATM   16  C   UNL     1       7.659  22.265  55.547  1.00  0.00     0.045 A 
HETATM   17  N   UNL     1       6.480  25.141  53.609  1.00  0.00    -0.223 NA
HETATM   18  C   UNL     1       7.500  23.013  52.830  1.00  0.00     0.035 A 
HETATM   19  C   UNL     1       8.047  21.778  53.194  1.00  0.00     0.026 A 
HETATM   20  C   UNL     1       8.126  21.419  54.536  1.00  0.00     0.035 A 
HETATM   21 CL   UNL     1       8.813  19.899  54.965  1.00  0.00    -0.084 Cl
ENDBRANCH   9  12
ENDBRANCH   3   8
BRANCH   1  22
HETATM   22  S   UNL     1       5.657  31.863  58.114  1.00  0.00    -0.086 SA
BRANCH  22  23
HETATM   23  C   UNL     1       7.148  30.912  58.516  1.00  0.00     0.121 C 
BRANCH  23  24
HETATM   24  C   UNL     1       7.701  31.308  59.862  1.00  0.00    -0.049 A 
HETATM   25  C   UNL     1       8.843  30.677  60.380  1.00  0.00     0.008 A 
HETATM   26  C   UNL     1       9.334  31.024  61.641  1.00  0.00     0.001 A 
HETATM   27  C   UNL     1       8.691  32.002  62.397  1.00  0.00     0.000 A 
HETATM   28  C   UNL     1       7.554  32.633  61.895  1.00  0.00     0.001 A 
HETATM   29  C   UNL     1       7.058  32.286  60.637  1.00  0.00     0.008 A 
ENDBRANCH  23  24
ENDBRANCH  22  23
ENDBRANCH   1  22
TORSDOF 5
ENDMDL
MODEL 9
REMARK VINA RESULT:      -8.9      2.365      2.803
REMARK  5 active torsions:
REMARK  status: ('A' for Active; 'I' for Inactive)
REMARK    1  A    between atoms: C_4  and  C_5 
REMARK    2  A    between atoms: C_5  and  S_6 
REMARK    3  A    between atoms: S_6  and  C_7 
REMARK    4  A    between atoms: C_9  and  C_10 
REMARK       I    between atoms: C_10  and  N_11 
REMARK    5  A    between atoms: N_11  and  C_12 
ROOT
HETATM    1  C   UNL     1       4.217  31.758  58.105  1.00  0.00     0.189 A 
HETATM    2  N   UNL     1       5.021  30.775  57.674  1.00  0.00    -0.216 NA
HETATM    3  C   UNL     1       4.754  30.281  56.424  1.00  0.00     0.150 A 
HETATM    4  C   UNL     1       3.758  30.774  55.600  1.00  0.00     0.086 A 
HETATM    5 CL   UNL     1       3.393  30.274  54.001  1.00  0.00    -0.080 Cl
HETATM    6  C   UNL     1       3.026  31.801  56.149  1.00  0.00     0.146 A 
HETATM    7  N   UNL     1       3.227  32.300  57.386  1.00  0.00    -0.234 NA
ENDROOT
BRANCH   3   8
HETATM    8  C   UNL     1       5.647  29.136  56.026  1.00  0.00     0.278 C 
HETATM    9  N   UNL     1       4.983  27.927  55.992  1.00  0.00    -0.300 N 
HETATM   10  H   UNL     1       3.996  27.905  56.213  1.00  0.00     0.171 HD
HETATM   11  O   UNL     1       6.827  29.320  55.765  1.00  0.00    -0.265 OA
BRANCH   9  12
HETATM   12  C   UNL     1       5.603  26.754  55.672  1.00  0.00     0.174 A 
HETATM   13  S   UNL     1       5.518  26.346  54.020  1.00  0.00    -0.050 SA
HETATM   14  C   UNL     1       6.391  24.892  54.346  1.00  0.00     0.039 A 
HETATM   15  C   UNL     1       6.697  24.849  55.708  1.00  0.00     0.077 A 
HETATM   16  C   UNL     1       6.776  23.869  53.464  1.00  0.00     0.045 A 
HETATM   17  N   UNL     1       6.232  25.916  56.452  1.00  0.00    -0.223 NA
HETATM   18  C   UNL     1       7.430  23.753  56.207  1.00  0.00     0.035 A 
HETATM   19  C   UNL     1       7.826  22.729  55.340  1.00  0.00     0.026 A 
HETATM   20  C   UNL     1       7.496  22.791  53.990  1.00  0.00     0.035 A 
HETATM   21 CL   UNL     1       7.983  21.515  52.941  1.00  0.00    -0.084 Cl
ENDBRANCH   9  12
ENDBRANCH   3   8
BRANCH   1  22
HETATM   22  S   UNL     1       4.405  32.345  59.760  1.00  0.00    -0.086 SA
BRANCH  22  23
HETATM   23  C   UNL     1       6.216  32.359  59.853  1.00  0.00     0.121 C 
BRANCH  23  24
HETATM   24  C   UNL     1       6.688  32.659  61.255  1.00  0.00    -0.049 A 
HETATM   25  C   UNL     1       7.815  32.011  61.784  1.00  0.00     0.008 A 
HETATM   26  C   UNL     1       8.230  32.267  63.093  1.00  0.00     0.001 A 
HETATM   27  C   UNL     1       7.524  33.171  63.886  1.00  0.00     0.000 A 
HETATM   28  C   UNL     1       6.402  33.817  63.373  1.00  0.00     0.001 A 
HETATM   29  C   UNL     1       5.982  33.561  62.066  1.00  0.00     0.008 A 
ENDBRANCH  23  24
ENDBRANCH  22  23
ENDBRANCH   1  22
TORSDOF 5
ENDMDL
MODEL 10
REMARK VINA RESULT:      -8.8      6.411      9.695
REMARK  5 active torsions:
REMARK  status: ('A' for Active; 'I' for Inactive)
REMARK    1  A    between atoms: C_4  and  C_5 
REMARK    2  A    between atoms: C_5  and  S_6 
REMARK    3  A    between atoms: S_6  and  C_7 
REMARK    4  A    between atoms: C_9  and  C_10 
REMARK       I    between atoms: C_10  and  N_11 
REMARK    5  A    between atoms: N_11  and  C_12 
ROOT
HETATM    1  C   UNL     1       3.628  29.910  51.945  1.00  0.00     0.189 A 
HETATM    2  N   UNL     1       4.481  28.899  52.165  1.00  0.00    -0.216 NA
HETATM    3  C   UNL     1       4.883  28.720  53.462  1.00  0.00     0.150 A 
HETATM    4  C   UNL     1       4.419  29.478  54.523  1.00  0.00     0.086 A 
HETATM    5 CL   UNL     1       4.805  29.287  56.182  1.00  0.00    -0.080 Cl
HETATM    6  C   UNL     1       3.527  30.462  54.166  1.00  0.00     0.146 A 
HETATM    7  N   UNL     1       3.125  30.701  52.901  1.00  0.00    -0.234 NA
ENDROOT
BRANCH   3   8
HETATM    8  C   UNL     1       5.891  27.613  53.633  1.00  0.00     0.278 C 
HETATM    9  N   UNL     1       5.304  26.372  53.771  1.00  0.00    -0.300 N 
HETATM   10  H   UNL     1       4.295  26.301  53.734  1.00  0.00     0.171 HD
HETATM   11  O   UNL     1       7.089  27.850  53.636  1.00  0.00    -0.265 OA
BRANCH   9  12
HETATM   12  C   UNL     1       6.028  25.230  53.954  1.00  0.00     0.174 A 
HETATM   13  S   UNL     1       6.354  24.864  55.586  1.00  0.00    -0.050 SA
HETATM   14  C   UNL     1       7.235  23.466  55.085  1.00  0.00     0.039 A 
HETATM   15  C   UNL     1       7.188  23.383  53.690  1.00  0.00     0.077 A 
HETATM   16  C   UNL     1       7.914  22.514  55.864  1.00  0.00     0.045 A 
HETATM   17  N   UNL     1       6.502  24.403  53.061  1.00  0.00    -0.223 NA
HETATM   18  C   UNL     1       7.827  22.301  53.051  1.00  0.00     0.035 A 
HETATM   19  C   UNL     1       8.503  21.343  53.813  1.00  0.00     0.026 A 
HETATM   20  C   UNL     1       8.545  21.458  55.200  1.00  0.00     0.035 A 
HETATM   21 CL   UNL     1       9.391  20.273  56.120  1.00  0.00    -0.084 Cl
ENDBRANCH   9  12
ENDBRANCH   3   8
BRANCH   1  22
HETATM   22  S   UNL     1       3.179  30.296  50.282  1.00  0.00    -0.086 SA
BRANCH  22  23
HETATM   23  C   UNL     1       1.820  29.114  50.071  1.00  0.00     0.121 C 
BRANCH  23  24
HETATM   24  C   UNL     1       2.162  28.068  49.040  1.00  0.00    -0.049 A 
HETATM   25  C   UNL     1       3.433  27.472  49.019  1.00  0.00     0.008 A 
HETATM   26  C   UNL     1       3.757  26.526  48.044  1.00  0.00     0.001 A 
HETATM   27  C   UNL     1       2.817  26.167  47.079  1.00  0.00     0.000 A 
HETATM   28  C   UNL     1       1.554  26.755  47.087  1.00  0.00     0.001 A 
HETATM   29  C   UNL     1       1.228  27.703  48.058  1.00  0.00     0.008 A 
ENDBRANCH  23  24
ENDBRANCH  22  23
ENDBRANCH   1  22
TORSDOF 5
ENDMDL
