MODEL 1
REMARK VINA RESULT:      -8.1      0.000      0.000
REMARK  4 active torsions:
REMARK  status: ('A' for Active; 'I' for Inactive)
REMARK    1  A    between atoms: O_2  and  C_3 
REMARK    2  A    between atoms: C_4  and  O_5 
REMARK    3  A    between atoms: C_9  and  N_10 
REMARK    4  A    between atoms: N_10  and  C_11 
ROOT
HETATM    1  C   UNL     1       5.880  33.712  65.574  1.00  0.00     0.102 A 
HETATM    2  C   UNL     1       4.910  33.620  64.569  1.00  0.00     0.118 A 
HETATM    3  C   UNL     1       5.340  33.287  63.288  1.00  0.00     0.085 A 
HETATM    4  C   UNL     1       6.673  33.079  62.974  1.00  0.00     0.005 A 
HETATM    5  C   UNL     1       6.795  32.753  61.538  1.00  0.00     0.245 A 
HETATM    6  O   UNL     1       5.441  32.798  61.066  1.00  0.00    -0.291 OA
HETATM    7  C   UNL     1       4.559  33.095  62.072  1.00  0.00     0.298 A 
HETATM    8  O   UNL     1       3.361  33.154  61.903  1.00  0.00    -0.259 OA
HETATM    9  C   UNL     1       7.647  33.211  63.947  1.00  0.00     0.015 A 
HETATM   10  C   UNL     1       7.241  33.531  65.245  1.00  0.00     0.040 A 
ENDROOT
BRANCH   5  11
HETATM   11  N   UNL     1       7.349  31.426  61.339  1.00  0.00    -0.248 NA
HETATM   12  H   UNL     1       7.845  31.118  62.175  1.00  0.00     0.132 HD
BRANCH  11  13
HETATM   13  C   UNL     1       8.042  31.103  60.177  1.00  0.00     0.082 A 
HETATM   14  N   UNL     1       7.751  29.997  59.466  1.00  0.00    -0.355 N 
HETATM   15  H   UNL     1       6.983  29.410  59.799  1.00  0.00     0.166 HD
HETATM   16  C   UNL     1       8.442  29.599  58.386  1.00  0.00     0.108 A 
HETATM   17  C   UNL     1       9.538  30.332  57.960  1.00  0.00     0.026 A 
HETATM   18 BR   UNL     1      10.514  29.784  56.445  1.00  0.00    -0.050 Br
HETATM   19  C   UNL     1       9.917  31.459  58.675  1.00  0.00     0.024 A 
HETATM   20  C   UNL     1       9.176  31.834  59.798  1.00  0.00     0.043 A 
ENDBRANCH  11  13
ENDBRANCH   5  11
BRANCH   2  21
HETATM   21  O   UNL     1       3.584  33.783  64.833  1.00  0.00    -0.352 OA
HETATM   22  C   UNL     1       3.205  35.161  64.881  1.00  0.00     0.210 C 
ENDBRANCH   2  21
BRANCH   1  23
HETATM   23  O   UNL     1       5.686  34.013  66.894  1.00  0.00    -0.353 OA
HETATM   24  C   UNL     1       6.832  34.360  67.665  1.00  0.00     0.210 C 
ENDBRANCH   1  23
TORSDOF 4
ENDMDL
MODEL 2
REMARK VINA RESULT:      -7.9     10.673     12.867
REMARK  4 active torsions:
REMARK  status: ('A' for Active; 'I' for Inactive)
REMARK    1  A    between atoms: O_2  and  C_3 
REMARK    2  A    between atoms: C_4  and  O_5 
REMARK    3  A    between atoms: C_9  and  N_10 
REMARK    4  A    between atoms: N_10  and  C_11 
ROOT
HETATM    1  C   UNL     1       8.006  22.882  53.741  1.00  0.00     0.102 A 
HETATM    2  C   UNL     1       7.343  23.350  54.880  1.00  0.00     0.118 A 
HETATM    3  C   UNL     1       6.631  24.540  54.767  1.00  0.00     0.085 A 
HETATM    4  C   UNL     1       6.583  25.278  53.597  1.00  0.00     0.005 A 
HETATM    5  C   UNL     1       5.756  26.484  53.808  1.00  0.00     0.245 A 
HETATM    6  O   UNL     1       5.348  26.377  55.179  1.00  0.00    -0.291 OA
HETATM    7  C   UNL     1       5.832  25.238  55.769  1.00  0.00     0.298 A 
HETATM    8  O   UNL     1       5.586  24.932  56.914  1.00  0.00    -0.259 OA
HETATM    9  C   UNL     1       7.270  24.851  52.475  1.00  0.00     0.015 A 
HETATM   10  C   UNL     1       7.983  23.651  52.557  1.00  0.00     0.040 A 
ENDROOT
BRANCH   5  11
HETATM   11  N   UNL     1       4.592  26.490  52.940  1.00  0.00    -0.248 NA
HETATM   12  H   UNL     1       4.100  25.600  52.998  1.00  0.00     0.132 HD
BRANCH  11  13
HETATM   13  C   UNL     1       4.675  26.952  51.630  1.00  0.00     0.082 A 
HETATM   14  N   UNL     1       4.395  26.156  50.581  1.00  0.00    -0.355 N 
HETATM   15  H   UNL     1       4.094  25.199  50.782  1.00  0.00     0.166 HD
HETATM   16  C   UNL     1       4.538  26.528  49.300  1.00  0.00     0.108 A 
HETATM   17  C   UNL     1       5.022  27.791  48.998  1.00  0.00     0.026 A 
HETATM   18 BR   UNL     1       5.226  28.326  47.204  1.00  0.00    -0.050 Br
HETATM   19  C   UNL     1       5.371  28.646  50.035  1.00  0.00     0.024 A 
HETATM   20  C   UNL     1       5.214  28.217  51.355  1.00  0.00     0.043 A 
ENDBRANCH  11  13
ENDBRANCH   5  11
BRANCH   2  21
HETATM   21  O   UNL     1       7.333  22.645  56.046  1.00  0.00    -0.352 OA
HETATM   22  C   UNL     1       8.472  22.929  56.863  1.00  0.00     0.210 C 
ENDBRANCH   2  21
BRANCH   1  23
HETATM   23  O   UNL     1       8.752  21.741  53.620  1.00  0.00    -0.353 OA
HETATM   24  C   UNL     1       8.098  20.577  53.125  1.00  0.00     0.210 C 
ENDBRANCH   1  23
TORSDOF 4
ENDMDL
MODEL 3
REMARK VINA RESULT:      -7.8      5.340      7.654
REMARK  4 active torsions:
REMARK  status: ('A' for Active; 'I' for Inactive)
REMARK    1  A    between atoms: O_2  and  C_3 
REMARK    2  A    between atoms: C_4  and  O_5 
REMARK    3  A    between atoms: C_9  and  N_10 
REMARK    4  A    between atoms: N_10  and  C_11 
ROOT
HETATM    1  C   UNL     1       8.639  31.102  58.519  1.00  0.00     0.102 A 
HETATM    2  C   UNL     1       7.336  30.638  58.310  1.00  0.00     0.118 A 
HETATM    3  C   UNL     1       7.185  29.398  57.698  1.00  0.00     0.085 A 
HETATM    4  C   UNL     1       8.259  28.636  57.269  1.00  0.00     0.005 A 
HETATM    5  C   UNL     1       7.764  27.386  56.656  1.00  0.00     0.245 A 
HETATM    6  O   UNL     1       6.338  27.500  56.765  1.00  0.00    -0.291 OA
HETATM    7  C   UNL     1       5.964  28.664  57.386  1.00  0.00     0.298 A 
HETATM    8  O   UNL     1       4.809  28.950  57.609  1.00  0.00    -0.259 OA
HETATM    9  C   UNL     1       9.552  29.102  57.428  1.00  0.00     0.015 A 
HETATM   10  C   UNL     1       9.732  30.339  58.053  1.00  0.00     0.040 A 
ENDROOT
BRANCH   5  11
HETATM   11  N   UNL     1       8.228  26.218  57.383  1.00  0.00    -0.248 NA
HETATM   12  H   UNL     1       9.161  26.380  57.760  1.00  0.00     0.132 HD
BRANCH  11  13
HETATM   13  C   UNL     1       8.101  24.941  56.846  1.00  0.00     0.082 A 
HETATM   14  N   UNL     1       8.392  23.840  57.565  1.00  0.00    -0.355 N 
HETATM   15  H   UNL     1       8.691  23.975  58.534  1.00  0.00     0.166 HD
HETATM   16  C   UNL     1       8.364  22.594  57.069  1.00  0.00     0.108 A 
HETATM   17  C   UNL     1       8.041  22.388  55.737  1.00  0.00     0.026 A 
HETATM   18 BR   UNL     1       7.997  20.643  55.030  1.00  0.00    -0.050 Br
HETATM   19  C   UNL     1       7.772  23.485  54.930  1.00  0.00     0.024 A 
HETATM   20  C   UNL     1       7.820  24.767  55.483  1.00  0.00     0.043 A 
ENDBRANCH  11  13
ENDBRANCH   5  11
BRANCH   2  21
HETATM   21  O   UNL     1       6.248  31.334  58.742  1.00  0.00    -0.352 OA
HETATM   22  C   UNL     1       5.760  32.248  57.757  1.00  0.00     0.210 C 
ENDBRANCH   2  21
BRANCH   1  23
HETATM   23  O   UNL     1       9.021  32.277  59.106  1.00  0.00    -0.353 OA
HETATM   24  C   UNL     1       9.266  32.263  60.509  1.00  0.00     0.210 C 
ENDBRANCH   1  23
TORSDOF 4
ENDMDL
MODEL 4
REMARK VINA RESULT:      -7.8      6.664     10.637
REMARK  4 active torsions:
REMARK  status: ('A' for Active; 'I' for Inactive)
REMARK    1  A    between atoms: O_2  and  C_3 
REMARK    2  A    between atoms: C_4  and  O_5 
REMARK    3  A    between atoms: C_9  and  N_10 
REMARK    4  A    between atoms: N_10  and  C_11 
ROOT
HETATM    1  C   UNL     1       8.441  23.272  55.983  1.00  0.00     0.102 A 
HETATM    2  C   UNL     1       7.452  23.760  55.122  1.00  0.00     0.118 A 
HETATM    3  C   UNL     1       7.002  25.061  55.330  1.00  0.00     0.085 A 
HETATM    4  C   UNL     1       7.469  25.861  56.360  1.00  0.00     0.005 A 
HETATM    5  C   UNL     1       6.789  27.172  56.312  1.00  0.00     0.245 A 
HETATM    6  O   UNL     1       5.905  27.052  55.188  1.00  0.00    -0.291 OA
HETATM    7  C   UNL     1       6.015  25.829  54.580  1.00  0.00     0.298 A 
HETATM    8  O   UNL     1       5.383  25.523  53.594  1.00  0.00    -0.259 OA
HETATM    9  C   UNL     1       8.414  25.376  57.246  1.00  0.00     0.015 A 
HETATM   10  C   UNL     1       8.892  24.077  57.052  1.00  0.00     0.040 A 
ENDROOT
BRANCH   5  11
HETATM   11  N   UNL     1       7.734  28.252  56.090  1.00  0.00    -0.248 NA
HETATM   12  H   UNL     1       8.512  27.933  55.514  1.00  0.00     0.132 HD
BRANCH  11  13
HETATM   13  C   UNL     1       8.162  29.059  57.139  1.00  0.00     0.082 A 
HETATM   14  N   UNL     1       7.292  29.619  58.001  1.00  0.00    -0.355 N 
HETATM   15  H   UNL     1       6.299  29.410  57.870  1.00  0.00     0.166 HD
HETATM   16  C   UNL     1       7.647  30.468  58.977  1.00  0.00     0.108 A 
HETATM   17  C   UNL     1       8.976  30.832  59.125  1.00  0.00     0.026 A 
HETATM   18 BR   UNL     1       9.487  32.022  60.493  1.00  0.00    -0.050 Br
HETATM   19  C   UNL     1       9.918  30.324  58.242  1.00  0.00     0.024 A 
HETATM   20  C   UNL     1       9.506  29.449  57.234  1.00  0.00     0.043 A 
ENDBRANCH  11  13
ENDBRANCH   5  11
BRANCH   2  21
HETATM   21  O   UNL     1       6.984  23.025  54.076  1.00  0.00    -0.352 OA
HETATM   22  C   UNL     1       7.859  23.068  52.946  1.00  0.00     0.210 C 
ENDBRANCH   2  21
BRANCH   1  23
HETATM   23  O   UNL     1       9.032  22.038  55.959  1.00  0.00    -0.353 OA
HETATM   24  C   UNL     1       8.380  20.983  56.660  1.00  0.00     0.210 C 
ENDBRANCH   1  23
TORSDOF 4
ENDMDL
MODEL 5
REMARK VINA RESULT:      -7.8     10.538     12.764
REMARK  4 active torsions:
REMARK  status: ('A' for Active; 'I' for Inactive)
REMARK    1  A    between atoms: O_2  and  C_3 
REMARK    2  A    between atoms: C_4  and  O_5 
REMARK    3  A    between atoms: C_9  and  N_10 
REMARK    4  A    between atoms: N_10  and  C_11 
ROOT
HETATM    1  C   UNL     1       7.748  22.497  55.204  1.00  0.00     0.102 A 
HETATM    2  C   UNL     1       7.558  23.823  55.608  1.00  0.00     0.118 A 
HETATM    3  C   UNL     1       7.305  24.768  54.618  1.00  0.00     0.085 A 
HETATM    4  C   UNL     1       7.267  24.451  53.271  1.00  0.00     0.005 A 
HETATM    5  C   UNL     1       6.988  25.671  52.485  1.00  0.00     0.245 A 
HETATM    6  O   UNL     1       6.876  26.696  53.483  1.00  0.00    -0.291 OA
HETATM    7  C   UNL     1       7.044  26.197  54.749  1.00  0.00     0.298 A 
HETATM    8  O   UNL     1       6.960  26.881  55.744  1.00  0.00    -0.259 OA
HETATM    9  C   UNL     1       7.498  23.153  52.852  1.00  0.00     0.015 A 
HETATM   10  C   UNL     1       7.740  22.182  53.828  1.00  0.00     0.040 A 
ENDROOT
BRANCH   5  11
HETATM   11  N   UNL     1       5.742  25.555  51.749  1.00  0.00    -0.248 NA
HETATM   12  H   UNL     1       5.611  24.600  51.417  1.00  0.00     0.132 HD
BRANCH  11  13
HETATM   13  C   UNL     1       5.388  26.492  50.783  1.00  0.00     0.082 A 
HETATM   14  N   UNL     1       5.595  27.810  50.967  1.00  0.00    -0.355 N 
HETATM   15  H   UNL     1       6.046  28.099  51.838  1.00  0.00     0.166 HD
HETATM   16  C   UNL     1       5.199  28.757  50.104  1.00  0.00     0.108 A 
HETATM   17  C   UNL     1       4.513  28.400  48.954  1.00  0.00     0.026 A 
HETATM   18 BR   UNL     1       3.953  29.721  47.734  1.00  0.00    -0.050 Br
HETATM   19  C   UNL     1       4.229  27.060  48.726  1.00  0.00     0.024 A 
HETATM   20  C   UNL     1       4.652  26.106  49.653  1.00  0.00     0.043 A 
ENDBRANCH  11  13
ENDBRANCH   5  11
BRANCH   2  21
HETATM   21  O   UNL     1       7.554  24.180  56.923  1.00  0.00    -0.352 OA
HETATM   22  C   UNL     1       8.871  24.422  57.425  1.00  0.00     0.210 C 
ENDBRANCH   2  21
BRANCH   1  23
HETATM   23  O   UNL     1       7.997  21.412  55.998  1.00  0.00    -0.353 OA
HETATM   24  C   UNL     1       9.206  20.695  55.772  1.00  0.00     0.210 C 
ENDBRANCH   1  23
TORSDOF 4
ENDMDL
MODEL 6
REMARK VINA RESULT:      -7.7      5.780      8.563
REMARK  4 active torsions:
REMARK  status: ('A' for Active; 'I' for Inactive)
REMARK    1  A    between atoms: O_2  and  C_3 
REMARK    2  A    between atoms: C_4  and  O_5 
REMARK    3  A    between atoms: C_9  and  N_10 
REMARK    4  A    between atoms: N_10  and  C_11 
ROOT
HETATM    1  C   UNL     1       7.580  30.062  58.128  1.00  0.00     0.102 A 
HETATM    2  C   UNL     1       6.343  29.761  57.548  1.00  0.00     0.118 A 
HETATM    3  C   UNL     1       6.273  28.641  56.725  1.00  0.00     0.085 A 
HETATM    4  C   UNL     1       7.372  27.847  56.443  1.00  0.00     0.005 A 
HETATM    5  C   UNL     1       6.969  26.751  55.538  1.00  0.00     0.245 A 
HETATM    6  O   UNL     1       5.569  26.986  55.327  1.00  0.00    -0.291 OA
HETATM    7  C   UNL     1       5.124  28.081  56.022  1.00  0.00     0.298 A 
HETATM    8  O   UNL     1       3.970  28.444  56.013  1.00  0.00    -0.259 OA
HETATM    9  C   UNL     1       8.611  28.158  56.973  1.00  0.00     0.015 A 
HETATM   10  C   UNL     1       8.707  29.271  57.813  1.00  0.00     0.040 A 
ENDROOT
BRANCH   5  11
HETATM   11  N   UNL     1       7.169  25.452  56.155  1.00  0.00    -0.248 NA
HETATM   12  H   UNL     1       7.842  25.519  56.917  1.00  0.00     0.132 HD
BRANCH  11  13
HETATM   13  C   UNL     1       7.374  24.313  55.382  1.00  0.00     0.082 A 
HETATM   14  N   UNL     1       7.463  23.089  55.936  1.00  0.00    -0.355 N 
HETATM   15  H   UNL     1       7.351  23.022  56.950  1.00  0.00     0.166 HD
HETATM   16  C   UNL     1       7.741  21.974  55.245  1.00  0.00     0.108 A 
HETATM   17  C   UNL     1       7.978  22.048  53.881  1.00  0.00     0.026 A 
HETATM   18 BR   UNL     1       8.367  20.488  52.900  1.00  0.00    -0.050 Br
HETATM   19  C   UNL     1       7.945  23.287  53.256  1.00  0.00     0.024 A 
HETATM   20  C   UNL     1       7.660  24.425  54.014  1.00  0.00     0.043 A 
ENDBRANCH  11  13
ENDBRANCH   5  11
BRANCH   2  21
HETATM   21  O   UNL     1       5.226  30.491  57.820  1.00  0.00    -0.352 OA
HETATM   22  C   UNL     1       5.124  31.657  56.999  1.00  0.00     0.210 C 
ENDBRANCH   2  21
BRANCH   1  23
HETATM   23  O   UNL     1       7.876  31.099  58.969  1.00  0.00    -0.353 OA
HETATM   24  C   UNL     1       8.457  30.779  60.229  1.00  0.00     0.210 C 
ENDBRANCH   1  23
TORSDOF 4
ENDMDL
MODEL 7
REMARK VINA RESULT:      -7.6      3.919      7.145
REMARK  4 active torsions:
REMARK  status: ('A' for Active; 'I' for Inactive)
REMARK    1  A    between atoms: O_2  and  C_3 
REMARK    2  A    between atoms: C_4  and  O_5 
REMARK    3  A    between atoms: C_9  and  N_10 
REMARK    4  A    between atoms: N_10  and  C_11 
ROOT
HETATM    1  C   UNL     1       8.243  32.369  60.054  1.00  0.00     0.102 A 
HETATM    2  C   UNL     1       6.879  32.304  59.750  1.00  0.00     0.118 A 
HETATM    3  C   UNL     1       5.979  32.391  60.807  1.00  0.00     0.085 A 
HETATM    4  C   UNL     1       6.380  32.505  62.128  1.00  0.00     0.005 A 
HETATM    5  C   UNL     1       5.191  32.565  63.001  1.00  0.00     0.245 A 
HETATM    6  O   UNL     1       4.093  32.471  62.082  1.00  0.00    -0.291 OA
HETATM    7  C   UNL     1       4.520  32.382  60.783  1.00  0.00     0.298 A 
HETATM    8  O   UNL     1       3.762  32.323  59.841  1.00  0.00    -0.259 OA
HETATM    9  C   UNL     1       7.726  32.525  62.448  1.00  0.00     0.015 A 
HETATM   10  C   UNL     1       8.652  32.453  61.403  1.00  0.00     0.040 A 
ENDROOT
BRANCH   5  11
HETATM   11  N   UNL     1       5.127  33.821  63.728  1.00  0.00    -0.248 NA
HETATM   12  H   UNL     1       5.642  34.546  63.231  1.00  0.00     0.132 HD
BRANCH  11  13
HETATM   13  C   UNL     1       5.355  33.870  65.099  1.00  0.00     0.082 A 
HETATM   14  N   UNL     1       4.341  33.957  65.981  1.00  0.00    -0.355 N 
HETATM   15  H   UNL     1       3.389  33.962  65.607  1.00  0.00     0.166 HD
HETATM   16  C   UNL     1       4.511  34.089  67.305  1.00  0.00     0.108 A 
HETATM   17  C   UNL     1       5.790  34.167  67.833  1.00  0.00     0.026 A 
HETATM   18 BR   UNL     1       6.042  34.351  69.690  1.00  0.00    -0.050 Br
HETATM   19  C   UNL     1       6.879  34.128  66.972  1.00  0.00     0.024 A 
HETATM   20  C   UNL     1       6.658  33.997  65.599  1.00  0.00     0.043 A 
ENDBRANCH  11  13
ENDBRANCH   5  11
BRANCH   2  21
HETATM   21  O   UNL     1       6.432  32.224  58.465  1.00  0.00    -0.352 OA
HETATM   22  C   UNL     1       6.359  30.875  57.998  1.00  0.00     0.210 C 
ENDBRANCH   2  21
BRANCH   1  23
HETATM   23  O   UNL     1       9.295  32.314  59.181  1.00  0.00    -0.353 OA
HETATM   24  C   UNL     1       9.825  31.030  58.869  1.00  0.00     0.210 C 
ENDBRANCH   1  23
TORSDOF 4
ENDMDL
MODEL 8
REMARK VINA RESULT:      -7.4      3.726      6.530
REMARK  4 active torsions:
REMARK  status: ('A' for Active; 'I' for Inactive)
REMARK    1  A    between atoms: O_2  and  C_3 
REMARK    2  A    between atoms: C_4  and  O_5 
REMARK    3  A    between atoms: C_9  and  N_10 
REMARK    4  A    between atoms: N_10  and  C_11 
ROOT
HETATM    1  C   UNL     1       8.304  32.414  60.187  1.00  0.00     0.102 A 
HETATM    2  C   UNL     1       6.928  32.347  59.942  1.00  0.00     0.118 A 
HETATM    3  C   UNL     1       6.081  32.268  61.043  1.00  0.00     0.085 A 
HETATM    4  C   UNL     1       6.547  32.222  62.346  1.00  0.00     0.005 A 
HETATM    5  C   UNL     1       5.403  32.130  63.276  1.00  0.00     0.245 A 
HETATM    6  O   UNL     1       4.262  32.123  62.406  1.00  0.00    -0.291 OA
HETATM    7  C   UNL     1       4.624  32.217  61.087  1.00  0.00     0.298 A 
HETATM    8  O   UNL     1       3.820  32.258  60.183  1.00  0.00    -0.259 OA
HETATM    9  C   UNL     1       7.907  32.241  62.602  1.00  0.00     0.015 A 
HETATM   10  C   UNL     1       8.779  32.335  61.514  1.00  0.00     0.040 A 
ENDROOT
BRANCH   5  11
HETATM   11  N   UNL     1       5.345  33.279  64.163  1.00  0.00    -0.248 NA
HETATM   12  H   UNL     1       4.868  33.036  65.031  1.00  0.00     0.132 HD
BRANCH  11  13
HETATM   13  C   UNL     1       4.962  34.531  63.694  1.00  0.00     0.082 A 
HETATM   14  N   UNL     1       3.683  34.804  63.372  1.00  0.00    -0.355 N 
HETATM   15  H   UNL     1       2.994  34.061  63.507  1.00  0.00     0.166 HD
HETATM   16  C   UNL     1       3.278  35.966  62.839  1.00  0.00     0.108 A 
HETATM   17  C   UNL     1       4.204  36.962  62.570  1.00  0.00     0.026 A 
HETATM   18 BR   UNL     1       3.646  38.600  61.824  1.00  0.00    -0.050 Br
HETATM   19  C   UNL     1       5.546  36.728  62.839  1.00  0.00     0.024 A 
HETATM   20  C   UNL     1       5.927  35.500  63.385  1.00  0.00     0.043 A 
ENDBRANCH  11  13
ENDBRANCH   5  11
BRANCH   2  21
HETATM   21  O   UNL     1       6.418  32.422  58.681  1.00  0.00    -0.352 OA
HETATM   22  C   UNL     1       6.313  31.138  58.060  1.00  0.00     0.210 C 
ENDBRANCH   2  21
BRANCH   1  23
HETATM   23  O   UNL     1       9.311  32.506  59.265  1.00  0.00    -0.353 OA
HETATM   24  C   UNL     1       9.832  31.291  58.737  1.00  0.00     0.210 C 
ENDBRANCH   1  23
TORSDOF 4
ENDMDL
MODEL 9
REMARK VINA RESULT:      -7.3      5.672      8.401
REMARK  4 active torsions:
REMARK  status: ('A' for Active; 'I' for Inactive)
REMARK    1  A    between atoms: O_2  and  C_3 
REMARK    2  A    between atoms: C_4  and  O_5 
REMARK    3  A    between atoms: C_9  and  N_10 
REMARK    4  A    between atoms: N_10  and  C_11 
ROOT
HETATM    1  C   UNL     1       4.830  30.770  56.720  1.00  0.00     0.102 A 
HETATM    2  C   UNL     1       6.022  30.621  57.437  1.00  0.00     0.118 A 
HETATM    3  C   UNL     1       6.543  29.337  57.561  1.00  0.00     0.085 A 
HETATM    4  C   UNL     1       5.916  28.219  57.036  1.00  0.00     0.005 A 
HETATM    5  C   UNL     1       6.714  27.015  57.347  1.00  0.00     0.245 A 
HETATM    6  O   UNL     1       7.830  27.532  58.086  1.00  0.00    -0.291 OA
HETATM    7  C   UNL     1       7.768  28.895  58.218  1.00  0.00     0.298 A 
HETATM    8  O   UNL     1       8.622  29.544  58.780  1.00  0.00    -0.259 OA
HETATM    9  C   UNL     1       4.713  28.345  56.365  1.00  0.00     0.015 A 
HETATM   10  C   UNL     1       4.175  29.626  56.214  1.00  0.00     0.040 A 
ENDROOT
BRANCH   5  11
HETATM   11  N   UNL     1       7.179  26.359  56.137  1.00  0.00    -0.248 NA
HETATM   12  H   UNL     1       6.598  26.624  55.343  1.00  0.00     0.132 HD
BRANCH  11  13
HETATM   13  C   UNL     1       7.482  25.001  56.127  1.00  0.00     0.082 A 
HETATM   14  N   UNL     1       8.013  24.388  57.202  1.00  0.00    -0.355 N 
HETATM   15  H   UNL     1       8.166  24.954  58.040  1.00  0.00     0.166 HD
HETATM   16  C   UNL     1       8.398  23.103  57.216  1.00  0.00     0.108 A 
HETATM   17  C   UNL     1       8.278  22.334  56.069  1.00  0.00     0.026 A 
HETATM   18 BR   UNL     1       8.813  20.529  56.077  1.00  0.00    -0.050 Br
HETATM   19  C   UNL     1       7.777  22.919  54.913  1.00  0.00     0.024 A 
HETATM   20  C   UNL     1       7.396  24.262  54.939  1.00  0.00     0.043 A 
ENDBRANCH  11  13
ENDBRANCH   5  11
BRANCH   2  21
HETATM   21  O   UNL     1       6.694  31.693  57.944  1.00  0.00    -0.352 OA
HETATM   22  C   UNL     1       6.193  32.093  59.222  1.00  0.00     0.210 C 
ENDBRANCH   2  21
BRANCH   1  23
HETATM   23  O   UNL     1       4.149  31.929  56.466  1.00  0.00    -0.353 OA
HETATM   24  C   UNL     1       2.940  31.832  55.719  1.00  0.00     0.210 C 
ENDBRANCH   1  23
TORSDOF 4
ENDMDL
MODEL 10
REMARK VINA RESULT:      -7.3     10.545     12.801
REMARK  4 active torsions:
REMARK  status: ('A' for Active; 'I' for Inactive)
REMARK    1  A    between atoms: O_2  and  C_3 
REMARK    2  A    between atoms: C_4  and  O_5 
REMARK    3  A    between atoms: C_9  and  N_10 
REMARK    4  A    between atoms: N_10  and  C_11 
ROOT
HETATM    1  C   UNL     1       4.385  27.709  49.880  1.00  0.00     0.102 A 
HETATM    2  C   UNL     1       4.220  28.447  51.057  1.00  0.00     0.118 A 
HETATM    3  C   UNL     1       4.544  27.824  52.258  1.00  0.00     0.085 A 
HETATM    4  C   UNL     1       4.986  26.514  52.330  1.00  0.00     0.005 A 
HETATM    5  C   UNL     1       5.232  26.153  53.741  1.00  0.00     0.245 A 
HETATM    6  O   UNL     1       4.893  27.349  54.458  1.00  0.00    -0.291 OA
HETATM    7  C   UNL     1       4.498  28.355  53.616  1.00  0.00     0.298 A 
HETATM    8  O   UNL     1       4.196  29.461  54.006  1.00  0.00    -0.259 OA
HETATM    9  C   UNL     1       5.111  25.757  51.179  1.00  0.00     0.015 A 
HETATM   10  C   UNL     1       4.806  26.363  49.957  1.00  0.00     0.040 A 
ENDROOT
BRANCH   5  11
HETATM   11  N   UNL     1       6.626  25.814  53.967  1.00  0.00    -0.248 NA
HETATM   12  H   UNL     1       7.226  26.322  53.319  1.00  0.00     0.132 HD
BRANCH  11  13
HETATM   13  C   UNL     1       7.028  24.490  54.117  1.00  0.00     0.082 A 
HETATM   14  N   UNL     1       7.030  23.885  55.320  1.00  0.00    -0.355 N 
HETATM   15  H   UNL     1       6.702  24.427  56.122  1.00  0.00     0.166 HD
HETATM   16  C   UNL     1       7.485  22.640  55.529  1.00  0.00     0.108 A 
HETATM   17  C   UNL     1       8.012  21.911  54.475  1.00  0.00     0.026 A 
HETATM   18 BR   UNL     1       8.651  20.162  54.756  1.00  0.00    -0.050 Br
HETATM   19  C   UNL     1       8.079  22.494  53.217  1.00  0.00     0.024 A 
HETATM   20  C   UNL     1       7.602  23.796  53.043  1.00  0.00     0.043 A 
ENDBRANCH  11  13
ENDBRANCH   5  11
BRANCH   2  21
HETATM   21  O   UNL     1       3.819  29.749  51.038  1.00  0.00    -0.352 OA
HETATM   22  C   UNL     1       4.896  30.646  50.755  1.00  0.00     0.210 C 
ENDBRANCH   2  21
BRANCH   1  23
HETATM   23  O   UNL     1       4.141  28.118  48.598  1.00  0.00    -0.353 OA
HETATM   24  C   UNL     1       5.244  28.159  47.699  1.00  0.00     0.210 C 
ENDBRANCH   1  23
TORSDOF 4
ENDMDL
