MODEL 1
REMARK VINA RESULT:      -9.3      0.000      0.000
REMARK  5 active torsions:
REMARK  status: ('A' for Active; 'I' for Inactive)
REMARK    1  A    between atoms: C_8  and  C_9 
REMARK    2  A    between atoms: N_10  and  N_11 
REMARK       I    between atoms: N_11  and  C_12 
REMARK    3  A    between atoms: C_12  and  C_13 
REMARK    4  A    between atoms: C_13  and  O_14 
REMARK    5  A    between atoms: O_14  and  C_15 
ROOT
HETATM    1  N   UNL     1       7.314  27.587  56.538  1.00  0.00    -0.246 N 
HETATM    2  C   UNL     1       8.249  28.370  57.203  1.00  0.00     0.261 C 
HETATM    3  O   UNL     1       9.461  28.394  56.989  1.00  0.00    -0.269 OA
HETATM    4  H   UNL     1       6.335  27.853  56.648  1.00  0.00     0.192 HD
ENDROOT
BRANCH   1   5
HETATM    5  N   UNL     1       7.553  26.747  55.476  1.00  0.00    -0.184 NA
HETATM    6  C   UNL     1       7.297  25.485  55.608  1.00  0.00     0.152 C 
BRANCH   6   7
HETATM    7  C   UNL     1       7.566  24.579  54.509  1.00  0.00     0.011 A 
HETATM    8  C   UNL     1       7.703  23.154  54.587  1.00  0.00     0.004 A 
HETATM    9  C   UNL     1       7.651  22.218  55.642  1.00  0.00     0.014 A 
HETATM   10  C   UNL     1       7.944  22.684  53.295  1.00  0.00     0.043 A 
HETATM   11  C   UNL     1       7.835  20.858  55.369  1.00  0.00     0.001 A 
HETATM   12  C   UNL     1       8.067  20.422  54.068  1.00  0.00     0.002 A 
HETATM   13  C   UNL     1       8.127  21.327  53.004  1.00  0.00     0.030 A 
HETATM   14  N   UNL     1       7.958  23.780  52.464  1.00  0.00    -0.364 N 
HETATM   15  H   UNL     1       8.112  23.740  51.465  1.00  0.00     0.165 HD
HETATM   16  C   UNL     1       7.737  24.923  53.181  1.00  0.00     0.102 A 
ENDBRANCH   6   7
ENDBRANCH   1   5
BRANCH   2  17
HETATM   17  C   UNL     1       7.644  29.189  58.342  1.00  0.00     0.280 C 
BRANCH  17  18
HETATM   18  O   UNL     1       8.334  30.416  58.542  1.00  0.00    -0.340 OA
BRANCH  18  19
HETATM   19  C   UNL     1       8.247  30.971  59.795  1.00  0.00     0.091 A 
HETATM   20  C   UNL     1       7.198  31.878  60.021  1.00  0.00     0.068 A 
HETATM   21 CL   UNL     1       6.085  32.288  58.762  1.00  0.00    -0.081 Cl
HETATM   22  C   UNL     1       7.030  32.486  61.268  1.00  0.00     0.046 A 
HETATM   23  C   UNL     1       7.908  32.178  62.302  1.00  0.00     0.012 A 
HETATM   24 BR   UNL     1       7.691  32.991  63.995  1.00  0.00    -0.051 Br
HETATM   25  C   UNL     1       8.946  31.270  62.101  1.00  0.00     0.022 A 
HETATM   26  C   UNL     1       9.114  30.667  60.851  1.00  0.00     0.040 A 
ENDBRANCH  18  19
ENDBRANCH  17  18
ENDBRANCH   2  17
TORSDOF 5
ENDMDL
MODEL 2
REMARK VINA RESULT:      -9.1      7.367     10.122
REMARK  5 active torsions:
REMARK  status: ('A' for Active; 'I' for Inactive)
REMARK    1  A    between atoms: C_8  and  C_9 
REMARK    2  A    between atoms: N_10  and  N_11 
REMARK       I    between atoms: N_11  and  C_12 
REMARK    3  A    between atoms: C_12  and  C_13 
REMARK    4  A    between atoms: C_13  and  O_14 
REMARK    5  A    between atoms: O_14  and  C_15 
ROOT
HETATM    1  N   UNL     1       5.927  26.023  50.945  1.00  0.00    -0.246 N 
HETATM    2  C   UNL     1       5.222  27.217  50.858  1.00  0.00     0.261 C 
HETATM    3  O   UNL     1       4.514  27.709  51.736  1.00  0.00    -0.269 OA
HETATM    4  H   UNL     1       6.656  25.871  50.248  1.00  0.00     0.192 HD
ENDROOT
BRANCH   1   5
HETATM    5  N   UNL     1       6.021  25.205  52.046  1.00  0.00    -0.184 NA
HETATM    6  C   UNL     1       7.098  25.245  52.764  1.00  0.00     0.152 C 
BRANCH   6   7
HETATM    7  C   UNL     1       7.228  24.372  53.914  1.00  0.00     0.011 A 
HETATM    8  C   UNL     1       7.571  22.980  53.898  1.00  0.00     0.004 A 
HETATM    9  C   UNL     1       7.856  22.049  52.877  1.00  0.00     0.014 A 
HETATM   10  C   UNL     1       7.595  22.540  55.223  1.00  0.00     0.043 A 
HETATM   11  C   UNL     1       8.158  20.725  53.214  1.00  0.00     0.001 A 
HETATM   12  C   UNL     1       8.180  20.320  54.545  1.00  0.00     0.002 A 
HETATM   13  C   UNL     1       7.899  21.220  55.577  1.00  0.00     0.030 A 
HETATM   14  N   UNL     1       7.277  23.620  56.013  1.00  0.00    -0.364 N 
HETATM   15  H   UNL     1       7.218  23.594  57.022  1.00  0.00     0.165 HD
HETATM   16  C   UNL     1       7.049  24.724  55.238  1.00  0.00     0.102 A 
ENDBRANCH   6   7
ENDBRANCH   1   5
BRANCH   2  17
HETATM   17  C   UNL     1       5.328  27.876  49.484  1.00  0.00     0.280 C 
BRANCH  17  18
HETATM   18  O   UNL     1       4.840  27.032  48.448  1.00  0.00    -0.340 OA
BRANCH  18  19
HETATM   19  C   UNL     1       3.643  27.391  47.877  1.00  0.00     0.091 A 
HETATM   20  C   UNL     1       2.702  26.369  47.671  1.00  0.00     0.068 A 
HETATM   21 CL   UNL     1       3.052  24.731  48.100  1.00  0.00    -0.081 Cl
HETATM   22  C   UNL     1       1.455  26.646  47.102  1.00  0.00     0.046 A 
HETATM   23  C   UNL     1       1.141  27.954  46.745  1.00  0.00     0.012 A 
HETATM   24 BR   UNL     1      -0.541  28.341  45.976  1.00  0.00    -0.051 Br
HETATM   25  C   UNL     1       2.058  28.982  46.955  1.00  0.00     0.022 A 
HETATM   26  C   UNL     1       3.305  28.702  47.521  1.00  0.00     0.040 A 
ENDBRANCH  18  19
ENDBRANCH  17  18
ENDBRANCH   2  17
TORSDOF 5
ENDMDL
MODEL 3
REMARK VINA RESULT:      -8.8      1.913      2.707
REMARK  5 active torsions:
REMARK  status: ('A' for Active; 'I' for Inactive)
REMARK    1  A    between atoms: C_8  and  C_9 
REMARK    2  A    between atoms: N_10  and  N_11 
REMARK       I    between atoms: N_11  and  C_12 
REMARK    3  A    between atoms: C_12  and  C_13 
REMARK    4  A    between atoms: C_13  and  O_14 
REMARK    5  A    between atoms: O_14  and  C_15 
ROOT
HETATM    1  N   UNL     1       7.460  28.591  58.109  1.00  0.00    -0.246 N 
HETATM    2  C   UNL     1       8.078  29.822  57.930  1.00  0.00     0.261 C 
HETATM    3  O   UNL     1       9.207  30.010  57.479  1.00  0.00    -0.269 OA
HETATM    4  H   UNL     1       6.450  28.603  58.253  1.00  0.00     0.192 HD
ENDROOT
BRANCH   1   5
HETATM    5  N   UNL     1       7.963  27.362  57.755  1.00  0.00    -0.184 NA
HETATM    6  C   UNL     1       7.390  26.704  56.798  1.00  0.00     0.152 C 
BRANCH   6   7
HETATM    7  C   UNL     1       7.889  25.395  56.426  1.00  0.00     0.011 A 
HETATM    8  C   UNL     1       7.775  24.768  55.142  1.00  0.00     0.004 A 
HETATM    9  C   UNL     1       7.187  25.141  53.914  1.00  0.00     0.014 A 
HETATM   10  C   UNL     1       8.404  23.525  55.225  1.00  0.00     0.043 A 
HETATM   11  C   UNL     1       7.254  24.268  52.823  1.00  0.00     0.001 A 
HETATM   12  C   UNL     1       7.894  23.038  52.937  1.00  0.00     0.002 A 
HETATM   13  C   UNL     1       8.482  22.641  54.142  1.00  0.00     0.030 A 
HETATM   14  N   UNL     1       8.879  23.398  56.509  1.00  0.00    -0.364 N 
HETATM   15  H   UNL     1       9.380  22.592  56.859  1.00  0.00     0.165 HD
HETATM   16  C   UNL     1       8.571  24.513  57.241  1.00  0.00     0.102 A 
ENDBRANCH   6   7
ENDBRANCH   1   5
BRANCH   2  17
HETATM   17  C   UNL     1       7.239  30.993  58.439  1.00  0.00     0.280 C 
BRANCH  17  18
HETATM   18  O   UNL     1       8.015  31.920  59.188  1.00  0.00    -0.340 OA
BRANCH  18  19
HETATM   19  C   UNL     1       7.524  32.277  60.420  1.00  0.00     0.091 A 
HETATM   20  C   UNL     1       8.425  32.254  61.498  1.00  0.00     0.068 A 
HETATM   21 CL   UNL     1      10.071  31.774  61.276  1.00  0.00    -0.081 Cl
HETATM   22  C   UNL     1       8.012  32.608  62.786  1.00  0.00     0.046 A 
HETATM   23  C   UNL     1       6.694  32.998  62.999  1.00  0.00     0.012 A 
HETATM   24 BR   UNL     1       6.125  33.482  64.735  1.00  0.00    -0.051 Br
HETATM   25  C   UNL     1       5.790  33.041  61.939  1.00  0.00     0.022 A 
HETATM   26  C   UNL     1       6.204  32.682  60.652  1.00  0.00     0.040 A 
ENDBRANCH  18  19
ENDBRANCH  17  18
ENDBRANCH   2  17
TORSDOF 5
ENDMDL
MODEL 4
REMARK VINA RESULT:      -8.8      2.226      2.759
REMARK  5 active torsions:
REMARK  status: ('A' for Active; 'I' for Inactive)
REMARK    1  A    between atoms: C_8  and  C_9 
REMARK    2  A    between atoms: N_10  and  N_11 
REMARK       I    between atoms: N_11  and  C_12 
REMARK    3  A    between atoms: C_12  and  C_13 
REMARK    4  A    between atoms: C_13  and  O_14 
REMARK    5  A    between atoms: O_14  and  C_15 
ROOT
HETATM    1  N   UNL     1       6.045  26.729  56.035  1.00  0.00    -0.246 N 
HETATM    2  C   UNL     1       5.249  27.733  55.497  1.00  0.00     0.261 C 
HETATM    3  O   UNL     1       4.642  27.685  54.428  1.00  0.00    -0.269 OA
HETATM    4  H   UNL     1       6.275  26.810  57.025  1.00  0.00     0.192 HD
ENDROOT
BRANCH   1   5
HETATM    5  N   UNL     1       6.250  25.475  55.510  1.00  0.00    -0.184 NA
HETATM    6  C   UNL     1       7.361  25.229  54.892  1.00  0.00     0.152 C 
BRANCH   6   7
HETATM    7  C   UNL     1       7.585  23.921  54.310  1.00  0.00     0.011 A 
HETATM    8  C   UNL     1       7.902  22.713  55.013  1.00  0.00     0.004 A 
HETATM    9  C   UNL     1       8.108  22.391  56.372  1.00  0.00     0.014 A 
HETATM   10  C   UNL     1       8.020  21.695  54.066  1.00  0.00     0.043 A 
HETATM   11  C   UNL     1       8.415  21.075  56.732  1.00  0.00     0.001 A 
HETATM   12  C   UNL     1       8.519  20.081  55.762  1.00  0.00     0.002 A 
HETATM   13  C   UNL     1       8.323  20.372  54.409  1.00  0.00     0.030 A 
HETATM   14  N   UNL     1       7.787  22.261  52.834  1.00  0.00    -0.364 N 
HETATM   15  H   UNL     1       7.808  21.756  51.958  1.00  0.00     0.165 HD
HETATM   16  C   UNL     1       7.530  23.598  52.967  1.00  0.00     0.102 A 
ENDBRANCH   6   7
ENDBRANCH   1   5
BRANCH   2  17
HETATM   17  C   UNL     1       5.244  29.008  56.338  1.00  0.00     0.280 C 
BRANCH  17  18
HETATM   18  O   UNL     1       6.495  29.683  56.292  1.00  0.00    -0.340 OA
BRANCH  18  19
HETATM   19  C   UNL     1       6.947  30.218  57.474  1.00  0.00     0.091 A 
HETATM   20  C   UNL     1       8.115  29.662  58.021  1.00  0.00     0.068 A 
HETATM   21 CL   UNL     1       8.927  28.348  57.246  1.00  0.00    -0.081 Cl
HETATM   22  C   UNL     1       8.649  30.150  59.217  1.00  0.00     0.046 A 
HETATM   23  C   UNL     1       8.020  31.206  59.867  1.00  0.00     0.012 A 
HETATM   24 BR   UNL     1       8.733  31.876  61.484  1.00  0.00    -0.051 Br
HETATM   25  C   UNL     1       6.868  31.779  59.331  1.00  0.00     0.022 A 
HETATM   26  C   UNL     1       6.333  31.287  58.137  1.00  0.00     0.040 A 
ENDBRANCH  18  19
ENDBRANCH  17  18
ENDBRANCH   2  17
TORSDOF 5
ENDMDL
MODEL 5
REMARK VINA RESULT:      -8.5      4.406      9.999
REMARK  5 active torsions:
REMARK  status: ('A' for Active; 'I' for Inactive)
REMARK    1  A    between atoms: C_8  and  C_9 
REMARK    2  A    between atoms: N_10  and  N_11 
REMARK       I    between atoms: N_11  and  C_12 
REMARK    3  A    between atoms: C_12  and  C_13 
REMARK    4  A    between atoms: C_13  and  O_14 
REMARK    5  A    between atoms: O_14  and  C_15 
ROOT
HETATM    1  N   UNL     1       7.584  28.411  56.764  1.00  0.00    -0.246 N 
HETATM    2  C   UNL     1       6.705  27.808  55.873  1.00  0.00     0.261 C 
HETATM    3  O   UNL     1       5.476  27.820  55.943  1.00  0.00    -0.269 OA
HETATM    4  H   UNL     1       8.546  28.528  56.447  1.00  0.00     0.192 HD
ENDROOT
BRANCH   1   5
HETATM    5  N   UNL     1       7.248  29.190  57.846  1.00  0.00    -0.184 NA
HETATM    6  C   UNL     1       7.166  30.473  57.692  1.00  0.00     0.152 C 
BRANCH   6   7
HETATM    7  C   UNL     1       6.839  31.314  58.826  1.00  0.00     0.011 A 
HETATM    8  C   UNL     1       7.591  31.446  60.039  1.00  0.00     0.004 A 
HETATM    9  C   UNL     1       8.778  30.861  60.529  1.00  0.00     0.014 A 
HETATM   10  C   UNL     1       6.922  32.366  60.849  1.00  0.00     0.043 A 
HETATM   11  C   UNL     1       9.253  31.218  61.796  1.00  0.00     0.001 A 
HETATM   12  C   UNL     1       8.565  32.144  62.575  1.00  0.00     0.002 A 
HETATM   13  C   UNL     1       7.385  32.737  62.117  1.00  0.00     0.030 A 
HETATM   14  N   UNL     1       5.806  32.775  60.157  1.00  0.00    -0.364 N 
HETATM   15  H   UNL     1       5.130  33.443  60.503  1.00  0.00     0.165 HD
HETATM   16  C   UNL     1       5.742  32.146  58.944  1.00  0.00     0.102 A 
ENDBRANCH   6   7
ENDBRANCH   1   5
BRANCH   2  17
HETATM   17  C   UNL     1       7.414  27.010  54.780  1.00  0.00     0.280 C 
BRANCH  17  18
HETATM   18  O   UNL     1       6.575  26.004  54.224  1.00  0.00    -0.340 OA
BRANCH  18  19
HETATM   19  C   UNL     1       7.002  24.706  54.360  1.00  0.00     0.091 A 
HETATM   20  C   UNL     1       7.524  24.082  53.214  1.00  0.00     0.068 A 
HETATM   21 CL   UNL     1       7.601  24.914  51.700  1.00  0.00    -0.081 Cl
HETATM   22  C   UNL     1       7.987  22.764  53.263  1.00  0.00     0.046 A 
HETATM   23  C   UNL     1       7.939  22.066  54.466  1.00  0.00     0.012 A 
HETATM   24 BR   UNL     1       8.564  20.284  54.546  1.00  0.00    -0.051 Br
HETATM   25  C   UNL     1       7.437  22.674  55.615  1.00  0.00     0.022 A 
HETATM   26  C   UNL     1       6.971  23.991  55.563  1.00  0.00     0.040 A 
ENDBRANCH  18  19
ENDBRANCH  17  18
ENDBRANCH   2  17
TORSDOF 5
ENDMDL
MODEL 6
REMARK VINA RESULT:      -8.5      1.436      1.922
REMARK  5 active torsions:
REMARK  status: ('A' for Active; 'I' for Inactive)
REMARK    1  A    between atoms: C_8  and  C_9 
REMARK    2  A    between atoms: N_10  and  N_11 
REMARK       I    between atoms: N_11  and  C_12 
REMARK    3  A    between atoms: C_12  and  C_13 
REMARK    4  A    between atoms: C_13  and  O_14 
REMARK    5  A    between atoms: O_14  and  C_15 
ROOT
HETATM    1  N   UNL     1       8.458  29.476  57.019  1.00  0.00    -0.246 N 
HETATM    2  C   UNL     1       9.682  29.926  57.498  1.00  0.00     0.261 C 
HETATM    3  O   UNL     1      10.784  29.701  57.000  1.00  0.00    -0.269 OA
HETATM    4  H   UNL     1       7.626  29.941  57.383  1.00  0.00     0.192 HD
ENDROOT
BRANCH   1   5
HETATM    5  N   UNL     1       8.242  28.756  55.868  1.00  0.00    -0.184 NA
HETATM    6  C   UNL     1       7.614  27.626  55.946  1.00  0.00     0.152 C 
BRANCH   6   7
HETATM    7  C   UNL     1       7.399  26.839  54.747  1.00  0.00     0.011 A 
HETATM    8  C   UNL     1       7.535  25.418  54.620  1.00  0.00     0.004 A 
HETATM    9  C   UNL     1       7.905  24.382  55.504  1.00  0.00     0.014 A 
HETATM   10  C   UNL     1       7.222  25.083  53.301  1.00  0.00     0.043 A 
HETATM   11  C   UNL     1       7.942  23.061  55.045  1.00  0.00     0.001 A 
HETATM   12  C   UNL     1       7.617  22.761  53.725  1.00  0.00     0.002 A 
HETATM   13  C   UNL     1       7.251  23.767  52.826  1.00  0.00     0.030 A 
HETATM   14  N   UNL     1       6.911  26.255  52.651  1.00  0.00    -0.364 N 
HETATM   15  H   UNL     1       6.644  26.317  51.677  1.00  0.00     0.165 HD
HETATM   16  C   UNL     1       7.018  27.316  53.508  1.00  0.00     0.102 A 
ENDBRANCH   6   7
ENDBRANCH   1   5
BRANCH   2  17
HETATM   17  C   UNL     1       9.564  30.699  58.810  1.00  0.00     0.280 C 
BRANCH  17  18
HETATM   18  O   UNL     1       8.428  30.297  59.566  1.00  0.00    -0.340 OA
BRANCH  18  19
HETATM   19  C   UNL     1       8.126  31.056  60.670  1.00  0.00     0.091 A 
HETATM   20  C   UNL     1       7.090  31.995  60.536  1.00  0.00     0.068 A 
HETATM   21 CL   UNL     1       6.252  32.193  59.036  1.00  0.00    -0.081 Cl
HETATM   22  C   UNL     1       6.712  32.805  61.611  1.00  0.00     0.046 A 
HETATM   23  C   UNL     1       7.365  32.671  62.831  1.00  0.00     0.012 A 
HETATM   24 BR   UNL     1       6.862  33.759  64.293  1.00  0.00    -0.051 Br
HETATM   25  C   UNL     1       8.386  31.736  62.986  1.00  0.00     0.022 A 
HETATM   26  C   UNL     1       8.765  30.929  61.909  1.00  0.00     0.040 A 
ENDBRANCH  18  19
ENDBRANCH  17  18
ENDBRANCH   2  17
TORSDOF 5
ENDMDL
MODEL 7
REMARK VINA RESULT:      -8.4      1.336      1.915
REMARK  5 active torsions:
REMARK  status: ('A' for Active; 'I' for Inactive)
REMARK    1  A    between atoms: C_8  and  C_9 
REMARK    2  A    between atoms: N_10  and  N_11 
REMARK       I    between atoms: N_11  and  C_12 
REMARK    3  A    between atoms: C_12  and  C_13 
REMARK    4  A    between atoms: C_13  and  O_14 
REMARK    5  A    between atoms: O_14  and  C_15 
ROOT
HETATM    1  N   UNL     1       6.655  27.379  56.956  1.00  0.00    -0.246 N 
HETATM    2  C   UNL     1       7.452  28.435  57.377  1.00  0.00     0.261 C 
HETATM    3  O   UNL     1       8.682  28.461  57.381  1.00  0.00    -0.269 OA
HETATM    4  H   UNL     1       5.673  27.590  56.776  1.00  0.00     0.192 HD
ENDROOT
BRANCH   1   5
HETATM    5  N   UNL     1       7.085  26.195  56.406  1.00  0.00    -0.184 NA
HETATM    6  C   UNL     1       7.289  25.180  57.185  1.00  0.00     0.152 C 
BRANCH   6   7
HETATM    7  C   UNL     1       7.768  23.931  56.627  1.00  0.00     0.011 A 
HETATM    8  C   UNL     1       7.750  23.546  55.246  1.00  0.00     0.004 A 
HETATM    9  C   UNL     1       7.295  24.161  54.060  1.00  0.00     0.014 A 
HETATM   10  C   UNL     1       8.317  22.274  55.158  1.00  0.00     0.043 A 
HETATM   11  C   UNL     1       7.427  23.491  52.839  1.00  0.00     0.001 A 
HETATM   12  C   UNL     1       8.004  22.225  52.785  1.00  0.00     0.002 A 
HETATM   13  C   UNL     1       8.460  21.591  53.944  1.00  0.00     0.030 A 
HETATM   14  N   UNL     1       8.664  21.898  56.434  1.00  0.00    -0.364 N 
HETATM   15  H   UNL     1       9.097  21.016  56.675  1.00  0.00     0.165 HD
HETATM   16  C   UNL     1       8.335  22.882  57.326  1.00  0.00     0.102 A 
ENDBRANCH   6   7
ENDBRANCH   1   5
BRANCH   2  17
HETATM   17  C   UNL     1       6.648  29.604  57.943  1.00  0.00     0.280 C 
BRANCH  17  18
HETATM   18  O   UNL     1       7.453  30.760  58.142  1.00  0.00    -0.340 OA
BRANCH  18  19
HETATM   19  C   UNL     1       7.586  31.199  59.437  1.00  0.00     0.091 A 
HETATM   20  C   UNL     1       6.725  32.227  59.854  1.00  0.00     0.068 A 
HETATM   21 CL   UNL     1       5.568  32.919  58.771  1.00  0.00    -0.081 Cl
HETATM   22  C   UNL     1       6.786  32.730  61.157  1.00  0.00     0.046 A 
HETATM   23  C   UNL     1       7.705  32.197  62.054  1.00  0.00     0.012 A 
HETATM   24 BR   UNL     1       7.797  32.867  63.819  1.00  0.00    -0.051 Br
HETATM   25  C   UNL     1       8.558  31.166  61.661  1.00  0.00     0.022 A 
HETATM   26  C   UNL     1       8.497  30.667  60.357  1.00  0.00     0.040 A 
ENDBRANCH  18  19
ENDBRANCH  17  18
ENDBRANCH   2  17
TORSDOF 5
ENDMDL
MODEL 8
REMARK VINA RESULT:      -8.4      1.830      2.423
REMARK  5 active torsions:
REMARK  status: ('A' for Active; 'I' for Inactive)
REMARK    1  A    between atoms: C_8  and  C_9 
REMARK    2  A    between atoms: N_10  and  N_11 
REMARK       I    between atoms: N_11  and  C_12 
REMARK    3  A    between atoms: C_12  and  C_13 
REMARK    4  A    between atoms: C_13  and  O_14 
REMARK    5  A    between atoms: O_14  and  C_15 
ROOT
HETATM    1  N   UNL     1       8.462  29.534  56.943  1.00  0.00    -0.246 N 
HETATM    2  C   UNL     1       9.673  30.023  57.415  1.00  0.00     0.261 C 
HETATM    3  O   UNL     1      10.784  29.803  56.934  1.00  0.00    -0.269 OA
HETATM    4  H   UNL     1       7.619  29.995  57.284  1.00  0.00     0.192 HD
ENDROOT
BRANCH   1   5
HETATM    5  N   UNL     1       8.270  28.772  55.815  1.00  0.00    -0.184 NA
HETATM    6  C   UNL     1       7.649  27.640  55.924  1.00  0.00     0.152 C 
BRANCH   6   7
HETATM    7  C   UNL     1       7.459  26.809  54.751  1.00  0.00     0.011 A 
HETATM    8  C   UNL     1       7.574  25.382  54.685  1.00  0.00     0.004 A 
HETATM    9  C   UNL     1       7.896  24.377  55.621  1.00  0.00     0.014 A 
HETATM   10  C   UNL     1       7.296  25.000  53.371  1.00  0.00     0.043 A 
HETATM   11  C   UNL     1       7.923  23.038  55.216  1.00  0.00     0.001 A 
HETATM   12  C   UNL     1       7.636  22.690  53.899  1.00  0.00     0.002 A 
HETATM   13  C   UNL     1       7.317  23.665  52.950  1.00  0.00     0.030 A 
HETATM   14  N   UNL     1       7.027  26.149  52.665  1.00  0.00    -0.364 N 
HETATM   15  H   UNL     1       6.793  26.177  51.681  1.00  0.00     0.165 HD
HETATM   16  C   UNL     1       7.127  27.243  53.482  1.00  0.00     0.102 A 
ENDBRANCH   6   7
ENDBRANCH   1   5
BRANCH   2  17
HETATM   17  C   UNL     1       9.530  30.837  58.700  1.00  0.00     0.280 C 
BRANCH  17  18
HETATM   18  O   UNL     1       8.506  30.326  59.545  1.00  0.00    -0.340 OA
BRANCH  18  19
HETATM   19  C   UNL     1       7.973  31.200  60.461  1.00  0.00     0.091 A 
HETATM   20  C   UNL     1       8.493  31.153  61.765  1.00  0.00     0.068 A 
HETATM   21 CL   UNL     1       9.732  30.026  62.194  1.00  0.00    -0.081 Cl
HETATM   22  C   UNL     1       8.014  32.011  62.760  1.00  0.00     0.046 A 
HETATM   23  C   UNL     1       7.017  32.929  62.448  1.00  0.00     0.012 A 
HETATM   24 BR   UNL     1       6.362  34.096  63.783  1.00  0.00    -0.051 Br
HETATM   25  C   UNL     1       6.500  32.999  61.156  1.00  0.00     0.022 A 
HETATM   26  C   UNL     1       6.978  32.138  60.164  1.00  0.00     0.040 A 
ENDBRANCH  18  19
ENDBRANCH  17  18
ENDBRANCH   2  17
TORSDOF 5
ENDMDL
MODEL 9
REMARK VINA RESULT:      -8.2      1.990      2.807
REMARK  5 active torsions:
REMARK  status: ('A' for Active; 'I' for Inactive)
REMARK    1  A    between atoms: C_8  and  C_9 
REMARK    2  A    between atoms: N_10  and  N_11 
REMARK       I    between atoms: N_11  and  C_12 
REMARK    3  A    between atoms: C_12  and  C_13 
REMARK    4  A    between atoms: C_13  and  O_14 
REMARK    5  A    between atoms: O_14  and  C_15 
ROOT
HETATM    1  N   UNL     1       9.060  29.164  57.590  1.00  0.00    -0.246 N 
HETATM    2  C   UNL     1      10.124  30.041  57.421  1.00  0.00     0.261 C 
HETATM    3  O   UNL     1      11.024  29.942  56.588  1.00  0.00    -0.269 OA
HETATM    4  H   UNL     1       8.272  29.502  58.141  1.00  0.00     0.192 HD
ENDROOT
BRANCH   1   5
HETATM    5  N   UNL     1       8.776  28.062  56.818  1.00  0.00    -0.184 NA
HETATM    6  C   UNL     1       8.314  26.998  57.393  1.00  0.00     0.152 C 
BRANCH   6   7
HETATM    7  C   UNL     1       8.031  25.818  56.601  1.00  0.00     0.011 A 
HETATM    8  C   UNL     1       7.090  25.713  55.525  1.00  0.00     0.004 A 
HETATM    9  C   UNL     1       6.181  26.610  54.922  1.00  0.00     0.014 A 
HETATM   10  C   UNL     1       7.152  24.406  55.039  1.00  0.00     0.043 A 
HETATM   11  C   UNL     1       5.380  26.173  53.862  1.00  0.00     0.001 A 
HETATM   12  C   UNL     1       5.472  24.864  53.397  1.00  0.00     0.002 A 
HETATM   13  C   UNL     1       6.360  23.954  53.977  1.00  0.00     0.030 A 
HETATM   14  N   UNL     1       8.092  23.740  55.791  1.00  0.00    -0.364 N 
HETATM   15  H   UNL     1       8.347  22.770  55.662  1.00  0.00     0.165 HD
HETATM   16  C   UNL     1       8.623  24.576  56.735  1.00  0.00     0.102 A 
ENDBRANCH   6   7
ENDBRANCH   1   5
BRANCH   2  17
HETATM   17  C   UNL     1      10.145  31.163  58.458  1.00  0.00     0.280 C 
BRANCH  17  18
HETATM   18  O   UNL     1       8.851  31.710  58.678  1.00  0.00    -0.340 OA
BRANCH  18  19
HETATM   19  C   UNL     1       8.530  32.022  59.977  1.00  0.00     0.091 A 
HETATM   20  C   UNL     1       7.178  32.285  60.255  1.00  0.00     0.068 A 
HETATM   21 CL   UNL     1       5.983  32.237  59.006  1.00  0.00    -0.081 Cl
HETATM   22  C   UNL     1       6.761  32.604  61.551  1.00  0.00     0.046 A 
HETATM   23  C   UNL     1       7.697  32.651  62.578  1.00  0.00     0.012 A 
HETATM   24 BR   UNL     1       7.145  33.079  64.335  1.00  0.00    -0.051 Br
HETATM   25  C   UNL     1       9.040  32.379  62.323  1.00  0.00     0.022 A 
HETATM   26  C   UNL     1       9.455  32.064  61.026  1.00  0.00     0.040 A 
ENDBRANCH  18  19
ENDBRANCH  17  18
ENDBRANCH   2  17
TORSDOF 5
ENDMDL
MODEL 10
REMARK VINA RESULT:      -8.2      6.449      8.370
REMARK  5 active torsions:
REMARK  status: ('A' for Active; 'I' for Inactive)
REMARK    1  A    between atoms: C_8  and  C_9 
REMARK    2  A    between atoms: N_10  and  N_11 
REMARK       I    between atoms: N_11  and  C_12 
REMARK    3  A    between atoms: C_12  and  C_13 
REMARK    4  A    between atoms: C_13  and  O_14 
REMARK    5  A    between atoms: O_14  and  C_15 
ROOT
HETATM    1  N   UNL     1       6.353  26.688  53.218  1.00  0.00    -0.246 N 
HETATM    2  C   UNL     1       6.220  28.029  53.557  1.00  0.00     0.261 C 
HETATM    3  O   UNL     1       6.692  28.577  54.552  1.00  0.00    -0.269 OA
HETATM    4  H   UNL     1       6.126  26.436  52.256  1.00  0.00     0.192 HD
ENDROOT
BRANCH   1   5
HETATM    5  N   UNL     1       7.091  25.742  53.889  1.00  0.00    -0.184 NA
HETATM    6  C   UNL     1       6.494  24.679  54.328  1.00  0.00     0.152 C 
BRANCH   6   7
HETATM    7  C   UNL     1       7.249  23.682  55.060  1.00  0.00     0.011 A 
HETATM    8  C   UNL     1       7.744  22.438  54.549  1.00  0.00     0.004 A 
HETATM    9  C   UNL     1       7.673  21.790  53.297  1.00  0.00     0.014 A 
HETATM   10  C   UNL     1       8.422  21.798  55.589  1.00  0.00     0.043 A 
HETATM   11  C   UNL     1       8.280  20.541  53.130  1.00  0.00     0.001 A 
HETATM   12  C   UNL     1       8.954  19.933  54.186  1.00  0.00     0.002 A 
HETATM   13  C   UNL     1       9.038  20.550  55.437  1.00  0.00     0.030 A 
HETATM   14  N   UNL     1       8.339  22.618  56.689  1.00  0.00    -0.364 N 
HETATM   15  H   UNL     1       8.742  22.409  57.593  1.00  0.00     0.165 HD
HETATM   16  C   UNL     1       7.632  23.750  56.386  1.00  0.00     0.102 A 
ENDBRANCH   6   7
ENDBRANCH   1   5
BRANCH   2  17
HETATM   17  C   UNL     1       5.324  28.804  52.594  1.00  0.00     0.280 C 
BRANCH  17  18
HETATM   18  O   UNL     1       5.796  28.737  51.254  1.00  0.00    -0.340 OA
BRANCH  18  19
HETATM   19  C   UNL     1       4.935  28.208  50.324  1.00  0.00     0.091 A 
HETATM   20  C   UNL     1       4.043  29.096  49.701  1.00  0.00     0.068 A 
HETATM   21 CL   UNL     1       4.023  30.776  50.110  1.00  0.00    -0.081 Cl
HETATM   22  C   UNL     1       3.135  28.644  48.739  1.00  0.00     0.046 A 
HETATM   23  C   UNL     1       3.124  27.298  48.387  1.00  0.00     0.012 A 
HETATM   24 BR   UNL     1       1.904  26.675  47.085  1.00  0.00    -0.051 Br
HETATM   25  C   UNL     1       4.012  26.405  48.985  1.00  0.00     0.022 A 
HETATM   26  C   UNL     1       4.916  26.859  49.950  1.00  0.00     0.040 A 
ENDBRANCH  18  19
ENDBRANCH  17  18
ENDBRANCH   2  17
TORSDOF 5
ENDMDL
