MODEL 1
REMARK VINA RESULT:      -9.5      0.000      0.000
REMARK  6 active torsions:
REMARK  status: ('A' for Active; 'I' for Inactive)
REMARK    1  A    between atoms: C_2  and  N_3 
REMARK       I    between atoms: N_3  and  C_4 
REMARK    2  A    between atoms: C_4  and  C_5 
REMARK    3  A    between atoms: C_7  and  N_8 
REMARK       I    between atoms: N_8  and  C_9 
REMARK    4  A    between atoms: C_9  and  C_10 
REMARK    5  A    between atoms: C_10  and  C_11 
REMARK    6  A    between atoms: C_15  and  O_16 
ROOT
HETATM    1  N   UNL     1       7.223  27.818  57.054  1.00  0.00    -0.327 N 
HETATM    2  C   UNL     1       7.074  26.559  57.616  1.00  0.00     0.226 C 
HETATM    3  O   UNL     1       7.816  26.056  58.458  1.00  0.00    -0.273 OA
HETATM    4  H   UNL     1       6.625  28.045  56.268  1.00  0.00     0.169 HD
ENDROOT
BRANCH   1   5
HETATM    5  C   UNL     1       8.131  28.820  57.456  1.00  0.00     0.035 A 
HETATM    6  C   UNL     1       7.842  29.763  58.448  1.00  0.00     0.046 A 
HETATM    7  C   UNL     1       8.778  30.744  58.802  1.00  0.00     0.034 A 
HETATM    8  C   UNL     1      10.009  30.789  58.134  1.00  0.00     0.017 A 
HETATM    9  C   UNL     1      10.298  29.863  57.132  1.00  0.00     0.003 A 
HETATM   10  C   UNL     1       9.361  28.886  56.793  1.00  0.00     0.029 A 
BRANCH   7  11
HETATM   11  C   UNL     1       8.495  31.785  59.835  1.00  0.00     0.251 C 
HETATM   12  N   UNL     1       7.558  31.476  60.801  1.00  0.00    -0.357 N 
HETATM   13  H   UNL     1       7.215  30.529  60.890  1.00  0.00     0.162 HD
HETATM   14  O   UNL     1       9.095  32.855  59.805  1.00  0.00    -0.268 OA
BRANCH  12  15
HETATM   15  C   UNL     1       7.217  32.403  61.860  1.00  0.00     0.118 C 
HETATM   16  C   UNL     1       8.016  32.126  63.119  1.00  0.00     0.026 C 
ENDBRANCH  12  15
ENDBRANCH   7  11
ENDBRANCH   1   5
BRANCH   2  17
HETATM   17  C   UNL     1       5.875  25.794  57.083  1.00  0.00     0.144 C 
BRANCH  17  18
HETATM   18  C   UNL     1       6.142  25.139  55.768  1.00  0.00    -0.014 A 
HETATM   19  C   UNL     1       7.070  24.090  55.463  1.00  0.00     0.006 A 
HETATM   20  C   UNL     1       6.930  23.835  54.105  1.00  0.00     0.088 A 
HETATM   21  C   UNL     1       8.007  23.324  56.182  1.00  0.00     0.017 A 
HETATM   22  C   UNL     1       7.645  22.863  53.412  1.00  0.00     0.074 A 
HETATM   23  O   UNL     1       5.999  24.665  53.563  1.00  0.00    -0.321 OA
HETATM   24  C   UNL     1       8.551  22.090  54.147  1.00  0.00     0.070 A 
HETATM   25  C   UNL     1       8.733  22.325  55.513  1.00  0.00     0.038 A 
HETATM   26  C   UNL     1       5.535  25.451  54.565  1.00  0.00     0.151 A 
BRANCH  24  27
HETATM   27  O   UNL     1       9.207  21.138  53.411  1.00  0.00    -0.356 OA
HETATM   28  C   UNL     1       8.402  20.235  52.665  1.00  0.00     0.210 C 
ENDBRANCH  24  27
ENDBRANCH  17  18
ENDBRANCH   2  17
TORSDOF 6
ENDMDL
MODEL 2
REMARK VINA RESULT:      -8.8      3.513     10.502
REMARK  6 active torsions:
REMARK  status: ('A' for Active; 'I' for Inactive)
REMARK    1  A    between atoms: C_2  and  N_3 
REMARK       I    between atoms: N_3  and  C_4 
REMARK    2  A    between atoms: C_4  and  C_5 
REMARK    3  A    between atoms: C_7  and  N_8 
REMARK       I    between atoms: N_8  and  C_9 
REMARK    4  A    between atoms: C_9  and  C_10 
REMARK    5  A    between atoms: C_10  and  C_11 
REMARK    6  A    between atoms: C_15  and  O_16 
ROOT
HETATM    1  N   UNL     1       9.225  30.492  59.747  1.00  0.00    -0.327 N 
HETATM    2  C   UNL     1       9.136  31.783  60.242  1.00  0.00     0.226 C 
HETATM    3  O   UNL     1       9.236  32.816  59.582  1.00  0.00    -0.273 OA
HETATM    4  H   UNL     1       9.269  29.740  60.424  1.00  0.00     0.169 HD
ENDROOT
BRANCH   1   5
HETATM    5  C   UNL     1       9.269  30.110  58.389  1.00  0.00     0.035 A 
HETATM    6  C   UNL     1       8.152  29.647  57.686  1.00  0.00     0.046 A 
HETATM    7  C   UNL     1       8.255  29.272  56.339  1.00  0.00     0.034 A 
HETATM    8  C   UNL     1       9.501  29.343  55.702  1.00  0.00     0.017 A 
HETATM    9  C   UNL     1      10.623  29.788  56.401  1.00  0.00     0.003 A 
HETATM   10  C   UNL     1      10.507  30.166  57.739  1.00  0.00     0.029 A 
BRANCH   7  11
HETATM   11  C   UNL     1       7.092  28.746  55.564  1.00  0.00     0.251 C 
HETATM   12  N   UNL     1       7.264  28.578  54.204  1.00  0.00    -0.357 N 
HETATM   13  H   UNL     1       8.187  28.651  53.798  1.00  0.00     0.162 HD
HETATM   14  O   UNL     1       6.045  28.474  56.143  1.00  0.00    -0.268 OA
BRANCH  12  15
HETATM   15  C   UNL     1       6.209  28.060  53.358  1.00  0.00     0.118 C 
HETATM   16  C   UNL     1       6.372  26.572  53.117  1.00  0.00     0.026 C 
ENDBRANCH  12  15
ENDBRANCH   7  11
ENDBRANCH   1   5
BRANCH   2  17
HETATM   17  C   UNL     1       8.907  31.843  61.743  1.00  0.00     0.144 C 
BRANCH  17  18
HETATM   18  C   UNL     1       7.507  32.216  62.104  1.00  0.00    -0.014 A 
HETATM   19  C   UNL     1       7.016  32.768  63.332  1.00  0.00     0.006 A 
HETATM   20  C   UNL     1       5.648  32.937  63.158  1.00  0.00     0.088 A 
HETATM   21  C   UNL     1       7.573  33.148  64.567  1.00  0.00     0.017 A 
HETATM   22  C   UNL     1       4.796  33.471  64.120  1.00  0.00     0.074 A 
HETATM   23  O   UNL     1       5.274  32.511  61.922  1.00  0.00    -0.321 OA
HETATM   24  C   UNL     1       5.371  33.872  65.331  1.00  0.00     0.070 A 
HETATM   25  C   UNL     1       6.740  33.704  65.553  1.00  0.00     0.038 A 
HETATM   26  C   UNL     1       6.393  32.072  61.297  1.00  0.00     0.151 A 
BRANCH  24  27
HETATM   27  O   UNL     1       4.482  34.408  66.227  1.00  0.00    -0.356 OA
HETATM   28  C   UNL     1       4.668  34.069  67.596  1.00  0.00     0.210 C 
ENDBRANCH  24  27
ENDBRANCH  17  18
ENDBRANCH   2  17
TORSDOF 6
ENDMDL
MODEL 3
REMARK VINA RESULT:      -8.6      1.637      3.090
REMARK  6 active torsions:
REMARK  status: ('A' for Active; 'I' for Inactive)
REMARK    1  A    between atoms: C_2  and  N_3 
REMARK       I    between atoms: N_3  and  C_4 
REMARK    2  A    between atoms: C_4  and  C_5 
REMARK    3  A    between atoms: C_7  and  N_8 
REMARK       I    between atoms: N_8  and  C_9 
REMARK    4  A    between atoms: C_9  and  C_10 
REMARK    5  A    between atoms: C_10  and  C_11 
REMARK    6  A    between atoms: C_15  and  O_16 
ROOT
HETATM    1  N   UNL     1       7.417  27.745  57.036  1.00  0.00    -0.327 N 
HETATM    2  C   UNL     1       7.281  26.486  57.600  1.00  0.00     0.226 C 
HETATM    3  O   UNL     1       8.066  25.962  58.388  1.00  0.00    -0.273 OA
HETATM    4  H   UNL     1       6.773  27.989  56.293  1.00  0.00     0.169 HD
ENDROOT
BRANCH   1   5
HETATM    5  C   UNL     1       8.370  28.726  57.383  1.00  0.00     0.035 A 
HETATM    6  C   UNL     1       8.210  29.603  58.461  1.00  0.00     0.046 A 
HETATM    7  C   UNL     1       9.185  30.567  58.754  1.00  0.00     0.034 A 
HETATM    8  C   UNL     1      10.321  30.662  57.940  1.00  0.00     0.017 A 
HETATM    9  C   UNL     1      10.479  29.803  56.853  1.00  0.00     0.003 A 
HETATM   10  C   UNL     1       9.505  28.842  56.574  1.00  0.00     0.029 A 
BRANCH   7  11
HETATM   11  C   UNL     1       9.036  31.538  59.879  1.00  0.00     0.251 C 
HETATM   12  N   UNL     1       8.858  31.015  61.145  1.00  0.00    -0.357 N 
HETATM   13  H   UNL     1       8.993  30.026  61.308  1.00  0.00     0.162 HD
HETATM   14  O   UNL     1       9.086  32.743  59.656  1.00  0.00    -0.268 OA
BRANCH  12  15
HETATM   15  C   UNL     1       8.719  31.863  62.310  1.00  0.00     0.118 C 
HETATM   16  C   UNL     1       7.266  32.014  62.718  1.00  0.00     0.026 C 
ENDBRANCH  12  15
ENDBRANCH   7  11
ENDBRANCH   1   5
BRANCH   2  17
HETATM   17  C   UNL     1       6.033  25.748  57.143  1.00  0.00     0.144 C 
BRANCH  17  18
HETATM   18  C   UNL     1       6.189  25.122  55.797  1.00  0.00    -0.014 A 
HETATM   19  C   UNL     1       5.780  25.630  54.521  1.00  0.00     0.006 A 
HETATM   20  C   UNL     1       6.157  24.673  53.587  1.00  0.00     0.088 A 
HETATM   21  C   UNL     1       5.139  26.791  54.050  1.00  0.00     0.017 A 
HETATM   22  C   UNL     1       5.956  24.795  52.215  1.00  0.00     0.074 A 
HETATM   23  O   UNL     1       6.748  23.617  54.206  1.00  0.00    -0.321 OA
HETATM   24  C   UNL     1       5.345  25.969  51.760  1.00  0.00     0.070 A 
HETATM   25  C   UNL     1       4.935  26.949  52.669  1.00  0.00     0.038 A 
HETATM   26  C   UNL     1       6.757  23.888  55.534  1.00  0.00     0.151 A 
BRANCH  24  27
HETATM   27  O   UNL     1       5.194  26.036  50.400  1.00  0.00    -0.356 OA
HETATM   28  C   UNL     1       4.465  27.145  49.888  1.00  0.00     0.210 C 
ENDBRANCH  24  27
ENDBRANCH  17  18
ENDBRANCH   2  17
TORSDOF 6
ENDMDL
MODEL 4
REMARK VINA RESULT:      -8.3      2.161      9.721
REMARK  6 active torsions:
REMARK  status: ('A' for Active; 'I' for Inactive)
REMARK    1  A    between atoms: C_2  and  N_3 
REMARK       I    between atoms: N_3  and  C_4 
REMARK    2  A    between atoms: C_4  and  C_5 
REMARK    3  A    between atoms: C_7  and  N_8 
REMARK       I    between atoms: N_8  and  C_9 
REMARK    4  A    between atoms: C_9  and  C_10 
REMARK    5  A    between atoms: C_10  and  C_11 
REMARK    6  A    between atoms: C_15  and  O_16 
ROOT
HETATM    1  N   UNL     1       8.309  27.876  57.638  1.00  0.00    -0.327 N 
HETATM    2  C   UNL     1       8.831  29.028  57.072  1.00  0.00     0.226 C 
HETATM    3  O   UNL     1       8.947  29.249  55.867  1.00  0.00    -0.273 OA
HETATM    4  H   UNL     1       8.408  27.769  58.640  1.00  0.00     0.169 HD
ENDROOT
BRANCH   1   5
HETATM    5  C   UNL     1       7.656  26.824  56.960  1.00  0.00     0.035 A 
HETATM    6  C   UNL     1       8.243  25.575  56.737  1.00  0.00     0.046 A 
HETATM    7  C   UNL     1       7.553  24.568  56.048  1.00  0.00     0.034 A 
HETATM    8  C   UNL     1       6.266  24.831  55.560  1.00  0.00     0.017 A 
HETATM    9  C   UNL     1       5.680  26.080  55.764  1.00  0.00     0.003 A 
HETATM   10  C   UNL     1       6.374  27.073  56.457  1.00  0.00     0.029 A 
BRANCH   7  11
HETATM   11  C   UNL     1       8.158  23.232  55.765  1.00  0.00     0.251 C 
HETATM   12  N   UNL     1       8.347  22.893  54.440  1.00  0.00    -0.357 N 
HETATM   13  H   UNL     1       8.235  23.590  53.718  1.00  0.00     0.162 HD
HETATM   14  O   UNL     1       8.472  22.494  56.695  1.00  0.00    -0.268 OA
BRANCH  12  15
HETATM   15  C   UNL     1       8.941  21.630  54.052  1.00  0.00     0.118 C 
HETATM   16  C   UNL     1       8.049  20.870  53.089  1.00  0.00     0.026 C 
ENDBRANCH  12  15
ENDBRANCH   7  11
ENDBRANCH   1   5
BRANCH   2  17
HETATM   17  C   UNL     1       9.291  30.052  58.095  1.00  0.00     0.144 C 
BRANCH  17  18
HETATM   18  C   UNL     1       8.157  30.788  58.730  1.00  0.00    -0.014 A 
HETATM   19  C   UNL     1       8.060  31.306  60.063  1.00  0.00     0.006 A 
HETATM   20  C   UNL     1       6.811  31.907  60.153  1.00  0.00     0.088 A 
HETATM   21  C   UNL     1       8.889  31.339  61.200  1.00  0.00     0.017 A 
HETATM   22  C   UNL     1       6.331  32.551  61.289  1.00  0.00     0.074 A 
HETATM   23  O   UNL     1       6.139  31.774  58.978  1.00  0.00    -0.321 OA
HETATM   24  C   UNL     1       7.179  32.602  62.401  1.00  0.00     0.070 A 
HETATM   25  C   UNL     1       8.438  31.996  62.358  1.00  0.00     0.038 A 
HETATM   26  C   UNL     1       6.949  31.095  58.130  1.00  0.00     0.151 A 
BRANCH  24  27
HETATM   27  O   UNL     1       6.656  33.267  63.480  1.00  0.00    -0.356 OA
HETATM   28  C   UNL     1       7.524  33.481  64.586  1.00  0.00     0.210 C 
ENDBRANCH  24  27
ENDBRANCH  17  18
ENDBRANCH   2  17
TORSDOF 6
ENDMDL
MODEL 5
REMARK VINA RESULT:      -8.3      2.731      5.667
REMARK  6 active torsions:
REMARK  status: ('A' for Active; 'I' for Inactive)
REMARK    1  A    between atoms: C_2  and  N_3 
REMARK       I    between atoms: N_3  and  C_4 
REMARK    2  A    between atoms: C_4  and  C_5 
REMARK    3  A    between atoms: C_7  and  N_8 
REMARK       I    between atoms: N_8  and  C_9 
REMARK    4  A    between atoms: C_9  and  C_10 
REMARK    5  A    between atoms: C_10  and  C_11 
REMARK    6  A    between atoms: C_15  and  O_16 
ROOT
HETATM    1  N   UNL     1       7.647  30.961  60.785  1.00  0.00    -0.327 N 
HETATM    2  C   UNL     1       8.331  31.301  59.628  1.00  0.00     0.226 C 
HETATM    3  O   UNL     1       8.609  32.443  59.267  1.00  0.00    -0.273 OA
HETATM    4  H   UNL     1       7.361  29.994  60.884  1.00  0.00     0.169 HD
ENDROOT
BRANCH   1   5
HETATM    5  C   UNL     1       7.298  31.826  61.844  1.00  0.00     0.035 A 
HETATM    6  C   UNL     1       6.093  32.535  61.888  1.00  0.00     0.046 A 
HETATM    7  C   UNL     1       5.801  33.390  62.960  1.00  0.00     0.034 A 
HETATM    8  C   UNL     1       6.742  33.548  63.986  1.00  0.00     0.017 A 
HETATM    9  C   UNL     1       7.953  32.858  63.940  1.00  0.00     0.003 A 
HETATM   10  C   UNL     1       8.231  32.004  62.871  1.00  0.00     0.029 A 
BRANCH   7  11
HETATM   11  C   UNL     1       4.538  34.185  63.029  1.00  0.00     0.251 C 
HETATM   12  N   UNL     1       3.350  33.482  63.035  1.00  0.00    -0.357 N 
HETATM   13  H   UNL     1       3.356  32.478  63.158  1.00  0.00     0.162 HD
HETATM   14  O   UNL     1       4.590  35.409  63.086  1.00  0.00    -0.268 OA
BRANCH  12  15
HETATM   15  C   UNL     1       2.068  34.149  63.115  1.00  0.00     0.118 C 
HETATM   16  C   UNL     1       1.583  34.587  61.746  1.00  0.00     0.026 C 
ENDBRANCH  12  15
ENDBRANCH   7  11
ENDBRANCH   1   5
BRANCH   2  17
HETATM   17  C   UNL     1       8.725  30.102  58.782  1.00  0.00     0.144 C 
BRANCH  17  18
HETATM   18  C   UNL     1       7.576  29.525  58.022  1.00  0.00    -0.014 A 
HETATM   19  C   UNL     1       7.468  28.235  57.406  1.00  0.00     0.006 A 
HETATM   20  C   UNL     1       6.202  28.187  56.834  1.00  0.00     0.088 A 
HETATM   21  C   UNL     1       8.293  27.103  57.272  1.00  0.00     0.017 A 
HETATM   22  C   UNL     1       5.693  27.086  56.150  1.00  0.00     0.074 A 
HETATM   23  O   UNL     1       5.546  29.358  57.044  1.00  0.00    -0.321 OA
HETATM   24  C   UNL     1       6.515  25.958  56.053  1.00  0.00     0.070 A 
HETATM   25  C   UNL     1       7.801  25.972  56.600  1.00  0.00     0.038 A 
HETATM   26  C   UNL     1       6.378  30.161  57.751  1.00  0.00     0.151 A 
BRANCH  24  27
HETATM   27  O   UNL     1       5.948  24.904  55.386  1.00  0.00    -0.356 OA
HETATM   28  C   UNL     1       5.399  25.176  54.103  1.00  0.00     0.210 C 
ENDBRANCH  24  27
ENDBRANCH  17  18
ENDBRANCH   2  17
TORSDOF 6
ENDMDL
MODEL 6
REMARK VINA RESULT:      -8.2      2.297      9.434
REMARK  6 active torsions:
REMARK  status: ('A' for Active; 'I' for Inactive)
REMARK    1  A    between atoms: C_2  and  N_3 
REMARK       I    between atoms: N_3  and  C_4 
REMARK    2  A    between atoms: C_4  and  C_5 
REMARK    3  A    between atoms: C_7  and  N_8 
REMARK       I    between atoms: N_8  and  C_9 
REMARK    4  A    between atoms: C_9  and  C_10 
REMARK    5  A    between atoms: C_10  and  C_11 
REMARK    6  A    between atoms: C_15  and  O_16 
ROOT
HETATM    1  N   UNL     1       6.292  28.256  55.005  1.00  0.00    -0.327 N 
HETATM    2  C   UNL     1       5.893  28.659  56.270  1.00  0.00     0.226 C 
HETATM    3  O   UNL     1       5.228  27.993  57.061  1.00  0.00    -0.273 OA
HETATM    4  H   UNL     1       6.708  28.959  54.407  1.00  0.00     0.169 HD
ENDROOT
BRANCH   1   5
HETATM    5  C   UNL     1       6.170  26.962  54.454  1.00  0.00     0.035 A 
HETATM    6  C   UNL     1       7.032  25.909  54.775  1.00  0.00     0.046 A 
HETATM    7  C   UNL     1       6.871  24.645  54.190  1.00  0.00     0.034 A 
HETATM    8  C   UNL     1       5.845  24.447  53.257  1.00  0.00     0.017 A 
HETATM    9  C   UNL     1       4.992  25.498  52.919  1.00  0.00     0.003 A 
HETATM   10  C   UNL     1       5.157  26.750  53.512  1.00  0.00     0.029 A 
BRANCH   7  11
HETATM   11  C   UNL     1       7.789  23.504  54.486  1.00  0.00     0.251 C 
HETATM   12  N   UNL     1       7.427  22.262  54.001  1.00  0.00    -0.357 N 
HETATM   13  H   UNL     1       6.668  22.178  53.339  1.00  0.00     0.162 HD
HETATM   14  O   UNL     1       8.817  23.697  55.126  1.00  0.00    -0.268 OA
BRANCH  12  15
HETATM   15  C   UNL     1       8.250  21.090  54.214  1.00  0.00     0.118 C 
HETATM   16  C   UNL     1       8.569  20.390  52.907  1.00  0.00     0.026 C 
ENDBRANCH  12  15
ENDBRANCH   7  11
ENDBRANCH   1   5
BRANCH   2  17
HETATM   17  C   UNL     1       6.345  30.065  56.628  1.00  0.00     0.144 C 
BRANCH  17  18
HETATM   18  C   UNL     1       7.435  30.082  57.648  1.00  0.00    -0.014 A 
HETATM   19  C   UNL     1       7.483  30.787  58.895  1.00  0.00     0.006 A 
HETATM   20  C   UNL     1       8.707  30.467  59.471  1.00  0.00     0.088 A 
HETATM   21  C   UNL     1       6.630  31.653  59.604  1.00  0.00     0.017 A 
HETATM   22  C   UNL     1       9.137  30.936  60.709  1.00  0.00     0.074 A 
HETATM   23  O   UNL     1       9.408  29.636  58.655  1.00  0.00    -0.321 OA
HETATM   24  C   UNL     1       8.264  31.772  61.414  1.00  0.00     0.070 A 
HETATM   25  C   UNL     1       7.031  32.132  60.863  1.00  0.00     0.038 A 
HETATM   26  C   UNL     1       8.643  29.414  57.559  1.00  0.00     0.151 A 
BRANCH  24  27
HETATM   27  O   UNL     1       8.738  32.183  62.633  1.00  0.00    -0.356 OA
HETATM   28  C   UNL     1       7.784  32.705  63.550  1.00  0.00     0.210 C 
ENDBRANCH  24  27
ENDBRANCH  17  18
ENDBRANCH   2  17
TORSDOF 6
ENDMDL
MODEL 7
REMARK VINA RESULT:      -8.1      1.726      2.158
REMARK  6 active torsions:
REMARK  status: ('A' for Active; 'I' for Inactive)
REMARK    1  A    between atoms: C_2  and  N_3 
REMARK       I    between atoms: N_3  and  C_4 
REMARK    2  A    between atoms: C_4  and  C_5 
REMARK    3  A    between atoms: C_7  and  N_8 
REMARK       I    between atoms: N_8  and  C_9 
REMARK    4  A    between atoms: C_9  and  C_10 
REMARK    5  A    between atoms: C_10  and  C_11 
REMARK    6  A    between atoms: C_15  and  O_16 
ROOT
HETATM    1  N   UNL     1       4.994  28.403  56.954  1.00  0.00    -0.327 N 
HETATM    2  C   UNL     1       5.873  27.389  56.608  1.00  0.00     0.226 C 
HETATM    3  O   UNL     1       7.085  27.514  56.439  1.00  0.00    -0.273 OA
HETATM    4  H   UNL     1       4.005  28.187  56.917  1.00  0.00     0.169 HD
ENDROOT
BRANCH   1   5
HETATM    5  C   UNL     1       5.332  29.715  57.346  1.00  0.00     0.035 A 
HETATM    6  C   UNL     1       6.368  30.005  58.239  1.00  0.00     0.046 A 
HETATM    7  C   UNL     1       6.655  31.329  58.603  1.00  0.00     0.034 A 
HETATM    8  C   UNL     1       5.875  32.367  58.078  1.00  0.00     0.017 A 
HETATM    9  C   UNL     1       4.829  32.085  57.200  1.00  0.00     0.003 A 
HETATM   10  C   UNL     1       4.557  30.764  56.840  1.00  0.00     0.029 A 
BRANCH   7  11
HETATM   11  C   UNL     1       7.735  31.675  59.576  1.00  0.00     0.251 C 
HETATM   12  N   UNL     1       7.747  30.990  60.774  1.00  0.00    -0.357 N 
HETATM   13  H   UNL     1       7.154  30.181  60.902  1.00  0.00     0.162 HD
HETATM   14  O   UNL     1       8.566  32.530  59.287  1.00  0.00    -0.268 OA
BRANCH  12  15
HETATM   15  C   UNL     1       8.758  31.233  61.783  1.00  0.00     0.118 C 
HETATM   16  C   UNL     1       8.255  32.179  62.856  1.00  0.00     0.026 C 
ENDBRANCH  12  15
ENDBRANCH   7  11
ENDBRANCH   1   5
BRANCH   2  17
HETATM   17  C   UNL     1       5.201  26.038  56.428  1.00  0.00     0.144 C 
BRANCH  17  18
HETATM   18  C   UNL     1       5.676  25.310  55.213  1.00  0.00    -0.014 A 
HETATM   19  C   UNL     1       6.672  24.284  55.117  1.00  0.00     0.006 A 
HETATM   20  C   UNL     1       6.737  23.936  53.773  1.00  0.00     0.088 A 
HETATM   21  C   UNL     1       7.520  23.607  56.013  1.00  0.00     0.017 A 
HETATM   22  C   UNL     1       7.576  22.952  53.259  1.00  0.00     0.074 A 
HETATM   23  O   UNL     1       5.867  24.689  53.049  1.00  0.00    -0.321 OA
HETATM   24  C   UNL     1       8.391  22.268  54.167  1.00  0.00     0.070 A 
HETATM   25  C   UNL     1       8.368  22.599  55.525  1.00  0.00     0.038 A 
HETATM   26  C   UNL     1       5.238  25.518  53.918  1.00  0.00     0.151 A 
BRANCH  24  27
HETATM   27  O   UNL     1       9.178  21.299  53.600  1.00  0.00    -0.356 OA
HETATM   28  C   UNL     1       8.521  20.331  52.791  1.00  0.00     0.210 C 
ENDBRANCH  24  27
ENDBRANCH  17  18
ENDBRANCH   2  17
TORSDOF 6
ENDMDL
MODEL 8
REMARK VINA RESULT:      -8.1      2.975      5.910
REMARK  6 active torsions:
REMARK  status: ('A' for Active; 'I' for Inactive)
REMARK    1  A    between atoms: C_2  and  N_3 
REMARK       I    between atoms: N_3  and  C_4 
REMARK    2  A    between atoms: C_4  and  C_5 
REMARK    3  A    between atoms: C_7  and  N_8 
REMARK       I    between atoms: N_8  and  C_9 
REMARK    4  A    between atoms: C_9  and  C_10 
REMARK    5  A    between atoms: C_10  and  C_11 
REMARK    6  A    between atoms: C_15  and  O_16 
ROOT
HETATM    1  N   UNL     1       6.120  31.706  60.478  1.00  0.00    -0.327 N 
HETATM    2  C   UNL     1       6.796  31.858  59.277  1.00  0.00     0.226 C 
HETATM    3  O   UNL     1       7.819  32.520  59.106  1.00  0.00    -0.273 OA
HETATM    4  H   UNL     1       5.214  31.255  60.442  1.00  0.00     0.169 HD
ENDROOT
BRANCH   1   5
HETATM    5  C   UNL     1       6.559  32.125  61.752  1.00  0.00     0.035 A 
HETATM    6  C   UNL     1       5.702  32.653  62.723  1.00  0.00     0.046 A 
HETATM    7  C   UNL     1       6.194  33.063  63.970  1.00  0.00     0.034 A 
HETATM    8  C   UNL     1       7.566  32.961  64.232  1.00  0.00     0.017 A 
HETATM    9  C   UNL     1       8.430  32.451  63.263  1.00  0.00     0.003 A 
HETATM   10  C   UNL     1       7.928  32.040  62.027  1.00  0.00     0.029 A 
BRANCH   7  11
HETATM   11  C   UNL     1       5.314  33.658  65.021  1.00  0.00     0.251 C 
HETATM   12  N   UNL     1       5.920  34.450  65.975  1.00  0.00    -0.357 N 
HETATM   13  H   UNL     1       6.881  34.741  65.857  1.00  0.00     0.162 HD
HETATM   14  O   UNL     1       4.107  33.440  65.002  1.00  0.00    -0.268 OA
BRANCH  12  15
HETATM   15  C   UNL     1       5.162  35.090  67.030  1.00  0.00     0.118 C 
HETATM   16  C   UNL     1       5.213  34.288  68.316  1.00  0.00     0.026 C 
ENDBRANCH  12  15
ENDBRANCH   7  11
ENDBRANCH   1   5
BRANCH   2  17
HETATM   17  C   UNL     1       6.146  31.123  58.117  1.00  0.00     0.144 C 
BRANCH  17  18
HETATM   18  C   UNL     1       6.748  29.780  57.870  1.00  0.00    -0.014 A 
HETATM   19  C   UNL     1       6.265  28.724  57.029  1.00  0.00     0.006 A 
HETATM   20  C   UNL     1       7.187  27.690  57.142  1.00  0.00     0.088 A 
HETATM   21  C   UNL     1       5.157  28.527  56.183  1.00  0.00     0.017 A 
HETATM   22  C   UNL     1       7.093  26.480  56.461  1.00  0.00     0.074 A 
HETATM   23  O   UNL     1       8.180  28.037  58.002  1.00  0.00    -0.321 OA
HETATM   24  C   UNL     1       6.002  26.312  55.601  1.00  0.00     0.070 A 
HETATM   25  C   UNL     1       5.044  27.321  55.472  1.00  0.00     0.038 A 
HETATM   26  C   UNL     1       7.908  29.290  58.442  1.00  0.00     0.151 A 
BRANCH  24  27
HETATM   27  O   UNL     1       5.980  25.108  54.947  1.00  0.00    -0.356 OA
HETATM   28  C   UNL     1       5.296  25.067  53.701  1.00  0.00     0.210 C 
ENDBRANCH  24  27
ENDBRANCH  17  18
ENDBRANCH   2  17
TORSDOF 6
ENDMDL
MODEL 9
REMARK VINA RESULT:      -8.1      4.951      8.477
REMARK  6 active torsions:
REMARK  status: ('A' for Active; 'I' for Inactive)
REMARK    1  A    between atoms: C_2  and  N_3 
REMARK       I    between atoms: N_3  and  C_4 
REMARK    2  A    between atoms: C_4  and  C_5 
REMARK    3  A    between atoms: C_7  and  N_8 
REMARK       I    between atoms: N_8  and  C_9 
REMARK    4  A    between atoms: C_9  and  C_10 
REMARK    5  A    between atoms: C_10  and  C_11 
REMARK    6  A    between atoms: C_15  and  O_16 
ROOT
HETATM    1  N   UNL     1       6.040  28.936  52.429  1.00  0.00    -0.327 N 
HETATM    2  C   UNL     1       5.274  28.751  53.570  1.00  0.00     0.226 C 
HETATM    3  O   UNL     1       4.052  28.870  53.644  1.00  0.00    -0.273 OA
HETATM    4  H   UNL     1       7.045  28.948  52.546  1.00  0.00     0.169 HD
ENDROOT
BRANCH   1   5
HETATM    5  C   UNL     1       5.562  29.118  51.114  1.00  0.00     0.035 A 
HETATM    6  C   UNL     1       5.267  28.057  50.252  1.00  0.00     0.046 A 
HETATM    7  C   UNL     1       4.805  28.296  48.950  1.00  0.00     0.034 A 
HETATM    8  C   UNL     1       4.660  29.617  48.506  1.00  0.00     0.017 A 
HETATM    9  C   UNL     1       4.969  30.680  49.354  1.00  0.00     0.003 A 
HETATM   10  C   UNL     1       5.422  30.431  50.651  1.00  0.00     0.029 A 
BRANCH   7  11
HETATM   11  C   UNL     1       4.506  27.190  47.991  1.00  0.00     0.251 C 
HETATM   12  N   UNL     1       3.298  26.538  48.138  1.00  0.00    -0.357 N 
HETATM   13  H   UNL     1       2.592  26.913  48.756  1.00  0.00     0.162 HD
HETATM   14  O   UNL     1       5.317  26.905  47.116  1.00  0.00    -0.268 OA
BRANCH  12  15
HETATM   15  C   UNL     1       2.898  25.462  47.254  1.00  0.00     0.118 C 
HETATM   16  C   UNL     1       2.880  24.129  47.976  1.00  0.00     0.026 C 
ENDBRANCH  12  15
ENDBRANCH   7  11
ENDBRANCH   1   5
BRANCH   2  17
HETATM   17  C   UNL     1       6.093  28.385  54.797  1.00  0.00     0.144 C 
BRANCH  17  18
HETATM   18  C   UNL     1       6.166  26.912  55.029  1.00  0.00    -0.014 A 
HETATM   19  C   UNL     1       6.776  25.907  54.209  1.00  0.00     0.006 A 
HETATM   20  C   UNL     1       6.574  24.699  54.867  1.00  0.00     0.088 A 
HETATM   21  C   UNL     1       7.481  25.881  52.991  1.00  0.00     0.017 A 
HETATM   22  C   UNL     1       7.035  23.469  54.406  1.00  0.00     0.074 A 
HETATM   23  O   UNL     1       5.870  24.899  56.013  1.00  0.00    -0.321 OA
HETATM   24  C   UNL     1       7.759  23.466  53.209  1.00  0.00     0.070 A 
HETATM   25  C   UNL     1       7.971  24.656  52.508  1.00  0.00     0.038 A 
HETATM   26  C   UNL     1       5.622  26.229  56.101  1.00  0.00     0.151 A 
BRANCH  24  27
HETATM   27  O   UNL     1       8.201  22.228  52.821  1.00  0.00    -0.356 OA
HETATM   28  C   UNL     1       8.821  21.425  53.819  1.00  0.00     0.210 C 
ENDBRANCH  24  27
ENDBRANCH  17  18
ENDBRANCH   2  17
TORSDOF 6
ENDMDL
MODEL 10
REMARK VINA RESULT:      -8.0      4.235      7.523
REMARK  6 active torsions:
REMARK  status: ('A' for Active; 'I' for Inactive)
REMARK    1  A    between atoms: C_2  and  N_3 
REMARK       I    between atoms: N_3  and  C_4 
REMARK    2  A    between atoms: C_4  and  C_5 
REMARK    3  A    between atoms: C_7  and  N_8 
REMARK       I    between atoms: N_8  and  C_9 
REMARK    4  A    between atoms: C_9  and  C_10 
REMARK    5  A    between atoms: C_10  and  C_11 
REMARK    6  A    between atoms: C_15  and  O_16 
ROOT
HETATM    1  N   UNL     1       4.914  27.258  54.696  1.00  0.00    -0.327 N 
HETATM    2  C   UNL     1       6.152  27.362  55.310  1.00  0.00     0.226 C 
HETATM    3  O   UNL     1       7.115  27.999  54.885  1.00  0.00    -0.273 OA
HETATM    4  H   UNL     1       4.263  26.584  55.082  1.00  0.00     0.169 HD
ENDROOT
BRANCH   1   5
HETATM    5  C   UNL     1       4.463  27.990  53.577  1.00  0.00     0.035 A 
HETATM    6  C   UNL     1       4.568  27.523  52.263  1.00  0.00     0.046 A 
HETATM    7  C   UNL     1       4.113  28.297  51.186  1.00  0.00     0.034 A 
HETATM    8  C   UNL     1       3.566  29.563  51.435  1.00  0.00     0.017 A 
HETATM    9  C   UNL     1       3.474  30.043  52.741  1.00  0.00     0.003 A 
HETATM   10  C   UNL     1       3.924  29.261  53.806  1.00  0.00     0.029 A 
BRANCH   7  11
HETATM   11  C   UNL     1       4.235  27.845  49.767  1.00  0.00     0.251 C 
HETATM   12  N   UNL     1       3.496  26.740  49.393  1.00  0.00    -0.357 N 
HETATM   13  H   UNL     1       2.786  26.372  50.011  1.00  0.00     0.162 HD
HETATM   14  O   UNL     1       4.961  28.457  48.991  1.00  0.00    -0.268 OA
BRANCH  12  15
HETATM   15  C   UNL     1       3.525  26.225  48.039  1.00  0.00     0.118 C 
HETATM   16  C   UNL     1       3.014  24.798  47.977  1.00  0.00     0.026 C 
ENDBRANCH  12  15
ENDBRANCH   7  11
ENDBRANCH   1   5
BRANCH   2  17
HETATM   17  C   UNL     1       6.253  26.582  56.610  1.00  0.00     0.144 C 
BRANCH  17  18
HETATM   18  C   UNL     1       7.285  25.504  56.562  1.00  0.00    -0.014 A 
HETATM   19  C   UNL     1       7.481  24.497  55.561  1.00  0.00     0.006 A 
HETATM   20  C   UNL     1       8.573  23.746  55.980  1.00  0.00     0.088 A 
HETATM   21  C   UNL     1       6.865  24.139  54.348  1.00  0.00     0.017 A 
HETATM   22  C   UNL     1       9.104  22.672  55.271  1.00  0.00     0.074 A 
HETATM   23  O   UNL     1       9.038  24.214  57.169  1.00  0.00    -0.321 OA
HETATM   24  C   UNL     1       8.498  22.349  54.053  1.00  0.00     0.070 A 
HETATM   25  C   UNL     1       7.387  23.069  53.603  1.00  0.00     0.038 A 
HETATM   26  C   UNL     1       8.256  25.265  57.517  1.00  0.00     0.151 A 
BRANCH  24  27
HETATM   27  O   UNL     1       9.080  21.296  53.395  1.00  0.00    -0.356 OA
HETATM   28  C   UNL     1       8.775  19.992  53.874  1.00  0.00     0.210 C 
ENDBRANCH  24  27
ENDBRANCH  17  18
ENDBRANCH   2  17
TORSDOF 6
ENDMDL
