MODEL 1
REMARK VINA RESULT:      -8.9      0.000      0.000
REMARK  7 active torsions:
REMARK  status: ('A' for Active; 'I' for Inactive)
REMARK    1  A    between atoms: C_3  and  C_4 
REMARK    2  A    between atoms: C_4  and  N_5 
REMARK    3  A    between atoms: C_4  and  C_9 
REMARK       I    between atoms: N_5  and  C_6 
REMARK       I    between atoms: C_6  and  N_7 
REMARK    4  A    between atoms: C_9  and  C_10 
REMARK       I    between atoms: C_10  and  N_11 
REMARK    5  A    between atoms: N_11  and  C_12 
REMARK    6  A    between atoms: C_12  and  C_13 
REMARK    7  A    between atoms: C_13  and  N_14 
ROOT
HETATM    1  C   UNL     1       5.941  24.510  55.714  1.00  0.00     0.132 C 
ENDROOT
BRANCH   1   2
HETATM    2  C   UNL     1       7.435  24.143  55.647  1.00  0.00     0.128 C 
BRANCH   2   3
HETATM    3  C   UNL     1       7.657  22.902  54.784  1.00  0.00    -0.029 A 
HETATM    4  C   UNL     1       7.827  22.985  53.384  1.00  0.00    -0.054 A 
HETATM    5  C   UNL     1       7.795  24.296  52.644  1.00  0.00     0.049 C 
HETATM    6  C   UNL     1       8.027  21.807  52.642  1.00  0.00     0.007 A 
HETATM    7  C   UNL     1       8.076  20.563  53.267  1.00  0.00     0.001 A 
HETATM    8  C   UNL     1       7.933  20.475  54.646  1.00  0.00     0.001 A 
HETATM    9  C   UNL     1       7.731  21.632  55.397  1.00  0.00     0.010 A 
ENDBRANCH   2   3
BRANCH   2  10
HETATM   10  N   UNL     1       7.996  23.890  56.972  1.00  0.00    -0.334 N 
HETATM   11  C   UNL     1       8.594  24.839  57.738  1.00  0.00     0.314 C 
HETATM   12  N   UNL     1       9.081  24.342  58.900  1.00  0.00    -0.352 N 
HETATM   13  O   UNL     1       8.659  26.032  57.473  1.00  0.00    -0.248 OA
HETATM   14  H   UNL     1       9.396  23.382  58.933  1.00  0.00     0.160 HD
HETATM   15  H   UNL     1       9.622  24.985  59.463  1.00  0.00     0.160 HD
HETATM   16  H   UNL     1       8.072  22.926  57.269  1.00  0.00     0.165 HD
ENDBRANCH   2  10
ENDBRANCH   1   2
BRANCH   1  17
HETATM   17  C   UNL     1       5.731  25.995  55.540  1.00  0.00     0.219 C 
HETATM   18  N   UNL     1       5.778  26.735  56.696  1.00  0.00    -0.359 N 
HETATM   19  H   UNL     1       5.910  26.247  57.577  1.00  0.00     0.162 HD
HETATM   20  O   UNL     1       5.537  26.526  54.448  1.00  0.00    -0.274 OA
BRANCH  18  21
HETATM   21  C   UNL     1       5.540  28.170  56.738  1.00  0.00     0.150 C 
BRANCH  21  22
HETATM   22  C   UNL     1       6.810  29.039  56.877  1.00  0.00     0.254 C 
BRANCH  22  23
HETATM   23  N   UNL     1       6.841  29.856  58.143  1.00  0.00    -0.065 N 
HETATM   24  H   UNL     1       6.177  29.395  58.800  1.00  0.00     0.280 HD
HETATM   25  C   UNL     1       8.169  29.831  58.872  1.00  0.00     0.274 C 
HETATM   26  C   UNL     1       8.199  30.780  60.024  1.00  0.00    -0.019 A 
HETATM   27  C   UNL     1       7.239  31.759  60.197  1.00  0.00    -0.008 A 
HETATM   28  C   UNL     1       9.176  30.833  61.066  1.00  0.00     0.017 A 
HETATM   29  S   UNL     1       7.502  32.717  61.573  1.00  0.00    -0.106 SA
HETATM   30  C   UNL     1       6.062  31.955  59.296  1.00  0.00     0.074 C 
HETATM   31  C   UNL     1       8.916  31.839  61.973  1.00  0.00     0.051 A 
HETATM   32  C   UNL     1       6.321  31.270  57.945  1.00  0.00     0.240 C 
ENDBRANCH  22  23
ENDBRANCH  21  22
ENDBRANCH  18  21
ENDBRANCH   1  17
TORSDOF 7
ENDMDL
MODEL 2
REMARK VINA RESULT:      -8.8      2.099      3.602
REMARK  7 active torsions:
REMARK  status: ('A' for Active; 'I' for Inactive)
REMARK    1  A    between atoms: C_3  and  C_4 
REMARK    2  A    between atoms: C_4  and  N_5 
REMARK    3  A    between atoms: C_4  and  C_9 
REMARK       I    between atoms: N_5  and  C_6 
REMARK       I    between atoms: C_6  and  N_7 
REMARK    4  A    between atoms: C_9  and  C_10 
REMARK       I    between atoms: C_10  and  N_11 
REMARK    5  A    between atoms: N_11  and  C_12 
REMARK    6  A    between atoms: C_12  and  C_13 
REMARK    7  A    between atoms: C_13  and  N_14 
ROOT
HETATM    1  C   UNL     1       7.691  27.816  54.182  1.00  0.00     0.132 C 
ENDROOT
BRANCH   1   2
HETATM    2  C   UNL     1       6.613  26.758  54.483  1.00  0.00     0.128 C 
BRANCH   2   3
HETATM    3  C   UNL     1       7.137  25.348  54.215  1.00  0.00    -0.029 A 
HETATM    4  C   UNL     1       7.239  24.381  55.240  1.00  0.00    -0.054 A 
HETATM    5  C   UNL     1       6.846  24.670  56.664  1.00  0.00     0.049 C 
HETATM    6  C   UNL     1       7.731  23.100  54.932  1.00  0.00     0.007 A 
HETATM    7  C   UNL     1       8.103  22.765  53.632  1.00  0.00     0.001 A 
HETATM    8  C   UNL     1       7.984  23.703  52.615  1.00  0.00     0.001 A 
HETATM    9  C   UNL     1       7.502  24.980  52.902  1.00  0.00     0.010 A 
ENDBRANCH   2   3
BRANCH   2  10
HETATM   10  N   UNL     1       5.408  26.962  53.682  1.00  0.00    -0.334 N 
HETATM   11  C   UNL     1       4.384  27.777  54.044  1.00  0.00     0.314 C 
HETATM   12  N   UNL     1       3.358  27.753  53.159  1.00  0.00    -0.352 N 
HETATM   13  O   UNL     1       4.369  28.512  55.023  1.00  0.00    -0.248 OA
HETATM   14  H   UNL     1       3.181  26.908  52.632  1.00  0.00     0.160 HD
HETATM   15  H   UNL     1       2.529  28.265  53.429  1.00  0.00     0.160 HD
HETATM   16  H   UNL     1       5.268  26.351  52.889  1.00  0.00     0.165 HD
ENDBRANCH   2  10
ENDBRANCH   1   2
BRANCH   1  17
HETATM   17  C   UNL     1       8.068  28.585  55.426  1.00  0.00     0.219 C 
HETATM   18  N   UNL     1       7.202  28.452  56.485  1.00  0.00    -0.359 N 
HETATM   19  H   UNL     1       6.366  27.890  56.357  1.00  0.00     0.162 HD
HETATM   20  O   UNL     1       9.078  29.282  55.509  1.00  0.00    -0.274 OA
BRANCH  18  21
HETATM   21  C   UNL     1       7.364  29.162  57.744  1.00  0.00     0.150 C 
BRANCH  21  22
HETATM   22  C   UNL     1       6.723  30.567  57.788  1.00  0.00     0.254 C 
BRANCH  22  23
HETATM   23  N   UNL     1       6.534  31.097  59.186  1.00  0.00    -0.065 N 
HETATM   24  H   UNL     1       5.960  30.386  59.687  1.00  0.00     0.280 HD
HETATM   25  C   UNL     1       7.810  31.190  59.998  1.00  0.00     0.274 C 
HETATM   26  C   UNL     1       7.595  31.868  61.311  1.00  0.00    -0.019 A 
HETATM   27  C   UNL     1       6.443  32.577  61.594  1.00  0.00    -0.008 A 
HETATM   28  C   UNL     1       8.501  31.901  62.416  1.00  0.00     0.017 A 
HETATM   29  S   UNL     1       6.447  33.264  63.146  1.00  0.00    -0.106 SA
HETATM   30  C   UNL     1       5.285  32.714  60.658  1.00  0.00     0.074 C 
HETATM   31  C   UNL     1       8.000  32.626  63.478  1.00  0.00     0.051 A 
HETATM   32  C   UNL     1       5.732  32.387  59.225  1.00  0.00     0.240 C 
ENDBRANCH  22  23
ENDBRANCH  21  22
ENDBRANCH  18  21
ENDBRANCH   1  17
TORSDOF 7
ENDMDL
MODEL 3
REMARK VINA RESULT:      -8.8      1.493      2.190
REMARK  7 active torsions:
REMARK  status: ('A' for Active; 'I' for Inactive)
REMARK    1  A    between atoms: C_3  and  C_4 
REMARK    2  A    between atoms: C_4  and  N_5 
REMARK    3  A    between atoms: C_4  and  C_9 
REMARK       I    between atoms: N_5  and  C_6 
REMARK       I    between atoms: C_6  and  N_7 
REMARK    4  A    between atoms: C_9  and  C_10 
REMARK       I    between atoms: C_10  and  N_11 
REMARK    5  A    between atoms: N_11  and  C_12 
REMARK    6  A    between atoms: C_12  and  C_13 
REMARK    7  A    between atoms: C_13  and  N_14 
ROOT
HETATM    1  C   UNL     1       7.429  26.074  53.767  1.00  0.00     0.132 C 
ENDROOT
BRANCH   1   2
HETATM    2  C   UNL     1       7.348  25.147  54.994  1.00  0.00     0.128 C 
BRANCH   2   3
HETATM    3  C   UNL     1       7.714  23.711  54.622  1.00  0.00    -0.029 A 
HETATM    4  C   UNL     1       8.246  22.805  55.568  1.00  0.00    -0.054 A 
HETATM    5  C   UNL     1       8.495  23.191  57.002  1.00  0.00     0.049 C 
HETATM    6  C   UNL     1       8.564  21.497  55.165  1.00  0.00     0.007 A 
HETATM    7  C   UNL     1       8.349  21.074  53.855  1.00  0.00     0.001 A 
HETATM    8  C   UNL     1       7.806  21.951  52.926  1.00  0.00     0.001 A 
HETATM    9  C   UNL     1       7.487  23.255  53.306  1.00  0.00     0.010 A 
ENDBRANCH   2   3
BRANCH   2  10
HETATM   10  N   UNL     1       6.014  25.144  55.591  1.00  0.00    -0.334 N 
HETATM   11  C   UNL     1       5.746  25.559  56.856  1.00  0.00     0.314 C 
HETATM   12  N   UNL     1       4.443  25.407  57.191  1.00  0.00    -0.352 N 
HETATM   13  O   UNL     1       6.550  26.074  57.622  1.00  0.00    -0.248 OA
HETATM   14  H   UNL     1       3.911  24.655  56.774  1.00  0.00     0.160 HD
HETATM   15  H   UNL     1       4.207  25.608  58.154  1.00  0.00     0.160 HD
HETATM   16  H   UNL     1       5.279  24.671  55.083  1.00  0.00     0.165 HD
ENDBRANCH   2  10
ENDBRANCH   1   2
BRANCH   1  17
HETATM   17  C   UNL     1       7.257  27.522  54.160  1.00  0.00     0.219 C 
HETATM   18  N   UNL     1       7.778  27.865  55.384  1.00  0.00    -0.359 N 
HETATM   19  H   UNL     1       8.202  27.137  55.950  1.00  0.00     0.162 HD
HETATM   20  O   UNL     1       6.697  28.353  53.446  1.00  0.00    -0.274 OA
BRANCH  18  21
HETATM   21  C   UNL     1       7.656  29.196  55.960  1.00  0.00     0.150 C 
BRANCH  21  22
HETATM   22  C   UNL     1       6.333  29.463  56.713  1.00  0.00     0.254 C 
BRANCH  22  23
HETATM   23  N   UNL     1       6.529  30.130  58.050  1.00  0.00    -0.065 N 
HETATM   24  H   UNL     1       5.893  29.638  58.713  1.00  0.00     0.280 HD
HETATM   25  C   UNL     1       7.909  29.945  58.646  1.00  0.00     0.274 C 
HETATM   26  C   UNL     1       8.102  30.755  59.885  1.00  0.00    -0.019 A 
HETATM   27  C   UNL     1       7.231  31.763  60.249  1.00  0.00    -0.008 A 
HETATM   28  C   UNL     1       9.167  30.633  60.831  1.00  0.00     0.017 A 
HETATM   29  S   UNL     1       7.676  32.543  61.689  1.00  0.00    -0.106 SA
HETATM   30  C   UNL     1       5.998  32.129  59.487  1.00  0.00     0.074 C 
HETATM   31  C   UNL     1       9.056  31.544  61.861  1.00  0.00     0.051 A 
HETATM   32  C   UNL     1       6.092  31.586  58.052  1.00  0.00     0.240 C 
ENDBRANCH  22  23
ENDBRANCH  21  22
ENDBRANCH  18  21
ENDBRANCH   1  17
TORSDOF 7
ENDMDL
MODEL 4
REMARK VINA RESULT:      -8.8      5.229      7.766
REMARK  7 active torsions:
REMARK  status: ('A' for Active; 'I' for Inactive)
REMARK    1  A    between atoms: C_3  and  C_4 
REMARK    2  A    between atoms: C_4  and  N_5 
REMARK    3  A    between atoms: C_4  and  C_9 
REMARK       I    between atoms: N_5  and  C_6 
REMARK       I    between atoms: C_6  and  N_7 
REMARK    4  A    between atoms: C_9  and  C_10 
REMARK       I    between atoms: C_10  and  N_11 
REMARK    5  A    between atoms: N_11  and  C_12 
REMARK    6  A    between atoms: C_12  and  C_13 
REMARK    7  A    between atoms: C_13  and  N_14 
ROOT
HETATM    1  C   UNL     1       5.492  25.317  54.450  1.00  0.00     0.132 C 
ENDROOT
BRANCH   1   2
HETATM    2  C   UNL     1       6.901  24.985  54.974  1.00  0.00     0.128 C 
BRANCH   2   3
HETATM    3  C   UNL     1       7.362  23.614  54.479  1.00  0.00    -0.029 A 
HETATM    4  C   UNL     1       7.789  23.404  53.149  1.00  0.00    -0.054 A 
HETATM    5  C   UNL     1       7.815  24.508  52.126  1.00  0.00     0.049 C 
HETATM    6  C   UNL     1       8.200  22.119  52.752  1.00  0.00     0.007 A 
HETATM    7  C   UNL     1       8.209  21.056  53.652  1.00  0.00     0.001 A 
HETATM    8  C   UNL     1       7.812  21.260  54.968  1.00  0.00     0.001 A 
HETATM    9  C   UNL     1       7.398  22.527  55.379  1.00  0.00     0.010 A 
ENDBRANCH   2   3
BRANCH   2  10
HETATM   10  N   UNL     1       6.958  24.991  56.435  1.00  0.00    -0.334 N 
HETATM   11  C   UNL     1       7.730  25.840  57.161  1.00  0.00     0.314 C 
HETATM   12  N   UNL     1       7.649  25.610  58.493  1.00  0.00    -0.352 N 
HETATM   13  O   UNL     1       8.397  26.762  56.708  1.00  0.00    -0.248 OA
HETATM   14  H   UNL     1       7.468  24.671  58.822  1.00  0.00     0.160 HD
HETATM   15  H   UNL     1       8.278  26.148  59.074  1.00  0.00     0.160 HD
HETATM   16  H   UNL     1       6.510  24.226  56.920  1.00  0.00     0.165 HD
ENDBRANCH   2  10
ENDBRANCH   1   2
BRANCH   1  17
HETATM   17  C   UNL     1       5.307  26.805  54.278  1.00  0.00     0.219 C 
HETATM   18  N   UNL     1       4.090  27.192  53.769  1.00  0.00    -0.359 N 
HETATM   19  H   UNL     1       3.423  26.470  53.512  1.00  0.00     0.162 HD
HETATM   20  O   UNL     1       6.169  27.632  54.571  1.00  0.00    -0.274 OA
BRANCH  18  21
HETATM   21  C   UNL     1       3.749  28.576  53.475  1.00  0.00     0.150 C 
BRANCH  21  22
HETATM   22  C   UNL     1       4.156  29.063  52.067  1.00  0.00     0.254 C 
BRANCH  22  23
HETATM   23  N   UNL     1       3.725  28.132  50.963  1.00  0.00    -0.065 N 
HETATM   24  H   UNL     1       3.197  27.362  51.426  1.00  0.00     0.280 HD
HETATM   25  C   UNL     1       2.733  28.733  49.988  1.00  0.00     0.274 C 
HETATM   26  C   UNL     1       2.464  27.832  48.828  1.00  0.00    -0.019 A 
HETATM   27  C   UNL     1       3.255  26.734  48.550  1.00  0.00    -0.008 A 
HETATM   28  C   UNL     1       1.413  27.962  47.869  1.00  0.00     0.017 A 
HETATM   29  S   UNL     1       2.750  25.879  47.174  1.00  0.00    -0.106 SA
HETATM   30  C   UNL     1       4.423  26.303  49.378  1.00  0.00     0.074 C 
HETATM   31  C   UNL     1       1.453  26.966  46.915  1.00  0.00     0.051 A 
HETATM   32  C   UNL     1       4.897  27.472  50.257  1.00  0.00     0.240 C 
ENDBRANCH  22  23
ENDBRANCH  21  22
ENDBRANCH  18  21
ENDBRANCH   1  17
TORSDOF 7
ENDMDL
MODEL 5
REMARK VINA RESULT:      -8.7      5.219      7.833
REMARK  7 active torsions:
REMARK  status: ('A' for Active; 'I' for Inactive)
REMARK    1  A    between atoms: C_3  and  C_4 
REMARK    2  A    between atoms: C_4  and  N_5 
REMARK    3  A    between atoms: C_4  and  C_9 
REMARK       I    between atoms: N_5  and  C_6 
REMARK       I    between atoms: C_6  and  N_7 
REMARK    4  A    between atoms: C_9  and  C_10 
REMARK       I    between atoms: C_10  and  N_11 
REMARK    5  A    between atoms: N_11  and  C_12 
REMARK    6  A    between atoms: C_12  and  C_13 
REMARK    7  A    between atoms: C_13  and  N_14 
ROOT
HETATM    1  C   UNL     1       7.565  25.680  53.543  1.00  0.00     0.132 C 
ENDROOT
BRANCH   1   2
HETATM    2  C   UNL     1       7.464  24.818  54.815  1.00  0.00     0.128 C 
BRANCH   2   3
HETATM    3  C   UNL     1       7.762  23.351  54.509  1.00  0.00    -0.029 A 
HETATM    4  C   UNL     1       8.203  22.453  55.508  1.00  0.00    -0.054 A 
HETATM    5  C   UNL     1       8.414  22.877  56.937  1.00  0.00     0.049 C 
HETATM    6  C   UNL     1       8.463  21.115  55.164  1.00  0.00     0.007 A 
HETATM    7  C   UNL     1       8.278  20.657  53.862  1.00  0.00     0.001 A 
HETATM    8  C   UNL     1       7.824  21.528  52.880  1.00  0.00     0.001 A 
HETATM    9  C   UNL     1       7.563  22.860  53.201  1.00  0.00     0.010 A 
ENDBRANCH   2   3
BRANCH   2  10
HETATM   10  N   UNL     1       6.140  24.901  55.429  1.00  0.00    -0.334 N 
HETATM   11  C   UNL     1       5.905  25.427  56.659  1.00  0.00     0.314 C 
HETATM   12  N   UNL     1       4.603  25.339  57.025  1.00  0.00    -0.352 N 
HETATM   13  O   UNL     1       6.735  25.980  57.369  1.00  0.00    -0.248 OA
HETATM   14  H   UNL     1       4.045  24.570  56.679  1.00  0.00     0.160 HD
HETATM   15  H   UNL     1       4.390  25.625  57.971  1.00  0.00     0.160 HD
HETATM   16  H   UNL     1       5.385  24.408  54.973  1.00  0.00     0.165 HD
ENDBRANCH   2  10
ENDBRANCH   1   2
BRANCH   1  17
HETATM   17  C   UNL     1       6.263  26.391  53.256  1.00  0.00     0.219 C 
HETATM   18  N   UNL     1       6.276  27.749  53.465  1.00  0.00    -0.359 N 
HETATM   19  H   UNL     1       7.125  28.174  53.826  1.00  0.00     0.162 HD
HETATM   20  O   UNL     1       5.253  25.815  52.857  1.00  0.00    -0.274 OA
BRANCH  18  21
HETATM   21  C   UNL     1       5.103  28.594  53.302  1.00  0.00     0.150 C 
BRANCH  21  22
HETATM   22  C   UNL     1       4.945  29.226  51.901  1.00  0.00     0.254 C 
BRANCH  22  23
HETATM   23  N   UNL     1       4.306  28.303  50.896  1.00  0.00    -0.065 N 
HETATM   24  H   UNL     1       3.948  27.489  51.440  1.00  0.00     0.280 HD
HETATM   25  C   UNL     1       3.077  28.871  50.217  1.00  0.00     0.274 C 
HETATM   26  C   UNL     1       2.580  27.988  49.120  1.00  0.00    -0.019 A 
HETATM   27  C   UNL     1       3.334  26.948  48.612  1.00  0.00    -0.008 A 
HETATM   28  C   UNL     1       1.320  28.081  48.450  1.00  0.00     0.017 A 
HETATM   29  S   UNL     1       2.553  26.104  47.363  1.00  0.00    -0.106 SA
HETATM   30  C   UNL     1       4.690  26.566  49.113  1.00  0.00     0.074 C 
HETATM   31  C   UNL     1       1.178  27.117  47.474  1.00  0.00     0.051 A 
HETATM   32  C   UNL     1       5.303  27.735  49.899  1.00  0.00     0.240 C 
ENDBRANCH  22  23
ENDBRANCH  21  22
ENDBRANCH  18  21
ENDBRANCH   1  17
TORSDOF 7
ENDMDL
MODEL 6
REMARK VINA RESULT:      -8.7      1.912      3.237
REMARK  7 active torsions:
REMARK  status: ('A' for Active; 'I' for Inactive)
REMARK    1  A    between atoms: C_3  and  C_4 
REMARK    2  A    between atoms: C_4  and  N_5 
REMARK    3  A    between atoms: C_4  and  C_9 
REMARK       I    between atoms: N_5  and  C_6 
REMARK       I    between atoms: C_6  and  N_7 
REMARK    4  A    between atoms: C_9  and  C_10 
REMARK       I    between atoms: C_10  and  N_11 
REMARK    5  A    between atoms: N_11  and  C_12 
REMARK    6  A    between atoms: C_12  and  C_13 
REMARK    7  A    between atoms: C_13  and  N_14 
ROOT
HETATM    1  C   UNL     1       7.339  26.096  57.212  1.00  0.00     0.132 C 
ENDROOT
BRANCH   1   2
HETATM    2  C   UNL     1       6.837  25.852  55.776  1.00  0.00     0.128 C 
BRANCH   2   3
HETATM    3  C   UNL     1       7.437  24.572  55.196  1.00  0.00    -0.029 A 
HETATM    4  C   UNL     1       6.925  23.970  54.024  1.00  0.00    -0.054 A 
HETATM    5  C   UNL     1       5.754  24.541  53.270  1.00  0.00     0.049 C 
HETATM    6  C   UNL     1       7.519  22.792  53.539  1.00  0.00     0.007 A 
HETATM    7  C   UNL     1       8.611  22.218  54.184  1.00  0.00     0.001 A 
HETATM    8  C   UNL     1       9.134  22.815  55.323  1.00  0.00     0.001 A 
HETATM    9  C   UNL     1       8.557  23.983  55.822  1.00  0.00     0.010 A 
ENDBRANCH   2   3
BRANCH   2  10
HETATM   10  N   UNL     1       7.167  26.962  54.885  1.00  0.00    -0.334 N 
HETATM   11  C   UNL     1       6.252  27.831  54.383  1.00  0.00     0.314 C 
HETATM   12  N   UNL     1       6.799  28.737  53.539  1.00  0.00    -0.352 N 
HETATM   13  O   UNL     1       5.064  27.864  54.678  1.00  0.00    -0.248 OA
HETATM   14  H   UNL     1       7.613  28.477  52.996  1.00  0.00     0.160 HD
HETATM   15  H   UNL     1       6.149  29.345  53.060  1.00  0.00     0.160 HD
HETATM   16  H   UNL     1       8.104  26.992  54.508  1.00  0.00     0.165 HD
ENDBRANCH   2  10
ENDBRANCH   1   2
BRANCH   1  17
HETATM   17  C   UNL     1       7.965  27.463  57.350  1.00  0.00     0.219 C 
HETATM   18  N   UNL     1       7.175  28.413  57.953  1.00  0.00    -0.359 N 
HETATM   19  H   UNL     1       6.232  28.154  58.227  1.00  0.00     0.162 HD
HETATM   20  O   UNL     1       9.101  27.729  56.962  1.00  0.00    -0.274 OA
BRANCH  18  21
HETATM   21  C   UNL     1       7.580  29.801  58.120  1.00  0.00     0.150 C 
BRANCH  21  22
HETATM   22  C   UNL     1       8.362  30.100  59.418  1.00  0.00     0.254 C 
BRANCH  22  23
HETATM   23  N   UNL     1       7.581  30.918  60.413  1.00  0.00    -0.065 N 
HETATM   24  H   UNL     1       6.868  30.274  60.818  1.00  0.00     0.280 HD
HETATM   25  C   UNL     1       8.386  31.387  61.608  1.00  0.00     0.274 C 
HETATM   26  C   UNL     1       7.613  32.324  62.477  1.00  0.00    -0.019 A 
HETATM   27  C   UNL     1       6.430  32.906  62.063  1.00  0.00    -0.008 A 
HETATM   28  C   UNL     1       7.961  32.753  63.796  1.00  0.00     0.017 A 
HETATM   29  S   UNL     1       5.753  33.941  63.226  1.00  0.00    -0.106 SA
HETATM   30  C   UNL     1       5.777  32.645  60.744  1.00  0.00     0.074 C 
HETATM   31  C   UNL     1       7.035  33.632  64.318  1.00  0.00     0.051 A 
HETATM   32  C   UNL     1       6.802  32.050  59.765  1.00  0.00     0.240 C 
ENDBRANCH  22  23
ENDBRANCH  21  22
ENDBRANCH  18  21
ENDBRANCH   1  17
TORSDOF 7
ENDMDL
MODEL 7
REMARK VINA RESULT:      -8.5      1.722      2.308
REMARK  7 active torsions:
REMARK  status: ('A' for Active; 'I' for Inactive)
REMARK    1  A    between atoms: C_3  and  C_4 
REMARK    2  A    between atoms: C_4  and  N_5 
REMARK    3  A    between atoms: C_4  and  C_9 
REMARK       I    between atoms: N_5  and  C_6 
REMARK       I    between atoms: C_6  and  N_7 
REMARK    4  A    between atoms: C_9  and  C_10 
REMARK       I    between atoms: C_10  and  N_11 
REMARK    5  A    between atoms: N_11  and  C_12 
REMARK    6  A    between atoms: C_12  and  C_13 
REMARK    7  A    between atoms: C_13  and  N_14 
ROOT
HETATM    1  C   UNL     1       5.353  25.517  55.660  1.00  0.00     0.132 C 
ENDROOT
BRANCH   1   2
HETATM    2  C   UNL     1       6.342  25.582  54.481  1.00  0.00     0.128 C 
BRANCH   2   3
HETATM    3  C   UNL     1       7.054  24.244  54.287  1.00  0.00    -0.029 A 
HETATM    4  C   UNL     1       7.618  23.870  53.047  1.00  0.00    -0.054 A 
HETATM    5  C   UNL     1       7.552  24.755  51.831  1.00  0.00     0.049 C 
HETATM    6  C   UNL     1       8.260  22.625  52.930  1.00  0.00     0.007 A 
HETATM    7  C   UNL     1       8.364  21.763  54.020  1.00  0.00     0.001 A 
HETATM    8  C   UNL     1       7.832  22.134  55.248  1.00  0.00     0.001 A 
HETATM    9  C   UNL     1       7.189  23.364  55.383  1.00  0.00     0.010 A 
ENDBRANCH   2   3
BRANCH   2  10
HETATM   10  N   UNL     1       7.353  26.620  54.671  1.00  0.00    -0.334 N 
HETATM   11  C   UNL     1       7.315  27.836  54.068  1.00  0.00     0.314 C 
HETATM   12  N   UNL     1       8.395  28.600  54.363  1.00  0.00    -0.352 N 
HETATM   13  O   UNL     1       6.401  28.260  53.373  1.00  0.00    -0.248 OA
HETATM   14  H   UNL     1       9.279  28.149  54.558  1.00  0.00     0.160 HD
HETATM   15  H   UNL     1       8.467  29.476  53.863  1.00  0.00     0.160 HD
HETATM   16  H   UNL     1       8.197  26.362  55.163  1.00  0.00     0.165 HD
ENDBRANCH   2  10
ENDBRANCH   1   2
BRANCH   1  17
HETATM   17  C   UNL     1       5.417  26.769  56.501  1.00  0.00     0.219 C 
HETATM   18  N   UNL     1       4.519  27.753  56.160  1.00  0.00    -0.359 N 
HETATM   19  H   UNL     1       3.911  27.596  55.362  1.00  0.00     0.162 HD
HETATM   20  O   UNL     1       6.205  26.918  57.433  1.00  0.00    -0.274 OA
BRANCH  18  21
HETATM   21  C   UNL     1       4.470  29.052  56.814  1.00  0.00     0.150 C 
BRANCH  21  22
HETATM   22  C   UNL     1       5.797  29.844  56.793  1.00  0.00     0.254 C 
BRANCH  22  23
HETATM   23  N   UNL     1       6.182  30.402  58.138  1.00  0.00    -0.065 N 
HETATM   24  H   UNL     1       5.628  29.868  58.841  1.00  0.00     0.280 HD
HETATM   25  C   UNL     1       7.624  30.152  58.530  1.00  0.00     0.274 C 
HETATM   26  C   UNL     1       7.998  30.862  59.789  1.00  0.00    -0.019 A 
HETATM   27  C   UNL     1       7.206  31.850  60.341  1.00  0.00    -0.008 A 
HETATM   28  C   UNL     1       9.175  30.652  60.573  1.00  0.00     0.017 A 
HETATM   29  S   UNL     1       7.855  32.510  61.764  1.00  0.00    -0.106 SA
HETATM   30  C   UNL     1       5.892  32.290  59.780  1.00  0.00     0.074 C 
HETATM   31  C   UNL     1       9.221  31.482  61.674  1.00  0.00     0.051 A 
HETATM   32  C   UNL     1       5.784  31.859  58.308  1.00  0.00     0.240 C 
ENDBRANCH  22  23
ENDBRANCH  21  22
ENDBRANCH  18  21
ENDBRANCH   1  17
TORSDOF 7
ENDMDL
MODEL 8
REMARK VINA RESULT:      -8.5      6.296      8.993
REMARK  7 active torsions:
REMARK  status: ('A' for Active; 'I' for Inactive)
REMARK    1  A    between atoms: C_3  and  C_4 
REMARK    2  A    between atoms: C_4  and  N_5 
REMARK    3  A    between atoms: C_4  and  C_9 
REMARK       I    between atoms: N_5  and  C_6 
REMARK       I    between atoms: C_6  and  N_7 
REMARK    4  A    between atoms: C_9  and  C_10 
REMARK       I    between atoms: C_10  and  N_11 
REMARK    5  A    between atoms: N_11  and  C_12 
REMARK    6  A    between atoms: C_12  and  C_13 
REMARK    7  A    between atoms: C_13  and  N_14 
ROOT
HETATM    1  C   UNL     1       7.645  24.967  52.284  1.00  0.00     0.132 C 
ENDROOT
BRANCH   1   2
HETATM    2  C   UNL     1       7.693  24.640  53.788  1.00  0.00     0.128 C 
BRANCH   2   3
HETATM    3  C   UNL     1       8.021  23.166  54.019  1.00  0.00    -0.029 A 
HETATM    4  C   UNL     1       8.550  22.700  55.244  1.00  0.00    -0.054 A 
HETATM    5  C   UNL     1       8.832  23.619  56.402  1.00  0.00     0.049 C 
HETATM    6  C   UNL     1       8.833  21.331  55.396  1.00  0.00     0.007 A 
HETATM    7  C   UNL     1       8.586  20.426  54.366  1.00  0.00     0.001 A 
HETATM    8  C   UNL     1       8.045  20.872  53.168  1.00  0.00     0.001 A 
HETATM    9  C   UNL     1       7.761  22.227  52.997  1.00  0.00     0.010 A 
ENDBRANCH   2   3
BRANCH   2  10
HETATM   10  N   UNL     1       6.427  24.941  54.454  1.00  0.00    -0.334 N 
HETATM   11  C   UNL     1       6.256  25.961  55.333  1.00  0.00     0.314 C 
HETATM   12  N   UNL     1       5.006  25.998  55.854  1.00  0.00    -0.352 N 
HETATM   13  O   UNL     1       7.091  26.812  55.611  1.00  0.00    -0.248 OA
HETATM   14  H   UNL     1       4.491  25.134  55.962  1.00  0.00     0.160 HD
HETATM   15  H   UNL     1       4.852  26.677  56.588  1.00  0.00     0.160 HD
HETATM   16  H   UNL     1       5.683  24.263  54.364  1.00  0.00     0.165 HD
ENDBRANCH   2  10
ENDBRANCH   1   2
BRANCH   1  17
HETATM   17  C   UNL     1       6.240  25.291  51.836  1.00  0.00     0.219 C 
HETATM   18  N   UNL     1       6.126  26.364  50.986  1.00  0.00    -0.359 N 
HETATM   19  H   UNL     1       6.966  26.882  50.747  1.00  0.00     0.162 HD
HETATM   20  O   UNL     1       5.253  24.648  52.191  1.00  0.00    -0.274 OA
BRANCH  18  21
HETATM   21  C   UNL     1       4.851  26.865  50.496  1.00  0.00     0.150 C 
BRANCH  21  22
HETATM   22  C   UNL     1       4.362  26.227  49.176  1.00  0.00     0.254 C 
BRANCH  22  23
HETATM   23  N   UNL     1       3.586  27.178  48.302  1.00  0.00    -0.065 N 
HETATM   24  H   UNL     1       4.116  27.244  47.408  1.00  0.00     0.280 HD
HETATM   25  C   UNL     1       2.217  26.674  47.891  1.00  0.00     0.274 C 
HETATM   26  C   UNL     1       1.429  27.714  47.166  1.00  0.00    -0.019 A 
HETATM   27  C   UNL     1       1.801  29.044  47.150  1.00  0.00    -0.008 A 
HETATM   28  C   UNL     1       0.223  27.512  46.424  1.00  0.00     0.017 A 
HETATM   29  S   UNL     1       0.734  30.027  46.269  1.00  0.00    -0.106 SA
HETATM   30  C   UNL     1       3.030  29.584  47.809  1.00  0.00     0.074 C 
HETATM   31  C   UNL     1      -0.259  28.687  45.885  1.00  0.00     0.051 A 
HETATM   32  C   UNL     1       3.535  28.588  48.865  1.00  0.00     0.240 C 
ENDBRANCH  22  23
ENDBRANCH  21  22
ENDBRANCH  18  21
ENDBRANCH   1  17
TORSDOF 7
ENDMDL
MODEL 9
REMARK VINA RESULT:      -8.5      3.152      9.049
REMARK  7 active torsions:
REMARK  status: ('A' for Active; 'I' for Inactive)
REMARK    1  A    between atoms: C_3  and  C_4 
REMARK    2  A    between atoms: C_4  and  N_5 
REMARK    3  A    between atoms: C_4  and  C_9 
REMARK       I    between atoms: N_5  and  C_6 
REMARK       I    between atoms: C_6  and  N_7 
REMARK    4  A    between atoms: C_9  and  C_10 
REMARK       I    between atoms: C_10  and  N_11 
REMARK    5  A    between atoms: N_11  and  C_12 
REMARK    6  A    between atoms: C_12  and  C_13 
REMARK    7  A    between atoms: C_13  and  N_14 
ROOT
HETATM    1  C   UNL     1       8.975  30.488  57.743  1.00  0.00     0.132 C 
ENDROOT
BRANCH   1   2
HETATM    2  C   UNL     1       7.656  30.894  58.427  1.00  0.00     0.128 C 
BRANCH   2   3
HETATM    3  C   UNL     1       7.880  31.210  59.905  1.00  0.00    -0.029 A 
HETATM    4  C   UNL     1       7.039  32.094  60.617  1.00  0.00    -0.054 A 
HETATM    5  C   UNL     1       5.871  32.791  59.972  1.00  0.00     0.049 C 
HETATM    6  C   UNL     1       7.297  32.346  61.976  1.00  0.00     0.007 A 
HETATM    7  C   UNL     1       8.356  31.727  62.635  1.00  0.00     0.001 A 
HETATM    8  C   UNL     1       9.174  30.839  61.948  1.00  0.00     0.001 A 
HETATM    9  C   UNL     1       8.936  30.579  60.599  1.00  0.00     0.010 A 
ENDBRANCH   2   3
BRANCH   2  10
HETATM   10  N   UNL     1       6.642  29.847  58.327  1.00  0.00    -0.334 N 
HETATM   11  C   UNL     1       5.514  29.951  57.579  1.00  0.00     0.314 C 
HETATM   12  N   UNL     1       4.707  28.869  57.696  1.00  0.00    -0.352 N 
HETATM   13  O   UNL     1       5.242  30.875  56.823  1.00  0.00    -0.248 OA
HETATM   14  H   UNL     1       4.703  28.349  58.563  1.00  0.00     0.160 HD
HETATM   15  H   UNL     1       3.808  28.936  57.237  1.00  0.00     0.160 HD
HETATM   16  H   UNL     1       6.716  29.066  58.965  1.00  0.00     0.165 HD
ENDBRANCH   2  10
ENDBRANCH   1   2
BRANCH   1  17
HETATM   17  C   UNL     1       8.810  29.216  56.945  1.00  0.00     0.219 C 
HETATM   18  N   UNL     1       8.438  29.388  55.634  1.00  0.00    -0.359 N 
HETATM   19  H   UNL     1       8.265  30.332  55.300  1.00  0.00     0.162 HD
HETATM   20  O   UNL     1       8.996  28.095  57.415  1.00  0.00    -0.274 OA
BRANCH  18  21
HETATM   21  C   UNL     1       8.172  28.282  54.726  1.00  0.00     0.150 C 
BRANCH  21  22
HETATM   22  C   UNL     1       6.786  27.621  54.892  1.00  0.00     0.254 C 
BRANCH  22  23
HETATM   23  N   UNL     1       6.837  26.115  54.900  1.00  0.00    -0.065 N 
HETATM   24  H   UNL     1       5.847  25.793  54.864  1.00  0.00     0.280 HD
HETATM   25  C   UNL     1       7.476  25.504  53.669  1.00  0.00     0.274 C 
HETATM   26  C   UNL     1       7.649  24.027  53.798  1.00  0.00    -0.019 A 
HETATM   27  C   UNL     1       7.515  23.372  55.007  1.00  0.00    -0.008 A 
HETATM   28  C   UNL     1       7.975  23.108  52.752  1.00  0.00     0.017 A 
HETATM   29  S   UNL     1       7.773  21.698  54.892  1.00  0.00    -0.106 SA
HETATM   30  C   UNL     1       7.151  24.041  56.294  1.00  0.00     0.074 C 
HETATM   31  C   UNL     1       8.072  21.811  53.210  1.00  0.00     0.051 A 
HETATM   32  C   UNL     1       7.414  25.551  56.187  1.00  0.00     0.240 C 
ENDBRANCH  22  23
ENDBRANCH  21  22
ENDBRANCH  18  21
ENDBRANCH   1  17
TORSDOF 7
ENDMDL
MODEL 10
REMARK VINA RESULT:      -8.4      2.033      3.293
REMARK  7 active torsions:
REMARK  status: ('A' for Active; 'I' for Inactive)
REMARK    1  A    between atoms: C_3  and  C_4 
REMARK    2  A    between atoms: C_4  and  N_5 
REMARK    3  A    between atoms: C_4  and  C_9 
REMARK       I    between atoms: N_5  and  C_6 
REMARK       I    between atoms: C_6  and  N_7 
REMARK    4  A    between atoms: C_9  and  C_10 
REMARK       I    between atoms: C_10  and  N_11 
REMARK    5  A    between atoms: N_11  and  C_12 
REMARK    6  A    between atoms: C_12  and  C_13 
REMARK    7  A    between atoms: C_13  and  N_14 
ROOT
HETATM    1  C   UNL     1       7.797  26.355  54.047  1.00  0.00     0.132 C 
ENDROOT
BRANCH   1   2
HETATM    2  C   UNL     1       6.678  25.325  53.802  1.00  0.00     0.128 C 
BRANCH   2   3
HETATM    3  C   UNL     1       7.185  23.901  54.024  1.00  0.00    -0.029 A 
HETATM    4  C   UNL     1       7.265  23.328  55.313  1.00  0.00    -0.054 A 
HETATM    5  C   UNL     1       6.864  24.078  56.556  1.00  0.00     0.049 C 
HETATM    6  C   UNL     1       7.741  22.013  55.454  1.00  0.00     0.007 A 
HETATM    7  C   UNL     1       8.119  21.261  54.344  1.00  0.00     0.001 A 
HETATM    8  C   UNL     1       8.022  21.809  53.072  1.00  0.00     0.001 A 
HETATM    9  C   UNL     1       7.555  23.113  52.912  1.00  0.00     0.010 A 
ENDBRANCH   2   3
BRANCH   2  10
HETATM   10  N   UNL     1       6.137  25.417  52.447  1.00  0.00    -0.334 N 
HETATM   11  C   UNL     1       4.989  26.069  52.131  1.00  0.00     0.314 C 
HETATM   12  N   UNL     1       4.673  25.963  50.818  1.00  0.00    -0.352 N 
HETATM   13  O   UNL     1       4.314  26.740  52.901  1.00  0.00    -0.248 OA
HETATM   14  H   UNL     1       4.950  25.134  50.309  1.00  0.00     0.160 HD
HETATM   15  H   UNL     1       3.777  26.346  50.546  1.00  0.00     0.160 HD
HETATM   16  H   UNL     1       6.564  24.839  51.736  1.00  0.00     0.165 HD
ENDBRANCH   2  10
ENDBRANCH   1   2
BRANCH   1  17
HETATM   17  C   UNL     1       7.283  27.554  54.807  1.00  0.00     0.219 C 
HETATM   18  N   UNL     1       7.515  27.536  56.161  1.00  0.00    -0.359 N 
HETATM   19  H   UNL     1       7.972  26.723  56.562  1.00  0.00     0.162 HD
HETATM   20  O   UNL     1       6.700  28.495  54.270  1.00  0.00    -0.274 OA
BRANCH  18  21
HETATM   21  C   UNL     1       7.043  28.572  57.067  1.00  0.00     0.150 C 
BRANCH  21  22
HETATM   22  C   UNL     1       8.152  29.302  57.858  1.00  0.00     0.254 C 
BRANCH  22  23
HETATM   23  N   UNL     1       7.623  30.151  58.986  1.00  0.00    -0.065 N 
HETATM   24  H   UNL     1       6.868  29.593  59.436  1.00  0.00     0.280 HD
HETATM   25  C   UNL     1       8.619  30.403  60.099  1.00  0.00     0.274 C 
HETATM   26  C   UNL     1       8.104  31.377  61.107  1.00  0.00    -0.019 A 
HETATM   27  C   UNL     1       6.990  32.160  60.873  1.00  0.00    -0.008 A 
HETATM   28  C   UNL     1       8.659  31.649  62.396  1.00  0.00     0.017 A 
HETATM   29  S   UNL     1       6.617  33.195  62.165  1.00  0.00    -0.106 SA
HETATM   30  C   UNL     1       6.163  32.100  59.629  1.00  0.00     0.074 C 
HETATM   31  C   UNL     1       7.947  32.616  63.075  1.00  0.00     0.051 A 
HETATM   32  C   UNL     1       6.966  31.433  58.501  1.00  0.00     0.240 C 
ENDBRANCH  22  23
ENDBRANCH  21  22
ENDBRANCH  18  21
ENDBRANCH   1  17
TORSDOF 7
ENDMDL
