MODEL 1
REMARK VINA RESULT:      -8.9      0.000      0.000
REMARK  3 active torsions:
REMARK  status: ('A' for Active; 'I' for Inactive)
REMARK    1  A    between atoms: C_3  and  N_4 
REMARK       I    between atoms: N_4  and  C_5 
REMARK       I    between atoms: C_5  and  N_6 
REMARK    2  A    between atoms: N_6  and  C_7 
REMARK    3  A    between atoms: C_7  and  C_8 
ROOT
HETATM    1  C   UNL     1       7.201  24.760  54.481  1.00  0.00    -0.036 A 
HETATM    2  C   UNL     1       7.535  24.559  53.135  1.00  0.00     0.011 A 
HETATM    3  C   UNL     1       7.899  23.290  52.666  1.00  0.00     0.023 A 
HETATM    4  C   UNL     1       7.940  22.200  53.539  1.00  0.00     0.044 A 
HETATM    5  C   UNL     1       8.313  20.902  53.059  1.00  0.00     0.099 C 
HETATM    6  N   UNL     1       8.614  19.849  52.675  1.00  0.00    -0.191 NA
HETATM    7  C   UNL     1       7.617  22.384  54.883  1.00  0.00     0.023 A 
HETATM    8  C   UNL     1       7.252  23.652  55.348  1.00  0.00     0.011 A 
ENDROOT
BRANCH   1   9
HETATM    9  C   UNL     1       6.816  26.115  55.051  1.00  0.00     0.115 C 
HETATM   10  C   UNL     1       5.415  26.545  54.611  1.00  0.00     0.037 C 
BRANCH   9  11
HETATM   11  N   UNL     1       7.107  26.285  56.473  1.00  0.00    -0.335 N 
HETATM   12  C   UNL     1       7.760  27.209  57.225  1.00  0.00     0.321 C 
HETATM   13  N   UNL     1       8.437  28.183  56.556  1.00  0.00    -0.307 N 
HETATM   14  O   UNL     1       7.700  27.078  58.442  1.00  0.00    -0.247 OA
HETATM   15  H   UNL     1       8.800  27.876  55.672  1.00  0.00     0.170 HD
HETATM   16  H   UNL     1       6.599  25.657  57.087  1.00  0.00     0.165 HD
BRANCH  13  17
HETATM   17  C   UNL     1       9.119  29.291  57.118  1.00  0.00     0.059 A 
HETATM   18  C   UNL     1       8.561  30.316  57.895  1.00  0.00    -0.032 A 
HETATM   19  C   UNL     1       7.099  30.466  58.206  1.00  0.00     0.050 C 
HETATM   20  C   UNL     1       9.422  31.302  58.411  1.00  0.00     0.028 A 
HETATM   21  C   UNL     1      10.770  31.277  58.090  1.00  0.00     0.117 A 
HETATM   22  N   UNL     1      11.322  30.350  57.289  1.00  0.00    -0.271 NA
HETATM   23  C   UNL     1      10.487  29.390  56.828  1.00  0.00     0.146 A 
ENDBRANCH  13  17
ENDBRANCH   9  11
ENDBRANCH   1   9
TORSDOF 3
ENDMDL
MODEL 2
REMARK VINA RESULT:      -8.6      1.543      2.149
REMARK  3 active torsions:
REMARK  status: ('A' for Active; 'I' for Inactive)
REMARK    1  A    between atoms: C_3  and  N_4 
REMARK       I    between atoms: N_4  and  C_5 
REMARK       I    between atoms: C_5  and  N_6 
REMARK    2  A    between atoms: N_6  and  C_7 
REMARK    3  A    between atoms: C_7  and  C_8 
ROOT
HETATM    1  C   UNL     1       7.574  24.425  55.509  1.00  0.00    -0.036 A 
HETATM    2  C   UNL     1       7.744  24.518  54.121  1.00  0.00     0.011 A 
HETATM    3  C   UNL     1       7.960  23.372  53.345  1.00  0.00     0.023 A 
HETATM    4  C   UNL     1       8.015  22.113  53.946  1.00  0.00     0.044 A 
HETATM    5  C   UNL     1       8.236  20.941  53.152  1.00  0.00     0.099 C 
HETATM    6  N   UNL     1       8.416  19.988  52.513  1.00  0.00    -0.191 NA
HETATM    7  C   UNL     1       7.854  22.004  55.327  1.00  0.00     0.023 A 
HETATM    8  C   UNL     1       7.637  23.149  56.100  1.00  0.00     0.011 A 
ENDROOT
BRANCH   1   9
HETATM    9  C   UNL     1       7.354  25.634  56.404  1.00  0.00     0.115 C 
HETATM   10  C   UNL     1       8.134  25.524  57.717  1.00  0.00     0.037 C 
BRANCH   9  11
HETATM   11  N   UNL     1       7.449  26.924  55.724  1.00  0.00    -0.335 N 
HETATM   12  C   UNL     1       7.858  28.173  56.067  1.00  0.00     0.321 C 
HETATM   13  N   UNL     1       8.156  28.386  57.377  1.00  0.00    -0.307 N 
HETATM   14  O   UNL     1       7.907  29.007  55.170  1.00  0.00    -0.247 OA
HETATM   15  H   UNL     1       7.609  27.824  58.004  1.00  0.00     0.170 HD
HETATM   16  H   UNL     1       7.318  26.882  54.719  1.00  0.00     0.165 HD
BRANCH  13  17
HETATM   17  C   UNL     1       8.675  29.572  57.955  1.00  0.00     0.059 A 
HETATM   18  C   UNL     1       9.942  30.132  57.733  1.00  0.00    -0.032 A 
HETATM   19  C   UNL     1      11.022  29.515  56.890  1.00  0.00     0.050 C 
HETATM   20  C   UNL     1      10.248  31.353  58.360  1.00  0.00     0.028 A 
HETATM   21  C   UNL     1       9.332  31.934  59.223  1.00  0.00     0.117 A 
HETATM   22  N   UNL     1       8.139  31.387  59.512  1.00  0.00    -0.271 NA
HETATM   23  C   UNL     1       7.846  30.229  58.876  1.00  0.00     0.146 A 
ENDBRANCH  13  17
ENDBRANCH   9  11
ENDBRANCH   1   9
TORSDOF 3
ENDMDL
MODEL 3
REMARK VINA RESULT:      -8.5      4.782      9.965
REMARK  3 active torsions:
REMARK  status: ('A' for Active; 'I' for Inactive)
REMARK    1  A    between atoms: C_3  and  N_4 
REMARK       I    between atoms: N_4  and  C_5 
REMARK       I    between atoms: C_5  and  N_6 
REMARK    2  A    between atoms: N_6  and  C_7 
REMARK    3  A    between atoms: C_7  and  C_8 
ROOT
HETATM    1  C   UNL     1       8.041  32.120  62.485  1.00  0.00    -0.036 A 
HETATM    2  C   UNL     1       6.846  32.031  61.758  1.00  0.00     0.011 A 
HETATM    3  C   UNL     1       5.651  32.550  62.272  1.00  0.00     0.023 A 
HETATM    4  C   UNL     1       5.631  33.165  63.527  1.00  0.00     0.044 A 
HETATM    5  C   UNL     1       4.408  33.696  64.053  1.00  0.00     0.099 C 
HETATM    6  N   UNL     1       3.420  34.127  64.483  1.00  0.00    -0.191 NA
HETATM    7  C   UNL     1       6.810  33.255  64.266  1.00  0.00     0.023 A 
HETATM    8  C   UNL     1       8.002  32.737  63.749  1.00  0.00     0.011 A 
ENDROOT
BRANCH   1   9
HETATM    9  C   UNL     1       9.363  31.559  61.987  1.00  0.00     0.115 C 
HETATM   10  C   UNL     1       9.459  30.046  62.195  1.00  0.00     0.037 C 
BRANCH   9  11
HETATM   11  N   UNL     1       9.772  32.039  60.668  1.00  0.00    -0.335 N 
HETATM   12  C   UNL     1       9.533  31.664  59.384  1.00  0.00     0.321 C 
HETATM   13  N   UNL     1       8.854  30.500  59.197  1.00  0.00    -0.307 N 
HETATM   14  O   UNL     1       9.965  32.398  58.502  1.00  0.00    -0.247 OA
HETATM   15  H   UNL     1       9.027  29.821  59.917  1.00  0.00     0.170 HD
HETATM   16  H   UNL     1      10.228  32.944  60.670  1.00  0.00     0.165 HD
BRANCH  13  17
HETATM   17  C   UNL     1       8.422  29.950  57.964  1.00  0.00     0.059 A 
HETATM   18  C   UNL     1       9.231  29.417  56.950  1.00  0.00    -0.032 A 
HETATM   19  C   UNL     1      10.733  29.411  56.958  1.00  0.00     0.050 C 
HETATM   20  C   UNL     1       8.602  28.863  55.820  1.00  0.00     0.028 A 
HETATM   21  C   UNL     1       7.222  28.916  55.703  1.00  0.00     0.117 A 
HETATM   22  N   UNL     1       6.424  29.484  56.623  1.00  0.00    -0.271 NA
HETATM   23  C   UNL     1       7.041  29.982  57.720  1.00  0.00     0.146 A 
ENDBRANCH  13  17
ENDBRANCH   9  11
ENDBRANCH   1   9
TORSDOF 3
ENDMDL
MODEL 4
REMARK VINA RESULT:      -8.5      1.864      2.383
REMARK  3 active torsions:
REMARK  status: ('A' for Active; 'I' for Inactive)
REMARK    1  A    between atoms: C_3  and  N_4 
REMARK       I    between atoms: N_4  and  C_5 
REMARK       I    between atoms: C_5  and  N_6 
REMARK    2  A    between atoms: N_6  and  C_7 
REMARK    3  A    between atoms: C_7  and  C_8 
ROOT
HETATM    1  C   UNL     1       6.780  24.551  54.065  1.00  0.00    -0.036 A 
HETATM    2  C   UNL     1       6.944  23.872  55.280  1.00  0.00     0.011 A 
HETATM    3  C   UNL     1       7.510  22.592  55.317  1.00  0.00     0.023 A 
HETATM    4  C   UNL     1       7.918  21.966  54.137  1.00  0.00     0.044 A 
HETATM    5  C   UNL     1       8.497  20.656  54.175  1.00  0.00     0.099 C 
HETATM    6  N   UNL     1       8.967  19.594  54.201  1.00  0.00    -0.191 NA
HETATM    7  C   UNL     1       7.756  22.625  52.919  1.00  0.00     0.023 A 
HETATM    8  C   UNL     1       7.191  23.904  52.884  1.00  0.00     0.011 A 
ENDROOT
BRANCH   1   9
HETATM    9  C   UNL     1       6.156  25.933  53.961  1.00  0.00     0.115 C 
HETATM   10  C   UNL     1       5.523  26.174  52.588  1.00  0.00     0.037 C 
BRANCH   9  11
HETATM   11  N   UNL     1       5.337  26.322  55.107  1.00  0.00    -0.335 N 
HETATM   12  C   UNL     1       5.436  27.243  56.101  1.00  0.00     0.321 C 
HETATM   13  N   UNL     1       6.606  27.931  56.191  1.00  0.00    -0.307 N 
HETATM   14  O   UNL     1       4.468  27.364  56.844  1.00  0.00    -0.247 OA
HETATM   15  H   UNL     1       7.402  27.398  55.890  1.00  0.00     0.170 HD
HETATM   16  H   UNL     1       4.403  25.927  55.113  1.00  0.00     0.165 HD
BRANCH  13  17
HETATM   17  C   UNL     1       6.911  28.988  57.085  1.00  0.00     0.059 A 
HETATM   18  C   UNL     1       6.371  30.282  57.074  1.00  0.00    -0.032 A 
HETATM   19  C   UNL     1       5.417  30.810  56.041  1.00  0.00     0.050 C 
HETATM   20  C   UNL     1       6.763  31.174  58.089  1.00  0.00     0.028 A 
HETATM   21  C   UNL     1       7.709  30.784  59.023  1.00  0.00     0.117 A 
HETATM   22  N   UNL     1       8.298  29.576  59.018  1.00  0.00    -0.271 NA
HETATM   23  C   UNL     1       7.887  28.718  58.055  1.00  0.00     0.146 A 
ENDBRANCH  13  17
ENDBRANCH   9  11
ENDBRANCH   1   9
TORSDOF 3
ENDMDL
MODEL 5
REMARK VINA RESULT:      -8.3      4.235      6.499
REMARK  3 active torsions:
REMARK  status: ('A' for Active; 'I' for Inactive)
REMARK    1  A    between atoms: C_3  and  N_4 
REMARK       I    between atoms: N_4  and  C_5 
REMARK       I    between atoms: C_5  and  N_6 
REMARK    2  A    between atoms: N_6  and  C_7 
REMARK    3  A    between atoms: C_7  and  C_8 
ROOT
HETATM    1  C   UNL     1       7.151  25.456  54.033  1.00  0.00    -0.036 A 
HETATM    2  C   UNL     1       7.695  25.060  52.803  1.00  0.00     0.011 A 
HETATM    3  C   UNL     1       7.993  23.715  52.549  1.00  0.00     0.023 A 
HETATM    4  C   UNL     1       7.757  22.743  53.524  1.00  0.00     0.044 A 
HETATM    5  C   UNL     1       8.062  21.368  53.263  1.00  0.00     0.099 C 
HETATM    6  N   UNL     1       8.308  20.252  53.057  1.00  0.00    -0.191 NA
HETATM    7  C   UNL     1       7.223  23.122  54.755  1.00  0.00     0.023 A 
HETATM    8  C   UNL     1       6.925  24.465  55.006  1.00  0.00     0.011 A 
ENDROOT
BRANCH   1   9
HETATM    9  C   UNL     1       6.824  26.901  54.372  1.00  0.00     0.115 C 
HETATM   10  C   UNL     1       7.978  27.846  54.029  1.00  0.00     0.037 C 
BRANCH   9  11
HETATM   11  N   UNL     1       5.500  27.345  53.942  1.00  0.00    -0.335 N 
HETATM   12  C   UNL     1       4.892  27.563  52.747  1.00  0.00     0.321 C 
HETATM   13  N   UNL     1       5.672  27.487  51.635  1.00  0.00    -0.307 N 
HETATM   14  O   UNL     1       3.695  27.829  52.773  1.00  0.00    -0.247 OA
HETATM   15  H   UNL     1       6.622  27.768  51.798  1.00  0.00     0.170 HD
HETATM   16  H   UNL     1       4.803  27.372  54.679  1.00  0.00     0.165 HD
BRANCH  13  17
HETATM   17  C   UNL     1       5.251  27.595  50.286  1.00  0.00     0.059 A 
HETATM   18  C   UNL     1       5.306  28.739  49.477  1.00  0.00    -0.032 A 
HETATM   19  C   UNL     1       5.752  30.099  49.933  1.00  0.00     0.050 C 
HETATM   20  C   UNL     1       4.891  28.626  48.137  1.00  0.00     0.028 A 
HETATM   21  C   UNL     1       4.382  27.425  47.672  1.00  0.00     0.117 A 
HETATM   22  N   UNL     1       4.249  26.331  48.441  1.00  0.00    -0.271 NA
HETATM   23  C   UNL     1       4.683  26.446  49.717  1.00  0.00     0.146 A 
ENDBRANCH  13  17
ENDBRANCH   9  11
ENDBRANCH   1   9
TORSDOF 3
ENDMDL
MODEL 6
REMARK VINA RESULT:      -8.2      5.855      8.558
REMARK  3 active torsions:
REMARK  status: ('A' for Active; 'I' for Inactive)
REMARK    1  A    between atoms: C_3  and  N_4 
REMARK       I    between atoms: N_4  and  C_5 
REMARK       I    between atoms: C_5  and  N_6 
REMARK    2  A    between atoms: N_6  and  C_7 
REMARK    3  A    between atoms: C_7  and  C_8 
ROOT
HETATM    1  C   UNL     1       6.003  25.536  52.939  1.00  0.00    -0.036 A 
HETATM    2  C   UNL     1       5.871  24.976  54.217  1.00  0.00     0.011 A 
HETATM    3  C   UNL     1       6.776  24.011  54.676  1.00  0.00     0.023 A 
HETATM    4  C   UNL     1       7.827  23.584  53.860  1.00  0.00     0.044 A 
HETATM    5  C   UNL     1       8.752  22.595  54.330  1.00  0.00     0.099 C 
HETATM    6  N   UNL     1       9.504  21.795  54.706  1.00  0.00    -0.191 NA
HETATM    7  C   UNL     1       7.968  24.126  52.583  1.00  0.00     0.023 A 
HETATM    8  C   UNL     1       7.064  25.091  52.128  1.00  0.00     0.011 A 
ENDROOT
BRANCH   1   9
HETATM    9  C   UNL     1       5.043  26.573  52.380  1.00  0.00     0.115 C 
HETATM   10  C   UNL     1       4.601  27.578  53.447  1.00  0.00     0.037 C 
BRANCH   9  11
HETATM   11  N   UNL     1       5.447  27.153  51.100  1.00  0.00    -0.335 N 
HETATM   12  C   UNL     1       4.813  27.491  49.947  1.00  0.00     0.321 C 
HETATM   13  N   UNL     1       3.508  27.126  49.830  1.00  0.00    -0.307 N 
HETATM   14  O   UNL     1       5.477  28.080  49.102  1.00  0.00    -0.247 OA
HETATM   15  H   UNL     1       3.290  26.275  50.317  1.00  0.00     0.170 HD
HETATM   16  H   UNL     1       6.387  27.531  51.086  1.00  0.00     0.165 HD
BRANCH  13  17
HETATM   17  C   UNL     1       2.625  27.435  48.765  1.00  0.00     0.059 A 
HETATM   18  C   UNL     1       2.317  26.622  47.664  1.00  0.00    -0.032 A 
HETATM   19  C   UNL     1       2.945  25.289  47.373  1.00  0.00     0.050 C 
HETATM   20  C   UNL     1       1.365  27.089  46.739  1.00  0.00     0.028 A 
HETATM   21  C   UNL     1       0.812  28.350  46.896  1.00  0.00     0.117 A 
HETATM   22  N   UNL     1       1.139  29.182  47.900  1.00  0.00    -0.271 NA
HETATM   23  C   UNL     1       2.031  28.705  48.799  1.00  0.00     0.146 A 
ENDBRANCH  13  17
ENDBRANCH   9  11
ENDBRANCH   1   9
TORSDOF 3
ENDMDL
MODEL 7
REMARK VINA RESULT:      -8.2      5.927     11.103
REMARK  3 active torsions:
REMARK  status: ('A' for Active; 'I' for Inactive)
REMARK    1  A    between atoms: C_3  and  N_4 
REMARK       I    between atoms: N_4  and  C_5 
REMARK       I    between atoms: C_5  and  N_6 
REMARK    2  A    between atoms: N_6  and  C_7 
REMARK    3  A    between atoms: C_7  and  C_8 
ROOT
HETATM    1  C   UNL     1       6.412  32.775  63.592  1.00  0.00    -0.036 A 
HETATM    2  C   UNL     1       7.455  33.210  64.420  1.00  0.00     0.011 A 
HETATM    3  C   UNL     1       7.188  33.823  65.651  1.00  0.00     0.023 A 
HETATM    4  C   UNL     1       5.870  34.016  66.072  1.00  0.00     0.044 A 
HETATM    5  C   UNL     1       5.597  34.644  67.331  1.00  0.00     0.099 C 
HETATM    6  N   UNL     1       5.371  35.153  68.350  1.00  0.00    -0.191 NA
HETATM    7  C   UNL     1       4.820  33.595  65.256  1.00  0.00     0.023 A 
HETATM    8  C   UNL     1       5.090  32.981  64.029  1.00  0.00     0.011 A 
ENDROOT
BRANCH   1   9
HETATM    9  C   UNL     1       6.640  32.120  62.240  1.00  0.00     0.115 C 
HETATM   10  C   UNL     1       6.476  33.113  61.087  1.00  0.00     0.037 C 
BRANCH   9  11
HETATM   11  N   UNL     1       7.822  31.263  62.167  1.00  0.00    -0.335 N 
HETATM   12  C   UNL     1       8.461  30.574  61.186  1.00  0.00     0.321 C 
HETATM   13  N   UNL     1       7.851  30.522  59.971  1.00  0.00    -0.307 N 
HETATM   14  O   UNL     1       9.525  30.043  61.483  1.00  0.00    -0.247 OA
HETATM   15  H   UNL     1       6.849  30.540  60.030  1.00  0.00     0.170 HD
HETATM   16  H   UNL     1       8.404  31.275  62.997  1.00  0.00     0.165 HD
BRANCH  13  17
HETATM   17  C   UNL     1       8.358  29.938  58.783  1.00  0.00     0.059 A 
HETATM   18  C   UNL     1       9.479  30.357  58.051  1.00  0.00    -0.032 A 
HETATM   19  C   UNL     1      10.306  31.573  58.359  1.00  0.00     0.050 C 
HETATM   20  C   UNL     1       9.856  29.604  56.925  1.00  0.00     0.028 A 
HETATM   21  C   UNL     1       9.086  28.522  56.529  1.00  0.00     0.117 A 
HETATM   22  N   UNL     1       7.966  28.139  57.166  1.00  0.00    -0.271 NA
HETATM   23  C   UNL     1       7.635  28.853  58.267  1.00  0.00     0.146 A 
ENDBRANCH  13  17
ENDBRANCH   9  11
ENDBRANCH   1   9
TORSDOF 3
ENDMDL
MODEL 8
REMARK VINA RESULT:      -8.2      1.924      2.469
REMARK  3 active torsions:
REMARK  status: ('A' for Active; 'I' for Inactive)
REMARK    1  A    between atoms: C_3  and  N_4 
REMARK       I    between atoms: N_4  and  C_5 
REMARK       I    between atoms: C_5  and  N_6 
REMARK    2  A    between atoms: N_6  and  C_7 
REMARK    3  A    between atoms: C_7  and  C_8 
ROOT
HETATM    1  C   UNL     1       6.970  24.949  53.181  1.00  0.00    -0.036 A 
HETATM    2  C   UNL     1       6.556  24.634  54.482  1.00  0.00     0.011 A 
HETATM    3  C   UNL     1       6.925  23.423  55.081  1.00  0.00     0.023 A 
HETATM    4  C   UNL     1       7.712  22.503  54.385  1.00  0.00     0.044 A 
HETATM    5  C   UNL     1       8.089  21.263  54.998  1.00  0.00     0.099 C 
HETATM    6  N   UNL     1       8.397  20.258  55.490  1.00  0.00    -0.191 NA
HETATM    7  C   UNL     1       8.128  22.797  53.086  1.00  0.00     0.023 A 
HETATM    8  C   UNL     1       7.759  24.008  52.491  1.00  0.00     0.011 A 
ENDROOT
BRANCH   1   9
HETATM    9  C   UNL     1       6.587  26.238  52.473  1.00  0.00     0.115 C 
HETATM   10  C   UNL     1       5.789  25.974  51.194  1.00  0.00     0.037 C 
BRANCH   9  11
HETATM   11  N   UNL     1       6.047  27.278  53.347  1.00  0.00    -0.335 N 
HETATM   12  C   UNL     1       6.547  28.079  54.323  1.00  0.00     0.321 C 
HETATM   13  N   UNL     1       7.824  27.836  54.727  1.00  0.00    -0.307 N 
HETATM   14  O   UNL     1       5.800  28.941  54.771  1.00  0.00    -0.247 OA
HETATM   15  H   UNL     1       8.083  26.868  54.661  1.00  0.00     0.170 HD
HETATM   16  H   UNL     1       5.118  27.598  53.098  1.00  0.00     0.165 HD
BRANCH  13  17
HETATM   17  C   UNL     1       8.582  28.583  55.664  1.00  0.00     0.059 A 
HETATM   18  C   UNL     1       8.386  28.639  57.051  1.00  0.00    -0.032 A 
HETATM   19  C   UNL     1       7.264  27.969  57.792  1.00  0.00     0.050 C 
HETATM   20  C   UNL     1       9.288  29.398  57.819  1.00  0.00     0.028 A 
HETATM   21  C   UNL     1      10.294  30.116  57.193  1.00  0.00     0.117 A 
HETATM   22  N   UNL     1      10.464  30.141  55.860  1.00  0.00    -0.271 NA
HETATM   23  C   UNL     1       9.609  29.380  55.137  1.00  0.00     0.146 A 
ENDBRANCH  13  17
ENDBRANCH   9  11
ENDBRANCH   1   9
TORSDOF 3
ENDMDL
MODEL 9
REMARK VINA RESULT:      -8.1      1.812      2.261
REMARK  3 active torsions:
REMARK  status: ('A' for Active; 'I' for Inactive)
REMARK    1  A    between atoms: C_3  and  N_4 
REMARK       I    between atoms: N_4  and  C_5 
REMARK       I    between atoms: C_5  and  N_6 
REMARK    2  A    between atoms: N_6  and  C_7 
REMARK    3  A    between atoms: C_7  and  C_8 
ROOT
HETATM    1  C   UNL     1       6.853  24.674  54.749  1.00  0.00    -0.036 A 
HETATM    2  C   UNL     1       7.119  23.631  55.646  1.00  0.00     0.011 A 
HETATM    3  C   UNL     1       7.598  22.396  55.191  1.00  0.00     0.023 A 
HETATM    4  C   UNL     1       7.815  22.182  53.828  1.00  0.00     0.044 A 
HETATM    5  C   UNL     1       8.305  20.918  53.362  1.00  0.00     0.099 C 
HETATM    6  N   UNL     1       8.702  19.896  52.980  1.00  0.00    -0.191 NA
HETATM    7  C   UNL     1       7.549  23.208  52.921  1.00  0.00     0.023 A 
HETATM    8  C   UNL     1       7.071  24.441  53.378  1.00  0.00     0.011 A 
ENDROOT
BRANCH   1   9
HETATM    9  C   UNL     1       6.315  26.028  55.182  1.00  0.00     0.115 C 
HETATM   10  C   UNL     1       5.654  25.968  56.560  1.00  0.00     0.037 C 
BRANCH   9  11
HETATM   11  N   UNL     1       7.235  27.145  54.975  1.00  0.00    -0.335 N 
HETATM   12  C   UNL     1       7.592  28.250  55.680  1.00  0.00     0.321 C 
HETATM   13  N   UNL     1       6.881  28.518  56.809  1.00  0.00    -0.307 N 
HETATM   14  O   UNL     1       8.512  28.923  55.229  1.00  0.00    -0.247 OA
HETATM   15  H   UNL     1       5.924  28.218  56.755  1.00  0.00     0.170 HD
HETATM   16  H   UNL     1       7.875  27.027  54.197  1.00  0.00     0.165 HD
BRANCH  13  17
HETATM   17  C   UNL     1       7.117  29.558  57.743  1.00  0.00     0.059 A 
HETATM   18  C   UNL     1       6.439  30.782  57.829  1.00  0.00    -0.032 A 
HETATM   19  C   UNL     1       5.376  31.248  56.875  1.00  0.00     0.050 C 
HETATM   20  C   UNL     1       6.785  31.662  58.870  1.00  0.00     0.028 A 
HETATM   21  C   UNL     1       7.819  31.337  59.733  1.00  0.00     0.117 A 
HETATM   22  N   UNL     1       8.537  30.205  59.633  1.00  0.00    -0.271 NA
HETATM   23  C   UNL     1       8.170  29.353  58.647  1.00  0.00     0.146 A 
ENDBRANCH  13  17
ENDBRANCH   9  11
ENDBRANCH   1   9
TORSDOF 3
ENDMDL
MODEL 10
REMARK VINA RESULT:      -8.0      3.871      6.061
REMARK  3 active torsions:
REMARK  status: ('A' for Active; 'I' for Inactive)
REMARK    1  A    between atoms: C_3  and  N_4 
REMARK       I    between atoms: N_4  and  C_5 
REMARK       I    between atoms: C_5  and  N_6 
REMARK    2  A    between atoms: N_6  and  C_7 
REMARK    3  A    between atoms: C_7  and  C_8 
ROOT
HETATM    1  C   UNL     1       6.660  24.442  54.722  1.00  0.00    -0.036 A 
HETATM    2  C   UNL     1       7.060  23.550  55.727  1.00  0.00     0.011 A 
HETATM    3  C   UNL     1       7.665  22.329  55.404  1.00  0.00     0.023 A 
HETATM    4  C   UNL     1       7.876  21.976  54.069  1.00  0.00     0.044 A 
HETATM    5  C   UNL     1       8.495  20.726  53.740  1.00  0.00     0.099 C 
HETATM    6  N   UNL     1       8.996  19.715  53.468  1.00  0.00    -0.191 NA
HETATM    7  C   UNL     1       7.477  22.849  53.057  1.00  0.00     0.023 A 
HETATM    8  C   UNL     1       6.874  24.069  53.381  1.00  0.00     0.011 A 
ENDROOT
BRANCH   1   9
HETATM    9  C   UNL     1       5.982  25.772  55.009  1.00  0.00     0.115 C 
HETATM   10  C   UNL     1       5.788  26.003  56.509  1.00  0.00     0.037 C 
BRANCH   9  11
HETATM   11  N   UNL     1       6.524  26.907  54.264  1.00  0.00    -0.335 N 
HETATM   12  C   UNL     1       6.177  27.579  53.135  1.00  0.00     0.321 C 
HETATM   13  N   UNL     1       5.160  27.059  52.395  1.00  0.00    -0.307 N 
HETATM   14  O   UNL     1       6.823  28.586  52.869  1.00  0.00    -0.247 OA
HETATM   15  H   UNL     1       5.105  26.058  52.446  1.00  0.00     0.170 HD
HETATM   16  H   UNL     1       7.247  27.425  54.750  1.00  0.00     0.165 HD
BRANCH  13  17
HETATM   17  C   UNL     1       4.573  27.621  51.234  1.00  0.00     0.059 A 
HETATM   18  C   UNL     1       3.699  28.716  51.178  1.00  0.00    -0.032 A 
HETATM   19  C   UNL     1       3.156  29.449  52.371  1.00  0.00     0.050 C 
HETATM   20  C   UNL     1       3.270  29.159  49.913  1.00  0.00     0.028 A 
HETATM   21  C   UNL     1       3.660  28.474  48.773  1.00  0.00     0.117 A 
HETATM   22  N   UNL     1       4.437  27.379  48.799  1.00  0.00    -0.271 NA
HETATM   23  C   UNL     1       4.869  26.984  50.019  1.00  0.00     0.146 A 
ENDBRANCH  13  17
ENDBRANCH   9  11
ENDBRANCH   1   9
TORSDOF 3
ENDMDL
