MODEL 1
REMARK VINA RESULT:      -8.9      0.000      0.000
REMARK  4 active torsions:
REMARK  status: ('A' for Active; 'I' for Inactive)
REMARK    1  A    between atoms: C_5  and  C_6 
REMARK    2  A    between atoms: N_7  and  N_8 
REMARK       I    between atoms: N_8  and  C_9 
REMARK    3  A    between atoms: C_9  and  C_10 
REMARK    4  A    between atoms: C_21  and  O_22 
ROOT
HETATM    1  N   UNL     1       7.471  28.941  58.531  1.00  0.00    -0.242 N 
HETATM    2  C   UNL     1       8.266  30.055  58.753  1.00  0.00     0.292 C 
HETATM    3  O   UNL     1       9.463  30.128  58.488  1.00  0.00    -0.264 OA
HETATM    4  H   UNL     1       6.492  29.016  58.798  1.00  0.00     0.192 HD
ENDROOT
BRANCH   1   5
HETATM    5  N   UNL     1       7.985  27.816  57.968  1.00  0.00    -0.183 NA
HETATM    6  C   UNL     1       7.177  27.152  57.205  1.00  0.00     0.153 C 
BRANCH   6   7
HETATM    7  C   UNL     1       7.627  25.915  56.533  1.00  0.00     0.017 A 
HETATM    8  C   UNL     1       7.422  25.803  55.154  1.00  0.00     0.034 A 
HETATM    9  C   UNL     1       7.840  24.647  54.492  1.00  0.00     0.012 A 
HETATM   10  C   UNL     1       8.456  23.608  55.188  1.00  0.00     0.022 A 
HETATM   11 BR   UNL     1       7.565  24.489  52.628  1.00  0.00    -0.051 Br
HETATM   12  C   UNL     1       8.658  23.722  56.564  1.00  0.00     0.039 A 
HETATM   13  C   UNL     1       8.246  24.872  57.234  1.00  0.00     0.077 A 
BRANCH  13  14
HETATM   14  O   UNL     1       8.482  24.903  58.581  1.00  0.00    -0.360 OA
HETATM   15  H   UNL     1       8.895  24.049  58.846  1.00  0.00     0.217 HD
ENDBRANCH  13  14
ENDBRANCH   6   7
ENDBRANCH   1   5
BRANCH   2  16
HETATM   16  C   UNL     1       7.508  31.167  59.351  1.00  0.00     0.154 A 
HETATM   17  N   UNL     1       6.629  31.901  58.625  1.00  0.00    -0.169 NA
HETATM   18  N   UNL     1       6.137  32.798  59.504  1.00  0.00    -0.281 N 
HETATM   19  H   UNL     1       5.449  33.470  59.179  1.00  0.00     0.189 HD
HETATM   20  C   UNL     1       6.662  32.668  60.751  1.00  0.00     0.036 A 
HETATM   21  C   UNL     1       7.559  31.627  60.692  1.00  0.00     0.002 A 
HETATM   22  C   UNL     1       6.352  33.502  61.937  1.00  0.00     0.059 C 
HETATM   23  C   UNL     1       8.338  31.162  61.871  1.00  0.00     0.043 C 
HETATM   24  C   UNL     1       8.293  32.210  63.003  1.00  0.00     0.005 C 
HETATM   25  C   UNL     1       6.884  32.803  63.205  1.00  0.00     0.006 C 
ENDBRANCH   2  16
TORSDOF 4
ENDMDL
MODEL 2
REMARK VINA RESULT:      -8.6      3.744      9.202
REMARK  4 active torsions:
REMARK  status: ('A' for Active; 'I' for Inactive)
REMARK    1  A    between atoms: C_5  and  C_6 
REMARK    2  A    between atoms: N_7  and  N_8 
REMARK       I    between atoms: N_8  and  C_9 
REMARK    3  A    between atoms: C_9  and  C_10 
REMARK    4  A    between atoms: C_21  and  O_22 
ROOT
HETATM    1  N   UNL     1       8.021  25.397  57.691  1.00  0.00    -0.242 N 
HETATM    2  C   UNL     1       7.117  24.616  56.987  1.00  0.00     0.292 C 
HETATM    3  O   UNL     1       5.947  24.918  56.768  1.00  0.00    -0.264 OA
HETATM    4  H   UNL     1       8.962  25.025  57.798  1.00  0.00     0.192 HD
ENDROOT
BRANCH   1   5
HETATM    5  N   UNL     1       7.656  26.606  58.194  1.00  0.00    -0.183 NA
HETATM    6  C   UNL     1       7.894  27.624  57.431  1.00  0.00     0.153 C 
BRANCH   6   7
HETATM    7  C   UNL     1       7.535  28.989  57.869  1.00  0.00     0.017 A 
HETATM    8  C   UNL     1       8.457  29.694  58.650  1.00  0.00     0.034 A 
HETATM    9  C   UNL     1       8.146  30.986  59.076  1.00  0.00     0.012 A 
HETATM   10  C   UNL     1       6.931  31.580  58.733  1.00  0.00     0.022 A 
HETATM   11 BR   UNL     1       9.388  31.944  60.132  1.00  0.00    -0.051 Br
HETATM   12  C   UNL     1       6.013  30.874  57.955  1.00  0.00     0.039 A 
HETATM   13  C   UNL     1       6.314  29.583  57.524  1.00  0.00     0.077 A 
BRANCH  13  14
HETATM   14  O   UNL     1       5.360  28.962  56.765  1.00  0.00    -0.360 OA
HETATM   15  H   UNL     1       4.606  29.585  56.639  1.00  0.00     0.217 HD
ENDBRANCH  13  14
ENDBRANCH   6   7
ENDBRANCH   1   5
BRANCH   2  16
HETATM   16  C   UNL     1       7.722  23.358  56.515  1.00  0.00     0.154 A 
HETATM   17  N   UNL     1       8.319  22.490  57.368  1.00  0.00    -0.169 NA
HETATM   18  N   UNL     1       8.733  21.478  56.580  1.00  0.00    -0.281 N 
HETATM   19  H   UNL     1       9.220  20.696  57.008  1.00  0.00     0.189 HD
HETATM   20  C   UNL     1       8.428  21.662  55.269  1.00  0.00     0.036 A 
HETATM   21  C   UNL     1       7.779  22.872  55.184  1.00  0.00     0.002 A 
HETATM   22  C   UNL     1       8.755  20.754  54.144  1.00  0.00     0.059 C 
HETATM   23  C   UNL     1       7.268  23.428  53.901  1.00  0.00     0.043 C 
HETATM   24  C   UNL     1       7.888  22.686  52.699  1.00  0.00     0.005 C 
HETATM   25  C   UNL     1       7.930  21.158  52.905  1.00  0.00     0.006 C 
ENDBRANCH   2  16
TORSDOF 4
ENDMDL
MODEL 3
REMARK VINA RESULT:      -8.6      1.937      2.383
REMARK  4 active torsions:
REMARK  status: ('A' for Active; 'I' for Inactive)
REMARK    1  A    between atoms: C_5  and  C_6 
REMARK    2  A    between atoms: N_7  and  N_8 
REMARK       I    between atoms: N_8  and  C_9 
REMARK    3  A    between atoms: C_9  and  C_10 
REMARK    4  A    between atoms: C_21  and  O_22 
ROOT
HETATM    1  N   UNL     1       7.452  28.134  57.264  1.00  0.00    -0.242 N 
HETATM    2  C   UNL     1       8.315  29.141  57.668  1.00  0.00     0.292 C 
HETATM    3  O   UNL     1       9.506  29.204  57.378  1.00  0.00    -0.264 OA
HETATM    4  H   UNL     1       6.486  28.204  57.577  1.00  0.00     0.192 HD
ENDROOT
BRANCH   1   5
HETATM    5  N   UNL     1       7.887  27.115  56.476  1.00  0.00    -0.183 NA
HETATM    6  C   UNL     1       7.000  26.221  56.175  1.00  0.00     0.153 C 
BRANCH   6   7
HETATM    7  C   UNL     1       7.356  25.072  55.319  1.00  0.00     0.017 A 
HETATM    8  C   UNL     1       7.407  23.803  55.907  1.00  0.00     0.034 A 
HETATM    9  C   UNL     1       7.737  22.697  55.122  1.00  0.00     0.012 A 
HETATM   10  C   UNL     1       8.015  22.843  53.762  1.00  0.00     0.022 A 
HETATM   11 BR   UNL     1       7.809  20.981  55.910  1.00  0.00    -0.051 Br
HETATM   12  C   UNL     1       7.963  24.110  53.179  1.00  0.00     0.039 A 
HETATM   13  C   UNL     1       7.635  25.219  53.954  1.00  0.00     0.077 A 
BRANCH  13  14
HETATM   14  O   UNL     1       7.605  26.423  53.304  1.00  0.00    -0.360 OA
HETATM   15  H   UNL     1       7.776  27.138  53.961  1.00  0.00     0.217 HD
ENDBRANCH  13  14
ENDBRANCH   6   7
ENDBRANCH   1   5
BRANCH   2  16
HETATM   16  C   UNL     1       7.636  30.152  58.498  1.00  0.00     0.154 A 
HETATM   17  N   UNL     1       6.398  30.612  58.190  1.00  0.00    -0.169 NA
HETATM   18  N   UNL     1       6.118  31.498  59.167  1.00  0.00    -0.281 N 
HETATM   19  H   UNL     1       5.226  31.982  59.143  1.00  0.00     0.189 HD
HETATM   20  C   UNL     1       7.118  31.621  60.078  1.00  0.00     0.036 A 
HETATM   21  C   UNL     1       8.122  30.772  59.677  1.00  0.00     0.002 A 
HETATM   22  C   UNL     1       7.138  32.518  61.259  1.00  0.00     0.059 C 
HETATM   23  C   UNL     1       9.396  30.610  60.430  1.00  0.00     0.043 C 
HETATM   24  C   UNL     1       9.580  31.759  61.443  1.00  0.00     0.005 C 
HETATM   25  C   UNL     1       8.281  32.092  62.204  1.00  0.00     0.006 C 
ENDBRANCH   2  16
TORSDOF 4
ENDMDL
MODEL 4
REMARK VINA RESULT:      -8.4      6.624      9.195
REMARK  4 active torsions:
REMARK  status: ('A' for Active; 'I' for Inactive)
REMARK    1  A    between atoms: C_5  and  C_6 
REMARK    2  A    between atoms: N_7  and  N_8 
REMARK       I    between atoms: N_8  and  C_9 
REMARK    3  A    between atoms: C_9  and  C_10 
REMARK    4  A    between atoms: C_21  and  O_22 
ROOT
HETATM    1  N   UNL     1       6.168  25.227  53.911  1.00  0.00    -0.242 N 
HETATM    2  C   UNL     1       7.157  25.568  54.821  1.00  0.00     0.292 C 
HETATM    3  O   UNL     1       7.616  26.698  54.970  1.00  0.00    -0.264 OA
HETATM    4  H   UNL     1       5.879  24.252  53.892  1.00  0.00     0.192 HD
ENDROOT
BRANCH   1   5
HETATM    5  N   UNL     1       5.610  26.166  53.101  1.00  0.00    -0.183 NA
HETATM    6  C   UNL     1       5.889  26.056  51.842  1.00  0.00     0.153 C 
BRANCH   6   7
HETATM    7  C   UNL     1       5.333  27.015  50.865  1.00  0.00     0.017 A 
HETATM    8  C   UNL     1       4.637  26.506  49.764  1.00  0.00     0.034 A 
HETATM    9  C   UNL     1       4.099  27.388  48.826  1.00  0.00     0.012 A 
HETATM   10  C   UNL     1       4.247  28.768  48.975  1.00  0.00     0.022 A 
HETATM   11 BR   UNL     1       3.157  26.706  47.336  1.00  0.00    -0.051 Br
HETATM   12  C   UNL     1       4.942  29.273  50.074  1.00  0.00     0.039 A 
HETATM   13  C   UNL     1       5.483  28.400  51.016  1.00  0.00     0.077 A 
BRANCH  13  14
HETATM   14  O   UNL     1       6.148  28.978  52.063  1.00  0.00    -0.360 OA
HETATM   15  H   UNL     1       7.098  29.073  51.816  1.00  0.00     0.217 HD
ENDBRANCH  13  14
ENDBRANCH   6   7
ENDBRANCH   1   5
BRANCH   2  16
HETATM   16  C   UNL     1       7.608  24.409  55.610  1.00  0.00     0.154 A 
HETATM   17  N   UNL     1       7.782  24.485  56.952  1.00  0.00    -0.169 NA
HETATM   18  N   UNL     1       8.181  23.247  57.308  1.00  0.00    -0.281 N 
HETATM   19  H   UNL     1       8.379  23.062  58.286  1.00  0.00     0.189 HD
HETATM   20  C   UNL     1       8.268  22.391  56.257  1.00  0.00     0.036 A 
HETATM   21  C   UNL     1       7.911  23.106  55.138  1.00  0.00     0.002 A 
HETATM   22  C   UNL     1       8.692  20.970  56.299  1.00  0.00     0.059 C 
HETATM   23  C   UNL     1       7.868  22.510  53.775  1.00  0.00     0.043 C 
HETATM   24  C   UNL     1       8.621  21.163  53.744  1.00  0.00     0.005 C 
HETATM   25  C   UNL     1       8.310  20.283  54.972  1.00  0.00     0.006 C 
ENDBRANCH   2  16
TORSDOF 4
ENDMDL
MODEL 5
REMARK VINA RESULT:      -8.2      3.545      8.764
REMARK  4 active torsions:
REMARK  status: ('A' for Active; 'I' for Inactive)
REMARK    1  A    between atoms: C_5  and  C_6 
REMARK    2  A    between atoms: N_7  and  N_8 
REMARK       I    between atoms: N_8  and  C_9 
REMARK    3  A    between atoms: C_9  and  C_10 
REMARK    4  A    between atoms: C_21  and  O_22 
ROOT
HETATM    1  N   UNL     1       7.550  27.190  55.563  1.00  0.00    -0.242 N 
HETATM    2  C   UNL     1       6.468  26.326  55.635  1.00  0.00     0.292 C 
HETATM    3  O   UNL     1       5.533  26.435  56.422  1.00  0.00    -0.264 OA
HETATM    4  H   UNL     1       8.257  26.982  54.861  1.00  0.00     0.192 HD
ENDROOT
BRANCH   1   5
HETATM    5  N   UNL     1       7.640  28.267  56.387  1.00  0.00    -0.183 NA
HETATM    6  C   UNL     1       8.841  28.626  56.711  1.00  0.00     0.153 C 
BRANCH   6   7
HETATM    7  C   UNL     1       9.062  29.787  57.597  1.00  0.00     0.017 A 
HETATM    8  C   UNL     1       7.971  30.284  58.318  1.00  0.00     0.034 A 
HETATM    9  C   UNL     1       8.151  31.379  59.165  1.00  0.00     0.012 A 
HETATM   10  C   UNL     1       9.403  31.980  59.300  1.00  0.00     0.022 A 
HETATM   11 BR   UNL     1       6.680  32.055  60.141  1.00  0.00    -0.051 Br
HETATM   12  C   UNL     1      10.489  31.483  58.579  1.00  0.00     0.039 A 
HETATM   13  C   UNL     1      10.320  30.391  57.731  1.00  0.00     0.077 A 
BRANCH  13  14
HETATM   14  O   UNL     1      11.435  29.966  57.063  1.00  0.00    -0.360 OA
HETATM   15  H   UNL     1      11.161  29.309  56.381  1.00  0.00     0.217 HD
ENDBRANCH  13  14
ENDBRANCH   6   7
ENDBRANCH   1   5
BRANCH   2  16
HETATM   16  C   UNL     1       6.560  25.241  54.642  1.00  0.00     0.154 A 
HETATM   17  N   UNL     1       5.755  25.203  53.552  1.00  0.00    -0.169 NA
HETATM   18  N   UNL     1       6.137  24.091  52.892  1.00  0.00    -0.281 N 
HETATM   19  H   UNL     1       5.662  23.851  52.028  1.00  0.00     0.189 HD
HETATM   20  C   UNL     1       7.145  23.422  53.512  1.00  0.00     0.036 A 
HETATM   21  C   UNL     1       7.442  24.130  54.653  1.00  0.00     0.002 A 
HETATM   22  C   UNL     1       7.780  22.160  53.065  1.00  0.00     0.059 C 
HETATM   23  C   UNL     1       8.511  23.722  55.604  1.00  0.00     0.043 C 
HETATM   24  C   UNL     1       8.940  22.262  55.349  1.00  0.00     0.005 C 
HETATM   25  C   UNL     1       9.092  21.943  53.847  1.00  0.00     0.006 C 
ENDBRANCH   2  16
TORSDOF 4
ENDMDL
MODEL 6
REMARK VINA RESULT:      -8.2      3.421      8.911
REMARK  4 active torsions:
REMARK  status: ('A' for Active; 'I' for Inactive)
REMARK    1  A    between atoms: C_5  and  C_6 
REMARK    2  A    between atoms: N_7  and  N_8 
REMARK       I    between atoms: N_8  and  C_9 
REMARK    3  A    between atoms: C_9  and  C_10 
REMARK    4  A    between atoms: C_21  and  O_22 
ROOT
HETATM    1  N   UNL     1       8.235  26.597  56.906  1.00  0.00    -0.242 N 
HETATM    2  C   UNL     1       7.295  25.590  56.747  1.00  0.00     0.292 C 
HETATM    3  O   UNL     1       6.253  25.494  57.389  1.00  0.00    -0.264 OA
HETATM    4  H   UNL     1       9.056  26.556  56.307  1.00  0.00     0.192 HD
ENDROOT
BRANCH   1   5
HETATM    5  N   UNL     1       8.048  27.591  57.814  1.00  0.00    -0.183 NA
HETATM    6  C   UNL     1       7.748  28.750  57.321  1.00  0.00     0.153 C 
BRANCH   6   7
HETATM    7  C   UNL     1       7.515  29.906  58.211  1.00  0.00     0.017 A 
HETATM    8  C   UNL     1       8.382  30.088  59.293  1.00  0.00     0.034 A 
HETATM    9  C   UNL     1       8.188  31.174  60.150  1.00  0.00     0.012 A 
HETATM   10  C   UNL     1       7.143  32.074  59.938  1.00  0.00     0.022 A 
HETATM   11 BR   UNL     1       9.355  31.426  61.616  1.00  0.00    -0.051 Br
HETATM   12  C   UNL     1       6.281  31.889  58.857  1.00  0.00     0.039 A 
HETATM   13  C   UNL     1       6.465  30.809  57.997  1.00  0.00     0.077 A 
BRANCH  13  14
HETATM   14  O   UNL     1       5.576  30.702  56.963  1.00  0.00    -0.360 OA
HETATM   15  H   UNL     1       5.496  29.751  56.716  1.00  0.00     0.217 HD
ENDBRANCH  13  14
ENDBRANCH   6   7
ENDBRANCH   1   5
BRANCH   2  16
HETATM   16  C   UNL     1       7.684  24.629  55.701  1.00  0.00     0.154 A 
HETATM   17  N   UNL     1       7.699  24.972  54.389  1.00  0.00    -0.169 NA
HETATM   18  N   UNL     1       8.109  23.853  53.756  1.00  0.00    -0.281 N 
HETATM   19  H   UNL     1       8.194  23.871  52.745  1.00  0.00     0.189 HD
HETATM   20  C   UNL     1       8.355  22.820  54.604  1.00  0.00     0.036 A 
HETATM   21  C   UNL     1       8.085  23.280  55.871  1.00  0.00     0.002 A 
HETATM   22  C   UNL     1       8.799  21.454  54.234  1.00  0.00     0.059 C 
HETATM   23  C   UNL     1       8.247  22.440  57.089  1.00  0.00     0.043 C 
HETATM   24  C   UNL     1       8.370  20.948  56.711  1.00  0.00     0.005 C 
HETATM   25  C   UNL     1       9.294  20.720  55.497  1.00  0.00     0.006 C 
ENDBRANCH   2  16
TORSDOF 4
ENDMDL
MODEL 7
REMARK VINA RESULT:      -8.2      3.467      8.562
REMARK  4 active torsions:
REMARK  status: ('A' for Active; 'I' for Inactive)
REMARK    1  A    between atoms: C_5  and  C_6 
REMARK    2  A    between atoms: N_7  and  N_8 
REMARK       I    between atoms: N_8  and  C_9 
REMARK    3  A    between atoms: C_9  and  C_10 
REMARK    4  A    between atoms: C_21  and  O_22 
ROOT
HETATM    1  N   UNL     1       7.628  29.328  57.613  1.00  0.00    -0.242 N 
HETATM    2  C   UNL     1       7.731  27.982  57.295  1.00  0.00     0.292 C 
HETATM    3  O   UNL     1       7.875  27.076  58.112  1.00  0.00    -0.264 OA
HETATM    4  H   UNL     1       7.511  29.975  56.836  1.00  0.00     0.192 HD
ENDROOT
BRANCH   1   5
HETATM    5  N   UNL     1       7.668  29.746  58.906  1.00  0.00    -0.183 NA
HETATM    6  C   UNL     1       7.569  31.024  59.085  1.00  0.00     0.153 C 
BRANCH   6   7
HETATM    7  C   UNL     1       7.593  31.594  60.447  1.00  0.00     0.017 A 
HETATM    8  C   UNL     1       6.813  32.727  60.701  1.00  0.00     0.034 A 
HETATM    9  C   UNL     1       6.813  33.286  61.980  1.00  0.00     0.012 A 
HETATM   10  C   UNL     1       7.581  32.728  63.004  1.00  0.00     0.022 A 
HETATM   11 BR   UNL     1       5.762  34.817  62.329  1.00  0.00    -0.051 Br
HETATM   12  C   UNL     1       8.358  31.599  62.747  1.00  0.00     0.039 A 
HETATM   13  C   UNL     1       8.365  31.034  61.474  1.00  0.00     0.077 A 
BRANCH  13  14
HETATM   14  O   UNL     1       9.153  29.928  61.308  1.00  0.00    -0.360 OA
HETATM   15  H   UNL     1       9.012  29.577  60.398  1.00  0.00     0.217 HD
ENDBRANCH  13  14
ENDBRANCH   6   7
ENDBRANCH   1   5
BRANCH   2  16
HETATM   16  C   UNL     1       7.645  27.748  55.843  1.00  0.00     0.154 A 
HETATM   17  N   UNL     1       7.729  28.765  54.951  1.00  0.00    -0.169 NA
HETATM   18  N   UNL     1       7.619  28.165  53.749  1.00  0.00    -0.281 N 
HETATM   19  H   UNL     1       7.653  28.741  52.913  1.00  0.00     0.189 HD
HETATM   20  C   UNL     1       7.469  26.818  53.836  1.00  0.00     0.036 A 
HETATM   21  C   UNL     1       7.473  26.508  55.176  1.00  0.00     0.002 A 
HETATM   22  C   UNL     1       7.302  25.867  52.710  1.00  0.00     0.059 C 
HETATM   23  C   UNL     1       7.343  25.116  55.686  1.00  0.00     0.043 C 
HETATM   24  C   UNL     1       6.832  24.174  54.576  1.00  0.00     0.005 C 
HETATM   25  C   UNL     1       7.521  24.428  53.220  1.00  0.00     0.006 C 
ENDBRANCH   2  16
TORSDOF 4
ENDMDL
MODEL 8
REMARK VINA RESULT:      -8.1      2.554      3.626
REMARK  4 active torsions:
REMARK  status: ('A' for Active; 'I' for Inactive)
REMARK    1  A    between atoms: C_5  and  C_6 
REMARK    2  A    between atoms: N_7  and  N_8 
REMARK       I    between atoms: N_8  and  C_9 
REMARK    3  A    between atoms: C_9  and  C_10 
REMARK    4  A    between atoms: C_21  and  O_22 
ROOT
HETATM    1  N   UNL     1       7.689  27.292  57.495  1.00  0.00    -0.242 N 
HETATM    2  C   UNL     1       8.483  28.427  57.437  1.00  0.00     0.292 C 
HETATM    3  O   UNL     1       9.537  28.517  56.812  1.00  0.00    -0.264 OA
HETATM    4  H   UNL     1       6.839  27.355  58.051  1.00  0.00     0.192 HD
ENDROOT
BRANCH   1   5
HETATM    5  N   UNL     1       8.035  26.162  56.823  1.00  0.00    -0.183 NA
HETATM    6  C   UNL     1       7.256  25.832  55.843  1.00  0.00     0.153 C 
BRANCH   6   7
HETATM    7  C   UNL     1       7.536  24.626  55.037  1.00  0.00     0.017 A 
HETATM    8  C   UNL     1       7.522  23.385  55.681  1.00  0.00     0.034 A 
HETATM    9  C   UNL     1       7.780  22.228  54.944  1.00  0.00     0.012 A 
HETATM   10  C   UNL     1       8.049  22.296  53.577  1.00  0.00     0.022 A 
HETATM   11 BR   UNL     1       7.764  20.547  55.809  1.00  0.00    -0.051 Br
HETATM   12  C   UNL     1       8.062  23.536  52.937  1.00  0.00     0.039 A 
HETATM   13  C   UNL     1       7.806  24.697  53.664  1.00  0.00     0.077 A 
BRANCH  13  14
HETATM   14  O   UNL     1       7.838  25.869  52.960  1.00  0.00    -0.360 OA
HETATM   15  H   UNL     1       8.268  26.558  53.518  1.00  0.00     0.217 HD
ENDBRANCH  13  14
ENDBRANCH   6   7
ENDBRANCH   1   5
BRANCH   2  16
HETATM   16  C   UNL     1       7.916  29.540  58.218  1.00  0.00     0.154 A 
HETATM   17  N   UNL     1       8.395  29.867  59.443  1.00  0.00    -0.169 NA
HETATM   18  N   UNL     1       7.643  30.919  59.826  1.00  0.00    -0.281 N 
HETATM   19  H   UNL     1       7.822  31.341  60.732  1.00  0.00     0.189 HD
HETATM   20  C   UNL     1       6.712  31.274  58.903  1.00  0.00     0.036 A 
HETATM   21  C   UNL     1       6.850  30.400  57.850  1.00  0.00     0.002 A 
HETATM   22  C   UNL     1       5.718  32.368  59.018  1.00  0.00     0.059 C 
HETATM   23  C   UNL     1       6.010  30.470  56.623  1.00  0.00     0.043 C 
HETATM   24  C   UNL     1       4.770  31.357  56.861  1.00  0.00     0.005 C 
HETATM   25  C   UNL     1       5.107  32.651  57.631  1.00  0.00     0.006 C 
ENDBRANCH   2  16
TORSDOF 4
ENDMDL
MODEL 9
REMARK VINA RESULT:      -8.1      7.790     11.023
REMARK  4 active torsions:
REMARK  status: ('A' for Active; 'I' for Inactive)
REMARK    1  A    between atoms: C_5  and  C_6 
REMARK    2  A    between atoms: N_7  and  N_8 
REMARK       I    between atoms: N_8  and  C_9 
REMARK    3  A    between atoms: C_9  and  C_10 
REMARK    4  A    between atoms: C_21  and  O_22 
ROOT
HETATM    1  N   UNL     1       4.331  25.817  50.373  1.00  0.00    -0.242 N 
HETATM    2  C   UNL     1       4.457  26.802  49.405  1.00  0.00     0.292 C 
HETATM    3  O   UNL     1       5.272  27.721  49.438  1.00  0.00    -0.264 OA
HETATM    4  H   UNL     1       3.612  25.113  50.219  1.00  0.00     0.192 HD
ENDROOT
BRANCH   1   5
HETATM    5  N   UNL     1       5.146  25.797  51.460  1.00  0.00    -0.183 NA
HETATM    6  C   UNL     1       5.074  24.734  52.195  1.00  0.00     0.153 C 
BRANCH   6   7
HETATM    7  C   UNL     1       5.918  24.598  53.400  1.00  0.00     0.017 A 
HETATM    8  C   UNL     1       6.902  23.604  53.405  1.00  0.00     0.034 A 
HETATM    9  C   UNL     1       7.717  23.453  54.528  1.00  0.00     0.012 A 
HETATM   10  C   UNL     1       7.560  24.280  55.641  1.00  0.00     0.022 A 
HETATM   11 BR   UNL     1       9.048  22.111  54.542  1.00  0.00    -0.051 Br
HETATM   12  C   UNL     1       6.577  25.269  55.633  1.00  0.00     0.039 A 
HETATM   13  C   UNL     1       5.759  25.428  54.517  1.00  0.00     0.077 A 
BRANCH  13  14
HETATM   14  O   UNL     1       4.822  26.422  54.591  1.00  0.00    -0.360 OA
HETATM   15  H   UNL     1       5.259  27.280  54.378  1.00  0.00     0.217 HD
ENDBRANCH  13  14
ENDBRANCH   6   7
ENDBRANCH   1   5
BRANCH   2  16
HETATM   16  C   UNL     1       3.492  26.625  48.306  1.00  0.00     0.154 A 
HETATM   17  N   UNL     1       3.582  25.587  47.439  1.00  0.00    -0.169 NA
HETATM   18  N   UNL     1       2.539  25.759  46.602  1.00  0.00    -0.281 N 
HETATM   19  H   UNL     1       2.402  25.089  45.851  1.00  0.00     0.189 HD
HETATM   20  C   UNL     1       1.793  26.856  46.896  1.00  0.00     0.036 A 
HETATM   21  C   UNL     1       2.381  27.448  47.989  1.00  0.00     0.002 A 
HETATM   22  C   UNL     1       0.597  27.339  46.166  1.00  0.00     0.059 C 
HETATM   23  C   UNL     1       1.846  28.681  48.627  1.00  0.00     0.043 C 
HETATM   24  C   UNL     1       0.831  29.381  47.699  1.00  0.00     0.005 C 
HETATM   25  C   UNL     1      -0.138  28.387  47.027  1.00  0.00     0.006 C 
ENDBRANCH   2  16
TORSDOF 4
ENDMDL
MODEL 10
REMARK VINA RESULT:      -7.9      1.902      2.652
REMARK  4 active torsions:
REMARK  status: ('A' for Active; 'I' for Inactive)
REMARK    1  A    between atoms: C_5  and  C_6 
REMARK    2  A    between atoms: N_7  and  N_8 
REMARK       I    between atoms: N_8  and  C_9 
REMARK    3  A    between atoms: C_9  and  C_10 
REMARK    4  A    between atoms: C_21  and  O_22 
ROOT
HETATM    1  N   UNL     1       7.752  29.317  58.793  1.00  0.00    -0.242 N 
HETATM    2  C   UNL     1       8.632  30.334  59.127  1.00  0.00     0.292 C 
HETATM    3  O   UNL     1       9.423  30.862  58.349  1.00  0.00    -0.264 OA
HETATM    4  H   UNL     1       7.150  28.969  59.537  1.00  0.00     0.192 HD
ENDROOT
BRANCH   1   5
HETATM    5  N   UNL     1       7.696  28.827  57.526  1.00  0.00    -0.183 NA
HETATM    6  C   UNL     1       7.669  27.537  57.424  1.00  0.00     0.153 C 
BRANCH   6   7
HETATM    7  C   UNL     1       7.602  26.892  56.098  1.00  0.00     0.017 A 
HETATM    8  C   UNL     1       7.633  25.494  56.043  1.00  0.00     0.034 A 
HETATM    9  C   UNL     1       7.568  24.856  54.803  1.00  0.00     0.012 A 
HETATM   10  C   UNL     1       7.473  25.594  53.623  1.00  0.00     0.022 A 
HETATM   11 BR   UNL     1       7.611  22.967  54.723  1.00  0.00    -0.051 Br
HETATM   12  C   UNL     1       7.442  26.987  53.681  1.00  0.00     0.039 A 
HETATM   13  C   UNL     1       7.507  27.634  54.913  1.00  0.00     0.077 A 
BRANCH  13  14
HETATM   14  O   UNL     1       7.470  29.001  54.881  1.00  0.00    -0.360 OA
HETATM   15  H   UNL     1       8.389  29.336  54.761  1.00  0.00     0.217 HD
ENDBRANCH  13  14
ENDBRANCH   6   7
ENDBRANCH   1   5
BRANCH   2  16
HETATM   16  C   UNL     1       8.515  30.727  60.542  1.00  0.00     0.154 A 
HETATM   17  N   UNL     1       9.245  30.123  61.512  1.00  0.00    -0.169 NA
HETATM   18  N   UNL     1       8.875  30.750  62.647  1.00  0.00    -0.281 N 
HETATM   19  H   UNL     1       9.297  30.457  63.523  1.00  0.00     0.189 HD
HETATM   20  C   UNL     1       7.946  31.720  62.443  1.00  0.00     0.036 A 
HETATM   21  C   UNL     1       7.681  31.732  61.094  1.00  0.00     0.002 A 
HETATM   22  C   UNL     1       7.318  32.579  63.476  1.00  0.00     0.059 C 
HETATM   23  C   UNL     1       6.716  32.676  60.467  1.00  0.00     0.043 C 
HETATM   24  C   UNL     1       5.815  33.327  61.538  1.00  0.00     0.005 C 
HETATM   25  C   UNL     1       6.604  33.762  62.790  1.00  0.00     0.006 C 
ENDBRANCH   2  16
TORSDOF 4
ENDMDL
