MODEL 1
REMARK VINA RESULT:      -9.0      0.000      0.000
REMARK  7 active torsions:
REMARK  status: ('A' for Active; 'I' for Inactive)
REMARK    1  A    between atoms: C_3  and  N_4 
REMARK       I    between atoms: N_4  and  C_5 
REMARK    2  A    between atoms: C_5  and  C_6 
REMARK    3  A    between atoms: C_7  and  C_8 
REMARK    4  A    between atoms: C_19  and  C_20 
REMARK    5  A    between atoms: C_20  and  C_21 
REMARK    6  A    between atoms: C_21  and  C_22 
REMARK    7  A    between atoms: C_22  and  O_23 
ROOT
HETATM    1  C   UNL     1       6.106  26.499  53.172  1.00  0.00     0.062 A 
HETATM    2  C   UNL     1       6.369  27.905  53.695  1.00  0.00     0.202 A 
HETATM    3  N   UNL     1       5.145  28.717  53.686  1.00  0.00    -0.083 N 
HETATM    4  C   UNL     1       3.945  28.285  53.191  1.00  0.00     0.726 A 
HETATM    5  N   UNL     1       3.844  27.038  52.695  1.00  0.00    -0.192 N 
HETATM    6  N   UNL     1       5.086  30.018  54.044  1.00  0.00    -0.140 NA
HETATM    7  C   UNL     1       3.786  30.276  53.836  1.00  0.00     0.166 A 
HETATM    8  N   UNL     1       3.059  29.241  53.296  1.00  0.00    -0.046 NA
HETATM    9  C   UNL     1       4.891  26.124  52.705  1.00  0.00     0.037 A 
HETATM   10  C   UNL     1       4.566  24.750  52.172  1.00  0.00     0.070 C 
HETATM   11  H   UNL     1       2.937  26.714  52.370  1.00  0.00     0.184 HD
ENDROOT
BRANCH   1  12
HETATM   12  C   UNL     1       7.193  25.495  53.322  1.00  0.00     0.256 C 
HETATM   13  N   UNL     1       6.811  24.383  54.040  1.00  0.00    -0.323 N 
HETATM   14  H   UNL     1       5.890  24.394  54.453  1.00  0.00     0.169 HD
HETATM   15  O   UNL     1       8.289  25.734  52.832  1.00  0.00    -0.267 OA
BRANCH  13  16
HETATM   16  C   UNL     1       7.589  23.227  54.304  1.00  0.00     0.041 A 
HETATM   17  C   UNL     1       8.050  22.997  55.620  1.00  0.00    -0.035 A 
HETATM   18  C   UNL     1       7.741  23.926  56.764  1.00  0.00     0.050 C 
HETATM   19  C   UNL     1       8.808  21.842  55.896  1.00  0.00     0.009 A 
HETATM   20  C   UNL     1       9.117  20.931  54.889  1.00  0.00     0.001 A 
HETATM   21  C   UNL     1       8.666  21.157  53.597  1.00  0.00     0.002 A 
HETATM   22  C   UNL     1       7.906  22.293  53.308  1.00  0.00     0.030 A 
ENDBRANCH  13  16
ENDBRANCH   1  12
BRANCH   2  23
HETATM   23  C   UNL     1       7.028  27.940  55.070  1.00  0.00    -0.027 A 
HETATM   24  C   UNL     1       8.251  28.613  55.239  1.00  0.00     0.028 A 
HETATM   25  C   UNL     1       8.876  28.634  56.486  1.00  0.00     0.011 A 
HETATM   26 BR   UNL     1      10.525  29.537  56.688  1.00  0.00    -0.051 Br
HETATM   27  C   UNL     1       8.299  27.994  57.578  1.00  0.00     0.019 A 
HETATM   28  C   UNL     1       7.083  27.330  57.425  1.00  0.00     0.002 A 
HETATM   29  C   UNL     1       6.448  27.304  56.181  1.00  0.00     0.010 A 
ENDBRANCH   2  23
BRANCH   7  30
HETATM   30  C   UNL     1       3.165  31.588  54.144  1.00  0.00     0.085 C 
BRANCH  30  31
HETATM   31  C   UNL     1       2.392  31.601  55.460  1.00  0.00     0.034 C 
BRANCH  31  32
HETATM   32  C   UNL     1       3.276  31.350  56.676  1.00  0.00     0.164 C 
BRANCH  32  33
HETATM   33  O   UNL     1       2.948  30.090  57.251  1.00  0.00    -0.401 OA
HETATM   34  H   UNL     1       3.782  29.624  57.432  1.00  0.00     0.209 HD
ENDBRANCH  32  33
ENDBRANCH  31  32
ENDBRANCH  30  31
ENDBRANCH   7  30
TORSDOF 7
ENDMDL
MODEL 2
REMARK VINA RESULT:      -9.0      4.218      6.052
REMARK  7 active torsions:
REMARK  status: ('A' for Active; 'I' for Inactive)
REMARK    1  A    between atoms: C_3  and  N_4 
REMARK       I    between atoms: N_4  and  C_5 
REMARK    2  A    between atoms: C_5  and  C_6 
REMARK    3  A    between atoms: C_7  and  C_8 
REMARK    4  A    between atoms: C_19  and  C_20 
REMARK    5  A    between atoms: C_20  and  C_21 
REMARK    6  A    between atoms: C_21  and  C_22 
REMARK    7  A    between atoms: C_22  and  O_23 
ROOT
HETATM    1  C   UNL     1       8.517  29.411  57.402  1.00  0.00     0.062 A 
HETATM    2  C   UNL     1       7.333  29.845  58.258  1.00  0.00     0.202 A 
HETATM    3  N   UNL     1       7.698  30.947  59.157  1.00  0.00    -0.083 N 
HETATM    4  C   UNL     1       8.963  31.458  59.266  1.00  0.00     0.726 A 
HETATM    5  N   UNL     1       9.949  30.954  58.501  1.00  0.00    -0.192 N 
HETATM    6  N   UNL     1       6.868  31.500  60.068  1.00  0.00    -0.140 NA
HETATM    7  C   UNL     1       7.677  32.415  60.621  1.00  0.00     0.166 A 
HETATM    8  N   UNL     1       8.975  32.406  60.167  1.00  0.00    -0.046 NA
HETATM    9  C   UNL     1       9.746  29.963  57.548  1.00  0.00     0.037 A 
HETATM   10  C   UNL     1      10.958  29.578  56.735  1.00  0.00     0.070 C 
HETATM   11  H   UNL     1      10.874  31.370  58.560  1.00  0.00     0.184 HD
ENDROOT
BRANCH   1  12
HETATM   12  C   UNL     1       8.251  28.456  56.294  1.00  0.00     0.256 C 
HETATM   13  N   UNL     1       7.915  27.194  56.732  1.00  0.00    -0.323 N 
HETATM   14  H   UNL     1       7.962  27.022  57.725  1.00  0.00     0.169 HD
HETATM   15  O   UNL     1       8.361  28.848  55.139  1.00  0.00    -0.267 OA
BRANCH  13  16
HETATM   16  C   UNL     1       7.544  26.082  55.933  1.00  0.00     0.041 A 
HETATM   17  C   UNL     1       8.075  24.810  56.240  1.00  0.00    -0.035 A 
HETATM   18  C   UNL     1       9.015  24.578  57.393  1.00  0.00     0.050 C 
HETATM   19  C   UNL     1       7.698  23.697  55.464  1.00  0.00     0.009 A 
HETATM   20  C   UNL     1       6.819  23.835  54.393  1.00  0.00     0.001 A 
HETATM   21  C   UNL     1       6.298  25.085  54.089  1.00  0.00     0.002 A 
HETATM   22  C   UNL     1       6.655  26.197  54.854  1.00  0.00     0.030 A 
ENDBRANCH  13  16
ENDBRANCH   1  12
BRANCH   2  23
HETATM   23  C   UNL     1       6.086  30.196  57.455  1.00  0.00    -0.027 A 
HETATM   24  C   UNL     1       5.992  31.450  56.826  1.00  0.00     0.028 A 
HETATM   25  C   UNL     1       4.846  31.793  56.108  1.00  0.00     0.011 A 
HETATM   26 BR   UNL     1       4.738  33.489  55.278  1.00  0.00    -0.051 Br
HETATM   27  C   UNL     1       3.784  30.901  56.001  1.00  0.00     0.019 A 
HETATM   28  C   UNL     1       3.868  29.652  56.612  1.00  0.00     0.002 A 
HETATM   29  C   UNL     1       5.011  29.297  57.333  1.00  0.00     0.010 A 
ENDBRANCH   2  23
BRANCH   7  30
HETATM   30  C   UNL     1       7.223  33.366  61.667  1.00  0.00     0.085 C 
BRANCH  30  31
HETATM   31  C   UNL     1       7.051  32.723  63.040  1.00  0.00     0.034 C 
BRANCH  31  32
HETATM   32  C   UNL     1       5.603  32.369  63.357  1.00  0.00     0.164 C 
BRANCH  32  33
HETATM   33  O   UNL     1       5.295  31.090  62.812  1.00  0.00    -0.401 OA
HETATM   34  H   UNL     1       5.444  30.430  63.511  1.00  0.00     0.209 HD
ENDBRANCH  32  33
ENDBRANCH  31  32
ENDBRANCH  30  31
ENDBRANCH   7  30
TORSDOF 7
ENDMDL
MODEL 3
REMARK VINA RESULT:      -8.9      7.200     10.009
REMARK  7 active torsions:
REMARK  status: ('A' for Active; 'I' for Inactive)
REMARK    1  A    between atoms: C_3  and  N_4 
REMARK       I    between atoms: N_4  and  C_5 
REMARK    2  A    between atoms: C_5  and  C_6 
REMARK    3  A    between atoms: C_7  and  C_8 
REMARK    4  A    between atoms: C_19  and  C_20 
REMARK    5  A    between atoms: C_20  and  C_21 
REMARK    6  A    between atoms: C_21  and  C_22 
REMARK    7  A    between atoms: C_22  and  O_23 
ROOT
HETATM    1  C   UNL     1       7.158  32.017  61.299  1.00  0.00     0.062 A 
HETATM    2  C   UNL     1       5.764  32.228  61.877  1.00  0.00     0.202 A 
HETATM    3  N   UNL     1       5.827  32.744  63.250  1.00  0.00    -0.083 N 
HETATM    4  C   UNL     1       6.991  32.930  63.945  1.00  0.00     0.726 A 
HETATM    5  N   UNL     1       8.166  32.651  63.353  1.00  0.00    -0.192 N 
HETATM    6  N   UNL     1       4.749  32.975  64.032  1.00  0.00    -0.140 NA
HETATM    7  C   UNL     1       5.343  33.401  65.157  1.00  0.00     0.166 A 
HETATM    8  N   UNL     1       6.718  33.369  65.146  1.00  0.00    -0.046 NA
HETATM    9  C   UNL     1       8.277  32.229  62.033  1.00  0.00     0.037 A 
HETATM   10  C   UNL     1       9.684  32.037  61.522  1.00  0.00     0.070 C 
HETATM   11  H   UNL     1       9.026  32.833  63.863  1.00  0.00     0.184 HD
ENDROOT
BRANCH   1  12
HETATM   12  C   UNL     1       7.261  31.706  59.849  1.00  0.00     0.256 C 
HETATM   13  N   UNL     1       7.509  30.375  59.594  1.00  0.00    -0.323 N 
HETATM   14  H   UNL     1       7.675  29.775  60.389  1.00  0.00     0.169 HD
HETATM   15  O   UNL     1       7.137  32.617  59.040  1.00  0.00    -0.267 OA
BRANCH  13  16
HETATM   16  C   UNL     1       7.599  29.750  58.324  1.00  0.00     0.041 A 
HETATM   17  C   UNL     1       8.838  29.755  57.644  1.00  0.00    -0.035 A 
HETATM   18  C   UNL     1      10.077  30.389  58.217  1.00  0.00     0.050 C 
HETATM   19  C   UNL     1       8.941  29.120  56.391  1.00  0.00     0.009 A 
HETATM   20  C   UNL     1       7.840  28.498  55.809  1.00  0.00     0.001 A 
HETATM   21  C   UNL     1       6.623  28.495  56.476  1.00  0.00     0.002 A 
HETATM   22  C   UNL     1       6.505  29.112  57.723  1.00  0.00     0.030 A 
ENDBRANCH  13  16
ENDBRANCH   1  12
BRANCH   2  23
HETATM   23  C   UNL     1       4.863  33.103  61.014  1.00  0.00    -0.027 A 
HETATM   24  C   UNL     1       4.976  34.503  61.086  1.00  0.00     0.028 A 
HETATM   25  C   UNL     1       4.141  35.317  60.319  1.00  0.00     0.011 A 
HETATM   26 BR   UNL     1       4.304  37.197  60.439  1.00  0.00    -0.051 Br
HETATM   27  C   UNL     1       3.191  34.757  59.472  1.00  0.00     0.019 A 
HETATM   28  C   UNL     1       3.074  33.371  59.385  1.00  0.00     0.002 A 
HETATM   29  C   UNL     1       3.905  32.547  60.147  1.00  0.00     0.010 A 
ENDBRANCH   2  23
BRANCH   7  30
HETATM   30  C   UNL     1       4.583  33.860  66.346  1.00  0.00     0.085 C 
BRANCH  30  31
HETATM   31  C   UNL     1       5.325  34.902  67.178  1.00  0.00     0.034 C 
BRANCH  31  32
HETATM   32  C   UNL     1       5.606  34.440  68.603  1.00  0.00     0.164 C 
BRANCH  32  33
HETATM   33  O   UNL     1       4.850  33.266  68.881  1.00  0.00    -0.401 OA
HETATM   34  H   UNL     1       3.912  33.482  68.743  1.00  0.00     0.209 HD
ENDBRANCH  32  33
ENDBRANCH  31  32
ENDBRANCH  30  31
ENDBRANCH   7  30
TORSDOF 7
ENDMDL
MODEL 4
REMARK VINA RESULT:      -8.7      3.449      6.124
REMARK  7 active torsions:
REMARK  status: ('A' for Active; 'I' for Inactive)
REMARK    1  A    between atoms: C_3  and  N_4 
REMARK       I    between atoms: N_4  and  C_5 
REMARK    2  A    between atoms: C_5  and  C_6 
REMARK    3  A    between atoms: C_7  and  C_8 
REMARK    4  A    between atoms: C_19  and  C_20 
REMARK    5  A    between atoms: C_20  and  C_21 
REMARK    6  A    between atoms: C_21  and  C_22 
REMARK    7  A    between atoms: C_22  and  O_23 
ROOT
HETATM    1  C   UNL     1       5.307  29.242  54.441  1.00  0.00     0.062 A 
HETATM    2  C   UNL     1       6.578  28.676  55.062  1.00  0.00     0.202 A 
HETATM    3  N   UNL     1       6.900  29.347  56.328  1.00  0.00    -0.083 N 
HETATM    4  C   UNL     1       6.190  30.401  56.837  1.00  0.00     0.726 A 
HETATM    5  N   UNL     1       5.117  30.859  56.169  1.00  0.00    -0.192 N 
HETATM    6  N   UNL     1       7.997  29.091  57.074  1.00  0.00    -0.140 NA
HETATM    7  C   UNL     1       7.826  29.964  58.078  1.00  0.00     0.166 A 
HETATM    8  N   UNL     1       6.738  30.796  57.957  1.00  0.00    -0.046 NA
HETATM    9  C   UNL     1       4.640  30.281  54.998  1.00  0.00     0.037 A 
HETATM   10  C   UNL     1       3.379  30.889  54.434  1.00  0.00     0.070 C 
HETATM   11  H   UNL     1       4.573  31.614  56.578  1.00  0.00     0.184 HD
ENDROOT
BRANCH   1  12
HETATM   12  C   UNL     1       4.734  28.522  53.273  1.00  0.00     0.256 C 
HETATM   13  N   UNL     1       5.456  28.705  52.114  1.00  0.00    -0.323 N 
HETATM   14  H   UNL     1       6.229  29.353  52.148  1.00  0.00     0.169 HD
HETATM   15  O   UNL     1       3.709  27.871  53.426  1.00  0.00    -0.267 OA
BRANCH  13  16
HETATM   16  C   UNL     1       5.210  28.108  50.851  1.00  0.00     0.041 A 
HETATM   17  C   UNL     1       5.331  28.898  49.685  1.00  0.00    -0.035 A 
HETATM   18  C   UNL     1       5.723  30.351  49.724  1.00  0.00     0.050 C 
HETATM   19  C   UNL     1       5.107  28.310  48.425  1.00  0.00     0.009 A 
HETATM   20  C   UNL     1       4.758  26.966  48.313  1.00  0.00     0.001 A 
HETATM   21  C   UNL     1       4.638  26.191  49.458  1.00  0.00     0.002 A 
HETATM   22  C   UNL     1       4.865  26.757  50.714  1.00  0.00     0.030 A 
ENDBRANCH  13  16
ENDBRANCH   1  12
BRANCH   2  23
HETATM   23  C   UNL     1       6.556  27.162  55.245  1.00  0.00    -0.027 A 
HETATM   24  C   UNL     1       7.190  26.337  54.300  1.00  0.00     0.028 A 
HETATM   25  C   UNL     1       7.157  24.950  54.443  1.00  0.00     0.011 A 
HETATM   26 BR   UNL     1       8.008  23.858  53.154  1.00  0.00    -0.051 Br
HETATM   27  C   UNL     1       6.503  24.364  55.521  1.00  0.00     0.019 A 
HETATM   28  C   UNL     1       5.878  25.171  56.470  1.00  0.00     0.002 A 
HETATM   29  C   UNL     1       5.905  26.562  56.338  1.00  0.00     0.010 A 
ENDBRANCH   2  23
BRANCH   7  30
HETATM   30  C   UNL     1       8.749  30.051  59.237  1.00  0.00     0.085 C 
BRANCH  30  31
HETATM   31  C   UNL     1       8.181  30.844  60.410  1.00  0.00     0.034 C 
BRANCH  31  32
HETATM   32  C   UNL     1       9.092  30.843  61.631  1.00  0.00     0.164 C 
BRANCH  32  33
HETATM   33  O   UNL     1       9.067  29.558  62.243  1.00  0.00    -0.401 OA
HETATM   34  H   UNL     1       9.197  28.897  61.541  1.00  0.00     0.209 HD
ENDBRANCH  32  33
ENDBRANCH  31  32
ENDBRANCH  30  31
ENDBRANCH   7  30
TORSDOF 7
ENDMDL
MODEL 5
REMARK VINA RESULT:      -8.3      3.017      8.148
REMARK  7 active torsions:
REMARK  status: ('A' for Active; 'I' for Inactive)
REMARK    1  A    between atoms: C_3  and  N_4 
REMARK       I    between atoms: N_4  and  C_5 
REMARK    2  A    between atoms: C_5  and  C_6 
REMARK    3  A    between atoms: C_7  and  C_8 
REMARK    4  A    between atoms: C_19  and  C_20 
REMARK    5  A    between atoms: C_20  and  C_21 
REMARK    6  A    between atoms: C_21  and  C_22 
REMARK    7  A    between atoms: C_22  and  O_23 
ROOT
HETATM    1  C   UNL     1       5.751  29.150  56.966  1.00  0.00     0.062 A 
HETATM    2  C   UNL     1       6.868  28.527  57.794  1.00  0.00     0.202 A 
HETATM    3  N   UNL     1       7.173  27.164  57.341  1.00  0.00    -0.083 N 
HETATM    4  C   UNL     1       6.481  26.512  56.356  1.00  0.00     0.726 A 
HETATM    5  N   UNL     1       5.469  27.141  55.732  1.00  0.00    -0.192 N 
HETATM    6  N   UNL     1       8.080  26.348  57.922  1.00  0.00    -0.140 NA
HETATM    7  C   UNL     1       7.953  25.250  57.161  1.00  0.00     0.166 A 
HETATM    8  N   UNL     1       6.969  25.308  56.203  1.00  0.00    -0.046 NA
HETATM    9  C   UNL     1       5.110  28.458  55.993  1.00  0.00     0.037 A 
HETATM   10  C   UNL     1       3.996  29.015  55.141  1.00  0.00     0.070 C 
HETATM   11  H   UNL     1       4.991  26.663  54.973  1.00  0.00     0.184 HD
ENDROOT
BRANCH   1  12
HETATM   12  C   UNL     1       5.479  30.599  57.159  1.00  0.00     0.256 C 
HETATM   13  N   UNL     1       4.816  30.875  58.335  1.00  0.00    -0.323 N 
HETATM   14  H   UNL     1       4.514  30.089  58.891  1.00  0.00     0.169 HD
HETATM   15  O   UNL     1       5.836  31.387  56.294  1.00  0.00    -0.267 OA
BRANCH  13  16
HETATM   16  C   UNL     1       4.467  32.154  58.840  1.00  0.00     0.041 A 
HETATM   17  C   UNL     1       5.111  32.631  60.003  1.00  0.00    -0.035 A 
HETATM   18  C   UNL     1       6.167  31.841  60.730  1.00  0.00     0.050 C 
HETATM   19  C   UNL     1       4.785  33.907  60.501  1.00  0.00     0.009 A 
HETATM   20  C   UNL     1       3.830  34.700  59.869  1.00  0.00     0.001 A 
HETATM   21  C   UNL     1       3.196  34.232  58.727  1.00  0.00     0.002 A 
HETATM   22  C   UNL     1       3.514  32.972  58.216  1.00  0.00     0.030 A 
ENDBRANCH  13  16
ENDBRANCH   1  12
BRANCH   2  23
HETATM   23  C   UNL     1       8.137  29.370  57.854  1.00  0.00    -0.027 A 
HETATM   24  C   UNL     1       8.420  30.122  59.008  1.00  0.00     0.028 A 
HETATM   25  C   UNL     1       9.566  30.915  59.068  1.00  0.00     0.011 A 
HETATM   26 BR   UNL     1       9.920  31.926  60.627  1.00  0.00    -0.051 Br
HETATM   27  C   UNL     1      10.444  30.973  57.992  1.00  0.00     0.019 A 
HETATM   28  C   UNL     1      10.180  30.226  56.845  1.00  0.00     0.002 A 
HETATM   29  C   UNL     1       9.037  29.426  56.775  1.00  0.00     0.010 A 
ENDBRANCH   2  23
BRANCH   7  30
HETATM   30  C   UNL     1       8.795  24.042  57.343  1.00  0.00     0.085 C 
BRANCH  30  31
HETATM   31  C   UNL     1       8.277  22.821  56.588  1.00  0.00     0.034 C 
BRANCH  31  32
HETATM   32  C   UNL     1       9.033  22.554  55.291  1.00  0.00     0.164 C 
BRANCH  32  33
HETATM   33  O   UNL     1       8.500  23.371  54.253  1.00  0.00    -0.401 OA
HETATM   34  H   UNL     1       9.236  23.616  53.667  1.00  0.00     0.209 HD
ENDBRANCH  32  33
ENDBRANCH  31  32
ENDBRANCH  30  31
ENDBRANCH   7  30
TORSDOF 7
ENDMDL
MODEL 6
REMARK VINA RESULT:      -8.3      2.047      7.414
REMARK  7 active torsions:
REMARK  status: ('A' for Active; 'I' for Inactive)
REMARK    1  A    between atoms: C_3  and  N_4 
REMARK       I    between atoms: N_4  and  C_5 
REMARK    2  A    between atoms: C_5  and  C_6 
REMARK    3  A    between atoms: C_7  and  C_8 
REMARK    4  A    between atoms: C_19  and  C_20 
REMARK    5  A    between atoms: C_20  and  C_21 
REMARK    6  A    between atoms: C_21  and  C_22 
REMARK    7  A    between atoms: C_22  and  O_23 
ROOT
HETATM    1  C   UNL     1       5.077  27.087  52.650  1.00  0.00     0.062 A 
HETATM    2  C   UNL     1       5.443  26.302  53.904  1.00  0.00     0.202 A 
HETATM    3  N   UNL     1       6.470  25.291  53.621  1.00  0.00    -0.083 N 
HETATM    4  C   UNL     1       6.968  25.035  52.372  1.00  0.00     0.726 A 
HETATM    5  N   UNL     1       6.524  25.752  51.324  1.00  0.00    -0.192 N 
HETATM    6  N   UNL     1       6.950  24.412  54.528  1.00  0.00    -0.140 NA
HETATM    7  C   UNL     1       7.817  23.721  53.772  1.00  0.00     0.166 A 
HETATM    8  N   UNL     1       7.841  24.064  52.440  1.00  0.00    -0.046 NA
HETATM    9  C   UNL     1       5.613  26.795  51.441  1.00  0.00     0.037 A 
HETATM   10  C   UNL     1       5.291  27.531  50.163  1.00  0.00     0.070 C 
HETATM   11  H   UNL     1       6.932  25.582  50.409  1.00  0.00     0.184 HD
ENDROOT
BRANCH   1  12
HETATM   12  C   UNL     1       4.214  28.287  52.818  1.00  0.00     0.256 C 
HETATM   13  N   UNL     1       4.872  29.469  52.559  1.00  0.00    -0.323 N 
HETATM   14  H   UNL     1       5.862  29.416  52.371  1.00  0.00     0.169 HD
HETATM   15  O   UNL     1       3.052  28.133  53.169  1.00  0.00    -0.267 OA
BRANCH  13  16
HETATM   16  C   UNL     1       4.318  30.775  52.569  1.00  0.00     0.041 A 
HETATM   17  C   UNL     1       4.159  31.444  53.803  1.00  0.00    -0.035 A 
HETATM   18  C   UNL     1       4.565  30.831  55.118  1.00  0.00     0.050 C 
HETATM   19  C   UNL     1       3.628  32.748  53.820  1.00  0.00     0.009 A 
HETATM   20  C   UNL     1       3.248  33.382  52.641  1.00  0.00     0.001 A 
HETATM   21  C   UNL     1       3.402  32.725  51.428  1.00  0.00     0.002 A 
HETATM   22  C   UNL     1       3.935  31.435  51.393  1.00  0.00     0.030 A 
ENDBRANCH  13  16
ENDBRANCH   1  12
BRANCH   2  23
HETATM   23  C   UNL     1       5.860  27.177  55.081  1.00  0.00    -0.027 A 
HETATM   24  C   UNL     1       7.113  27.814  55.066  1.00  0.00     0.028 A 
HETATM   25  C   UNL     1       7.517  28.599  56.147  1.00  0.00     0.011 A 
HETATM   26 BR   UNL     1       9.211  29.439  56.110  1.00  0.00    -0.051 Br
HETATM   27  C   UNL     1       6.687  28.764  57.251  1.00  0.00     0.019 A 
HETATM   28  C   UNL     1       5.439  28.145  57.274  1.00  0.00     0.002 A 
HETATM   29  C   UNL     1       5.024  27.358  56.197  1.00  0.00     0.010 A 
ENDBRANCH   2  23
BRANCH   7  30
HETATM   30  C   UNL     1       8.682  22.645  54.317  1.00  0.00     0.085 C 
BRANCH  30  31
HETATM   31  C   UNL     1       7.951  21.321  54.518  1.00  0.00     0.034 C 
BRANCH  31  32
HETATM   32  C   UNL     1       8.641  20.147  53.833  1.00  0.00     0.164 C 
BRANCH  32  33
HETATM   33  O   UNL     1       8.162  20.028  52.497  1.00  0.00    -0.401 OA
HETATM   34  H   UNL     1       8.226  19.090  52.246  1.00  0.00     0.209 HD
ENDBRANCH  32  33
ENDBRANCH  31  32
ENDBRANCH  30  31
ENDBRANCH   7  30
TORSDOF 7
ENDMDL
MODEL 7
REMARK VINA RESULT:      -8.2      2.477      4.042
REMARK  7 active torsions:
REMARK  status: ('A' for Active; 'I' for Inactive)
REMARK    1  A    between atoms: C_3  and  N_4 
REMARK       I    between atoms: N_4  and  C_5 
REMARK    2  A    between atoms: C_5  and  C_6 
REMARK    3  A    between atoms: C_7  and  C_8 
REMARK    4  A    between atoms: C_19  and  C_20 
REMARK    5  A    between atoms: C_20  and  C_21 
REMARK    6  A    between atoms: C_21  and  C_22 
REMARK    7  A    between atoms: C_22  and  O_23 
ROOT
HETATM    1  C   UNL     1       6.603  27.907  54.691  1.00  0.00     0.062 A 
HETATM    2  C   UNL     1       5.237  28.188  54.077  1.00  0.00     0.202 A 
HETATM    3  N   UNL     1       4.692  29.468  54.546  1.00  0.00    -0.083 N 
HETATM    4  C   UNL     1       5.301  30.262  55.480  1.00  0.00     0.726 A 
HETATM    5  N   UNL     1       6.481  29.883  56.002  1.00  0.00    -0.192 N 
HETATM    6  N   UNL     1       3.475  29.952  54.212  1.00  0.00    -0.140 NA
HETATM    7  C   UNL     1       3.464  31.100  54.906  1.00  0.00     0.166 A 
HETATM    8  N   UNL     1       4.559  31.314  55.709  1.00  0.00    -0.046 NA
HETATM    9  C   UNL     1       7.161  28.738  55.604  1.00  0.00     0.037 A 
HETATM   10  C   UNL     1       8.507  28.517  56.251  1.00  0.00     0.070 C 
HETATM   11  H   UNL     1       6.944  30.501  56.663  1.00  0.00     0.184 HD
ENDROOT
BRANCH   1  12
HETATM   12  C   UNL     1       7.377  26.759  54.150  1.00  0.00     0.256 C 
HETATM   13  N   UNL     1       7.104  25.569  54.788  1.00  0.00    -0.323 N 
HETATM   14  H   UNL     1       6.490  25.605  55.589  1.00  0.00     0.169 HD
HETATM   15  O   UNL     1       8.166  26.959  53.235  1.00  0.00    -0.267 OA
BRANCH  13  16
HETATM   16  C   UNL     1       7.626  24.289  54.470  1.00  0.00     0.041 A 
HETATM   17  C   UNL     1       8.496  23.657  55.387  1.00  0.00    -0.035 A 
HETATM   18  C   UNL     1       8.887  24.281  56.700  1.00  0.00     0.050 C 
HETATM   19  C   UNL     1       9.004  22.378  55.088  1.00  0.00     0.009 A 
HETATM   20  C   UNL     1       8.670  21.733  53.900  1.00  0.00     0.001 A 
HETATM   21  C   UNL     1       7.817  22.355  52.999  1.00  0.00     0.002 A 
HETATM   22  C   UNL     1       7.298  23.619  53.283  1.00  0.00     0.030 A 
ENDBRANCH  13  16
ENDBRANCH   1  12
BRANCH   2  23
HETATM   23  C   UNL     1       5.219  28.121  52.554  1.00  0.00    -0.027 A 
HETATM   24  C   UNL     1       5.504  29.275  51.803  1.00  0.00     0.028 A 
HETATM   25  C   UNL     1       5.468  29.233  50.408  1.00  0.00     0.011 A 
HETATM   26 BR   UNL     1       5.846  30.800  49.418  1.00  0.00    -0.051 Br
HETATM   27  C   UNL     1       5.154  28.053  49.743  1.00  0.00     0.019 A 
HETATM   28  C   UNL     1       4.877  26.901  50.476  1.00  0.00     0.002 A 
HETATM   29  C   UNL     1       4.911  26.930  51.872  1.00  0.00     0.010 A 
ENDBRANCH   2  23
BRANCH   7  30
HETATM   30  C   UNL     1       2.344  32.072  54.837  1.00  0.00     0.085 C 
BRANCH  30  31
HETATM   31  C   UNL     1       2.511  33.114  53.734  1.00  0.00     0.034 C 
BRANCH  31  32
HETATM   32  C   UNL     1       1.632  32.844  52.518  1.00  0.00     0.164 C 
BRANCH  32  33
HETATM   33  O   UNL     1       2.063  31.649  51.875  1.00  0.00    -0.401 OA
HETATM   34  H   UNL     1       1.347  31.360  51.283  1.00  0.00     0.209 HD
ENDBRANCH  32  33
ENDBRANCH  31  32
ENDBRANCH  30  31
ENDBRANCH   7  30
TORSDOF 7
ENDMDL
MODEL 8
REMARK VINA RESULT:      -8.1      1.882      7.261
REMARK  7 active torsions:
REMARK  status: ('A' for Active; 'I' for Inactive)
REMARK    1  A    between atoms: C_3  and  N_4 
REMARK       I    between atoms: N_4  and  C_5 
REMARK    2  A    between atoms: C_5  and  C_6 
REMARK    3  A    between atoms: C_7  and  C_8 
REMARK    4  A    between atoms: C_19  and  C_20 
REMARK    5  A    between atoms: C_20  and  C_21 
REMARK    6  A    between atoms: C_21  and  C_22 
REMARK    7  A    between atoms: C_22  and  O_23 
ROOT
HETATM    1  C   UNL     1       5.656  26.886  53.033  1.00  0.00     0.062 A 
HETATM    2  C   UNL     1       6.185  26.553  54.422  1.00  0.00     0.202 A 
HETATM    3  N   UNL     1       6.702  25.180  54.482  1.00  0.00    -0.083 N 
HETATM    4  C   UNL     1       6.637  24.292  53.443  1.00  0.00     0.726 A 
HETATM    5  N   UNL     1       6.090  24.678  52.276  1.00  0.00    -0.192 N 
HETATM    6  N   UNL     1       7.185  24.591  55.599  1.00  0.00    -0.140 NA
HETATM    7  C   UNL     1       7.491  23.373  55.127  1.00  0.00     0.166 A 
HETATM    8  N   UNL     1       7.151  23.148  53.813  1.00  0.00    -0.046 NA
HETATM    9  C   UNL     1       5.628  25.967  52.038  1.00  0.00     0.037 A 
HETATM   10  C   UNL     1       5.115  26.232  50.643  1.00  0.00     0.070 C 
HETATM   11  H   UNL     1       6.086  24.024  51.498  1.00  0.00     0.184 HD
ENDROOT
BRANCH   1  12
HETATM   12  C   UNL     1       5.300  28.303  52.754  1.00  0.00     0.256 C 
HETATM   13  N   UNL     1       4.143  28.707  53.384  1.00  0.00    -0.323 N 
HETATM   14  H   UNL     1       3.622  28.005  53.887  1.00  0.00     0.169 HD
HETATM   15  O   UNL     1       6.021  28.957  52.013  1.00  0.00    -0.267 OA
BRANCH  13  16
HETATM   16  C   UNL     1       3.572  30.005  53.372  1.00  0.00     0.041 A 
HETATM   17  C   UNL     1       3.387  30.684  54.598  1.00  0.00    -0.035 A 
HETATM   18  C   UNL     1       3.781  30.090  55.924  1.00  0.00     0.050 C 
HETATM   19  C   UNL     1       2.837  31.980  54.594  1.00  0.00     0.009 A 
HETATM   20  C   UNL     1       2.466  32.598  53.403  1.00  0.00     0.001 A 
HETATM   21  C   UNL     1       2.646  31.932  52.199  1.00  0.00     0.002 A 
HETATM   22  C   UNL     1       3.197  30.649  52.185  1.00  0.00     0.030 A 
ENDBRANCH  13  16
ENDBRANCH   1  12
BRANCH   2  23
HETATM   23  C   UNL     1       7.223  27.542  54.942  1.00  0.00    -0.027 A 
HETATM   24  C   UNL     1       7.075  28.094  56.226  1.00  0.00     0.028 A 
HETATM   25  C   UNL     1       8.005  29.018  56.706  1.00  0.00     0.011 A 
HETATM   26 BR   UNL     1       7.781  29.756  58.433  1.00  0.00    -0.051 Br
HETATM   27  C   UNL     1       9.089  29.403  55.924  1.00  0.00     0.019 A 
HETATM   28  C   UNL     1       9.251  28.856  54.652  1.00  0.00     0.002 A 
HETATM   29  C   UNL     1       8.327  27.929  54.163  1.00  0.00     0.010 A 
ENDBRANCH   2  23
BRANCH   7  30
HETATM   30  C   UNL     1       8.132  22.324  55.958  1.00  0.00     0.085 C 
BRANCH  30  31
HETATM   31  C   UNL     1       7.632  20.915  55.652  1.00  0.00     0.034 C 
BRANCH  31  32
HETATM   32  C   UNL     1       8.635  20.083  54.863  1.00  0.00     0.164 C 
BRANCH  32  33
HETATM   33  O   UNL     1       8.306  20.127  53.478  1.00  0.00    -0.401 OA
HETATM   34  H   UNL     1       8.758  19.383  53.045  1.00  0.00     0.209 HD
ENDBRANCH  32  33
ENDBRANCH  31  32
ENDBRANCH  30  31
ENDBRANCH   7  30
TORSDOF 7
ENDMDL
MODEL 9
REMARK VINA RESULT:      -8.1      3.253      4.987
REMARK  7 active torsions:
REMARK  status: ('A' for Active; 'I' for Inactive)
REMARK    1  A    between atoms: C_3  and  N_4 
REMARK       I    between atoms: N_4  and  C_5 
REMARK    2  A    between atoms: C_5  and  C_6 
REMARK    3  A    between atoms: C_7  and  C_8 
REMARK    4  A    between atoms: C_19  and  C_20 
REMARK    5  A    between atoms: C_20  and  C_21 
REMARK    6  A    between atoms: C_21  and  C_22 
REMARK    7  A    between atoms: C_22  and  O_23 
ROOT
HETATM    1  C   UNL     1       7.117  28.847  56.640  1.00  0.00     0.062 A 
HETATM    2  C   UNL     1       5.639  29.179  56.809  1.00  0.00     0.202 A 
HETATM    3  N   UNL     1       5.448  30.332  57.697  1.00  0.00    -0.083 N 
HETATM    4  C   UNL     1       6.466  30.971  58.352  1.00  0.00     0.726 A 
HETATM    5  N   UNL     1       7.732  30.552  58.175  1.00  0.00    -0.192 N 
HETATM    6  N   UNL     1       4.244  30.819  58.072  1.00  0.00    -0.140 NA
HETATM    7  C   UNL     1       4.621  31.824  58.877  1.00  0.00     0.166 A 
HETATM    8  N   UNL     1       5.976  31.935  59.086  1.00  0.00    -0.046 NA
HETATM    9  C   UNL     1       8.083  29.524  57.307  1.00  0.00     0.037 A 
HETATM   10  C   UNL     1       9.561  29.245  57.186  1.00  0.00     0.070 C 
HETATM   11  H   UNL     1       8.483  31.060  58.632  1.00  0.00     0.184 HD
ENDROOT
BRANCH   1  12
HETATM   12  C   UNL     1       7.483  27.846  55.603  1.00  0.00     0.256 C 
HETATM   13  N   UNL     1       7.196  26.550  55.974  1.00  0.00    -0.323 N 
HETATM   14  H   UNL     1       6.855  26.403  56.913  1.00  0.00     0.169 HD
HETATM   15  O   UNL     1       7.997  28.235  54.563  1.00  0.00    -0.267 OA
BRANCH  13  16
HETATM   16  C   UNL     1       7.364  25.380  55.191  1.00  0.00     0.041 A 
HETATM   17  C   UNL     1       8.196  24.345  55.675  1.00  0.00    -0.035 A 
HETATM   18  C   UNL     1       8.906  24.425  57.000  1.00  0.00     0.050 C 
HETATM   19  C   UNL     1       8.354  23.171  54.913  1.00  0.00     0.009 A 
HETATM   20  C   UNL     1       7.713  23.021  53.686  1.00  0.00     0.001 A 
HETATM   21  C   UNL     1       6.898  24.038  53.209  1.00  0.00     0.002 A 
HETATM   22  C   UNL     1       6.723  25.205  53.956  1.00  0.00     0.030 A 
ENDBRANCH  13  16
ENDBRANCH   1  12
BRANCH   2  23
HETATM   23  C   UNL     1       4.897  29.383  55.493  1.00  0.00    -0.027 A 
HETATM   24  C   UNL     1       4.800  30.673  54.941  1.00  0.00     0.028 A 
HETATM   25  C   UNL     1       4.104  30.879  53.749  1.00  0.00     0.011 A 
HETATM   26 BR   UNL     1       3.979  32.623  53.031  1.00  0.00    -0.051 Br
HETATM   27  C   UNL     1       3.501  29.814  53.090  1.00  0.00     0.019 A 
HETATM   28  C   UNL     1       3.596  28.529  53.622  1.00  0.00     0.002 A 
HETATM   29  C   UNL     1       4.292  28.311  54.813  1.00  0.00     0.010 A 
ENDBRANCH   2  23
BRANCH   7  30
HETATM   30  C   UNL     1       3.653  32.748  59.520  1.00  0.00     0.085 C 
BRANCH  30  31
HETATM   31  C   UNL     1       3.893  32.935  61.015  1.00  0.00     0.034 C 
BRANCH  31  32
HETATM   32  C   UNL     1       2.828  33.791  61.689  1.00  0.00     0.164 C 
BRANCH  32  33
HETATM   33  O   UNL     1       2.467  33.207  62.937  1.00  0.00    -0.401 OA
HETATM   34  H   UNL     1       1.505  33.306  63.039  1.00  0.00     0.209 HD
ENDBRANCH  32  33
ENDBRANCH  31  32
ENDBRANCH  30  31
ENDBRANCH   7  30
TORSDOF 7
ENDMDL
MODEL 10
REMARK VINA RESULT:      -7.9      3.637      8.363
REMARK  7 active torsions:
REMARK  status: ('A' for Active; 'I' for Inactive)
REMARK    1  A    between atoms: C_3  and  N_4 
REMARK       I    between atoms: N_4  and  C_5 
REMARK    2  A    between atoms: C_5  and  C_6 
REMARK    3  A    between atoms: C_7  and  C_8 
REMARK    4  A    between atoms: C_19  and  C_20 
REMARK    5  A    between atoms: C_20  and  C_21 
REMARK    6  A    between atoms: C_21  and  C_22 
REMARK    7  A    between atoms: C_22  and  O_23 
ROOT
HETATM    1  C   UNL     1       5.178  30.350  57.464  1.00  0.00     0.062 A 
HETATM    2  C   UNL     1       6.151  29.243  57.850  1.00  0.00     0.202 A 
HETATM    3  N   UNL     1       5.985  28.062  56.993  1.00  0.00    -0.083 N 
HETATM    4  C   UNL     1       5.021  27.946  56.029  1.00  0.00     0.726 A 
HETATM    5  N   UNL     1       4.173  28.968  55.815  1.00  0.00    -0.192 N 
HETATM    6  N   UNL     1       6.674  26.908  57.137  1.00  0.00    -0.140 NA
HETATM    7  C   UNL     1       6.140  26.173  56.149  1.00  0.00     0.166 A 
HETATM    8  N   UNL     1       5.111  26.771  55.460  1.00  0.00    -0.046 NA
HETATM    9  C   UNL     1       4.252  30.181  56.490  1.00  0.00     0.037 A 
HETATM   10  C   UNL     1       3.259  31.234  56.061  1.00  0.00     0.070 C 
HETATM   11  H   UNL     1       3.489  28.887  55.067  1.00  0.00     0.184 HD
ENDROOT
BRANCH   1  12
HETATM   12  C   UNL     1       5.369  31.683  58.093  1.00  0.00     0.256 C 
HETATM   13  N   UNL     1       5.035  31.707  59.429  1.00  0.00    -0.323 N 
HETATM   14  H   UNL     1       4.628  30.870  59.819  1.00  0.00     0.169 HD
HETATM   15  O   UNL     1       5.774  32.609  57.402  1.00  0.00    -0.267 OA
BRANCH  13  16
HETATM   16  C   UNL     1       5.163  32.801  60.323  1.00  0.00     0.041 A 
HETATM   17  C   UNL     1       4.169  33.806  60.323  1.00  0.00    -0.035 A 
HETATM   18  C   UNL     1       2.968  33.761  59.417  1.00  0.00     0.050 C 
HETATM   19  C   UNL     1       4.278  34.886  61.220  1.00  0.00     0.009 A 
HETATM   20  C   UNL     1       5.354  34.983  62.098  1.00  0.00     0.001 A 
HETATM   21  C   UNL     1       6.331  33.997  62.098  1.00  0.00     0.002 A 
HETATM   22  C   UNL     1       6.234  32.915  61.221  1.00  0.00     0.030 A 
ENDBRANCH  13  16
ENDBRANCH   1  12
BRANCH   2  23
HETATM   23  C   UNL     1       7.610  29.684  57.880  1.00  0.00    -0.027 A 
HETATM   24  C   UNL     1       8.108  30.365  59.005  1.00  0.00     0.028 A 
HETATM   25  C   UNL     1       9.435  30.795  59.036  1.00  0.00     0.011 A 
HETATM   26 BR   UNL     1      10.082  31.716  60.556  1.00  0.00    -0.051 Br
HETATM   27  C   UNL     1      10.283  30.556  57.960  1.00  0.00     0.019 A 
HETATM   28  C   UNL     1       9.803  29.876  56.842  1.00  0.00     0.002 A 
HETATM   29  C   UNL     1       8.477  29.439  56.800  1.00  0.00     0.010 A 
ENDBRANCH   2  23
BRANCH   7  30
HETATM   30  C   UNL     1       6.604  24.802  55.823  1.00  0.00     0.085 C 
BRANCH  30  31
HETATM   31  C   UNL     1       8.115  24.626  55.943  1.00  0.00     0.034 C 
BRANCH  31  32
HETATM   32  C   UNL     1       8.528  23.826  57.172  1.00  0.00     0.164 C 
BRANCH  32  33
HETATM   33  O   UNL     1       8.623  24.695  58.297  1.00  0.00    -0.401 OA
HETATM   34  H   UNL     1       7.924  24.440  58.923  1.00  0.00     0.209 HD
ENDBRANCH  32  33
ENDBRANCH  31  32
ENDBRANCH  30  31
ENDBRANCH   7  30
TORSDOF 7
ENDMDL
