MODEL 1
REMARK VINA RESULT:     -10.7      0.000      0.000
REMARK  4 active torsions:
REMARK  status: ('A' for Active; 'I' for Inactive)
REMARK    1  A    between atoms: N_4  and  C_5 
REMARK    2  A    between atoms: C_16  and  N_17 
REMARK       I    between atoms: N_17  and  C_18 
REMARK    3  A    between atoms: C_18  and  C_19 
REMARK       I    between atoms: C_19  and  N_20 
REMARK    4  A    between atoms: N_20  and  C_21 
ROOT
HETATM    1  N   UNL     1       6.356  29.681  55.237  1.00  0.00    -0.303 N 
HETATM    2  C   UNL     1       4.975  29.717  55.185  1.00  0.00     0.315 C 
HETATM    3  O   UNL     1       4.189  29.697  56.126  1.00  0.00    -0.262 OA
HETATM    4  H   UNL     1       6.845  30.061  54.430  1.00  0.00     0.171 HD
ENDROOT
BRANCH   1   5
HETATM    5  C   UNL     1       7.023  29.462  56.427  1.00  0.00     0.152 C 
HETATM    6  N   UNL     1       7.381  28.224  56.961  1.00  0.00    -0.045 N 
HETATM    7  N   UNL     1       7.830  28.359  58.255  1.00  0.00    -0.156 NA
HETATM    8  C   UNL     1       7.972  29.679  58.419  1.00  0.00     0.055 C 
HETATM    9  C   UNL     1       8.509  30.224  59.691  1.00  0.00     0.072 C 
HETATM   10  C   UNL     1       7.532  30.405  57.291  1.00  0.00     0.079 C 
BRANCH   6  11
HETATM   11  C   UNL     1       7.527  26.970  56.326  1.00  0.00     0.732 A 
HETATM   12  N   UNL     1       7.338  26.761  55.061  1.00  0.00    -0.067 NA
HETATM   13  C   UNL     1       7.559  25.481  54.607  1.00  0.00     0.065 A 
HETATM   14  C   UNL     1       8.005  24.471  55.377  1.00  0.00     0.036 A 
HETATM   15  C   UNL     1       7.277  25.273  53.136  1.00  0.00     0.060 C 
HETATM   16  C   UNL     1       8.249  23.074  54.889  1.00  0.00     0.046 C 
HETATM   17  C   UNL     1       8.268  24.757  56.809  1.00  0.00     0.268 A 
HETATM   18  C   UNL     1       7.636  22.810  53.513  1.00  0.00     0.005 C 
HETATM   19  C   UNL     1       7.875  23.983  52.570  1.00  0.00     0.006 C 
HETATM   20  O   UNL     1       8.739  23.917  57.568  1.00  0.00    -0.267 OA
HETATM   21  N   UNL     1       7.961  26.019  57.209  1.00  0.00    -0.152 N 
HETATM   22  H   UNL     1       8.147  26.292  58.168  1.00  0.00     0.188 HD
ENDBRANCH   6  11
ENDBRANCH   1   5
BRANCH   2  23
HETATM   23  C   UNL     1       4.432  29.885  53.752  1.00  0.00     0.310 C 
HETATM   24  N   UNL     1       4.307  28.691  53.079  1.00  0.00    -0.348 N 
HETATM   25  H   UNL     1       4.654  27.887  53.600  1.00  0.00     0.163 HD
HETATM   26  O   UNL     1       4.179  31.002  53.329  1.00  0.00    -0.262 OA
BRANCH  24  27
HETATM   27  C   UNL     1       4.125  28.571  51.634  1.00  0.00     0.084 C 
HETATM   28  C   UNL     1       4.651  27.179  51.200  1.00  0.00     0.025 C 
HETATM   29  C   UNL     1       4.889  27.045  49.689  1.00  0.00     0.002 C 
HETATM   30  C   UNL     1       3.901  26.088  49.010  1.00  0.00     0.000 C 
HETATM   31  C   UNL     1       3.814  26.294  47.489  1.00  0.00     0.000 C 
HETATM   32  C   UNL     1       2.529  27.022  47.062  1.00  0.00     0.000 C 
HETATM   33  C   UNL     1       2.471  28.478  47.529  1.00  0.00     0.000 C 
HETATM   34  C   UNL     1       1.037  28.953  47.758  1.00  0.00     0.000 C 
HETATM   35  C   UNL     1       0.955  30.338  48.409  1.00  0.00     0.000 C 
HETATM   36  C   UNL     1       1.033  30.346  49.945  1.00  0.00     0.000 C 
HETATM   37  C   UNL     1       2.441  30.175  50.536  1.00  0.00     0.002 C 
HETATM   38  C   UNL     1       2.653  28.807  51.210  1.00  0.00     0.025 C 
ENDBRANCH  24  27
ENDBRANCH   2  23
TORSDOF 4
ENDMDL
MODEL 2
REMARK VINA RESULT:     -10.6      4.145      8.076
REMARK  4 active torsions:
REMARK  status: ('A' for Active; 'I' for Inactive)
REMARK    1  A    between atoms: N_4  and  C_5 
REMARK    2  A    between atoms: C_16  and  N_17 
REMARK       I    between atoms: N_17  and  C_18 
REMARK    3  A    between atoms: C_18  and  C_19 
REMARK       I    between atoms: C_19  and  N_20 
REMARK    4  A    between atoms: N_20  and  C_21 
ROOT
HETATM    1  N   UNL     1       4.380  32.071  56.757  1.00  0.00    -0.303 N 
HETATM    2  C   UNL     1       3.792  30.819  56.755  1.00  0.00     0.315 C 
HETATM    3  O   UNL     1       2.727  30.491  57.267  1.00  0.00    -0.262 OA
HETATM    4  H   UNL     1       5.045  32.254  56.010  1.00  0.00     0.171 HD
ENDROOT
BRANCH   1   5
HETATM    5  C   UNL     1       3.856  33.107  57.506  1.00  0.00     0.152 C 
HETATM    6  N   UNL     1       4.056  33.328  58.869  1.00  0.00    -0.045 N 
HETATM    7  N   UNL     1       3.215  34.312  59.335  1.00  0.00    -0.156 NA
HETATM    8  C   UNL     1       2.687  34.847  58.228  1.00  0.00     0.055 C 
HETATM    9  C   UNL     1       1.762  36.004  58.322  1.00  0.00     0.072 C 
HETATM   10  C   UNL     1       3.095  34.165  57.062  1.00  0.00     0.079 C 
BRANCH   6  11
HETATM   11  C   UNL     1       5.076  32.854  59.725  1.00  0.00     0.732 A 
HETATM   12  N   UNL     1       6.323  32.743  59.389  1.00  0.00    -0.067 NA
HETATM   13  C   UNL     1       7.186  32.295  60.362  1.00  0.00     0.065 A 
HETATM   14  C   UNL     1       6.824  32.027  61.630  1.00  0.00     0.036 A 
HETATM   15  C   UNL     1       8.621  32.133  59.911  1.00  0.00     0.060 C 
HETATM   16  C   UNL     1       7.760  31.540  62.696  1.00  0.00     0.046 C 
HETATM   17  C   UNL     1       5.401  32.220  61.999  1.00  0.00     0.268 A 
HETATM   18  C   UNL     1       9.100  31.059  62.136  1.00  0.00     0.005 C 
HETATM   19  C   UNL     1       9.619  32.008  61.063  1.00  0.00     0.006 C 
HETATM   20  O   UNL     1       4.995  32.066  63.146  1.00  0.00    -0.267 OA
HETATM   21  N   UNL     1       4.588  32.593  60.976  1.00  0.00    -0.152 N 
HETATM   22  H   UNL     1       3.607  32.775  61.164  1.00  0.00     0.188 HD
ENDBRANCH   6  11
ENDBRANCH   1   5
BRANCH   2  23
HETATM   23  C   UNL     1       4.581  29.787  55.926  1.00  0.00     0.310 C 
HETATM   24  N   UNL     1       4.980  28.695  56.661  1.00  0.00    -0.348 N 
HETATM   25  H   UNL     1       4.757  28.763  57.653  1.00  0.00     0.163 HD
HETATM   26  O   UNL     1       4.800  30.002  54.743  1.00  0.00    -0.262 OA
BRANCH  24  27
HETATM   27  C   UNL     1       5.993  27.732  56.231  1.00  0.00     0.084 C 
HETATM   28  C   UNL     1       6.847  27.351  57.467  1.00  0.00     0.025 C 
HETATM   29  C   UNL     1       8.174  26.661  57.120  1.00  0.00     0.002 C 
HETATM   30  C   UNL     1       8.207  25.185  57.537  1.00  0.00     0.000 C 
HETATM   31  C   UNL     1       9.292  24.378  56.805  1.00  0.00     0.000 C 
HETATM   32  C   UNL     1       8.714  23.471  55.707  1.00  0.00     0.000 C 
HETATM   33  C   UNL     1       8.120  24.244  54.528  1.00  0.00     0.000 C 
HETATM   34  C   UNL     1       6.981  23.480  53.855  1.00  0.00     0.000 C 
HETATM   35  C   UNL     1       6.240  24.307  52.799  1.00  0.00     0.000 C 
HETATM   36  C   UNL     1       5.108  25.199  53.339  1.00  0.00     0.000 C 
HETATM   37  C   UNL     1       5.560  26.503  54.014  1.00  0.00     0.002 C 
HETATM   38  C   UNL     1       5.364  26.495  55.540  1.00  0.00     0.025 C 
ENDBRANCH  24  27
ENDBRANCH   2  23
TORSDOF 4
ENDMDL
MODEL 3
REMARK VINA RESULT:     -10.6      4.330      8.289
REMARK  4 active torsions:
REMARK  status: ('A' for Active; 'I' for Inactive)
REMARK    1  A    between atoms: N_4  and  C_5 
REMARK    2  A    between atoms: C_16  and  N_17 
REMARK       I    between atoms: N_17  and  C_18 
REMARK    3  A    between atoms: C_18  and  C_19 
REMARK       I    between atoms: C_19  and  N_20 
REMARK    4  A    between atoms: N_20  and  C_21 
ROOT
HETATM    1  N   UNL     1       7.891  30.279  59.481  1.00  0.00    -0.303 N 
HETATM    2  C   UNL     1       8.889  30.490  58.548  1.00  0.00     0.315 C 
HETATM    3  O   UNL     1       9.742  31.371  58.549  1.00  0.00    -0.262 OA
HETATM    4  H   UNL     1       7.517  29.334  59.531  1.00  0.00     0.171 HD
ENDROOT
BRANCH   1   5
HETATM    5  C   UNL     1       7.658  31.185  60.498  1.00  0.00     0.152 C 
HETATM    6  N   UNL     1       6.938  32.375  60.398  1.00  0.00    -0.045 N 
HETATM    7  N   UNL     1       7.089  33.138  61.533  1.00  0.00    -0.156 NA
HETATM    8  C   UNL     1       7.692  32.319  62.403  1.00  0.00     0.055 C 
HETATM    9  C   UNL     1       7.972  32.770  63.789  1.00  0.00     0.072 C 
HETATM   10  C   UNL     1       8.020  31.074  61.822  1.00  0.00     0.079 C 
BRANCH   6  11
HETATM   11  C   UNL     1       5.977  32.776  59.442  1.00  0.00     0.732 A 
HETATM   12  N   UNL     1       5.968  32.393  58.204  1.00  0.00    -0.067 NA
HETATM   13  C   UNL     1       4.937  32.857  57.421  1.00  0.00     0.065 A 
HETATM   14  C   UNL     1       3.928  33.624  57.875  1.00  0.00     0.036 A 
HETATM   15  C   UNL     1       4.996  32.425  55.973  1.00  0.00     0.060 C 
HETATM   16  C   UNL     1       2.799  34.133  57.028  1.00  0.00     0.046 C 
HETATM   17  C   UNL     1       3.935  33.998  59.311  1.00  0.00     0.268 A 
HETATM   18  C   UNL     1       3.065  33.977  55.530  1.00  0.00     0.005 C 
HETATM   19  C   UNL     1       3.680  32.619  55.218  1.00  0.00     0.006 C 
HETATM   20  O   UNL     1       3.023  34.636  59.825  1.00  0.00    -0.267 OA
HETATM   21  N   UNL     1       5.018  33.569  60.011  1.00  0.00    -0.152 N 
HETATM   22  H   UNL     1       5.071  33.761  61.006  1.00  0.00     0.188 HD
ENDBRANCH   6  11
ENDBRANCH   1   5
BRANCH   2  23
HETATM   23  C   UNL     1       8.924  29.407  57.451  1.00  0.00     0.310 C 
HETATM   24  N   UNL     1       7.673  28.958  57.096  1.00  0.00    -0.348 N 
HETATM   25  H   UNL     1       6.920  29.356  57.655  1.00  0.00     0.163 HD
HETATM   26  O   UNL     1       9.999  29.031  57.008  1.00  0.00    -0.262 OA
BRANCH  24  27
HETATM   27  C   UNL     1       7.417  27.739  56.331  1.00  0.00     0.084 C 
HETATM   28  C   UNL     1       7.384  28.114  54.828  1.00  0.00     0.025 C 
HETATM   29  C   UNL     1       6.753  27.040  53.930  1.00  0.00     0.002 C 
HETATM   30  C   UNL     1       7.769  26.362  53.003  1.00  0.00     0.000 C 
HETATM   31  C   UNL     1       7.278  25.011  52.458  1.00  0.00     0.000 C 
HETATM   32  C   UNL     1       7.954  23.814  53.145  1.00  0.00     0.000 C 
HETATM   33  C   UNL     1       7.569  23.660  54.617  1.00  0.00     0.000 C 
HETATM   34  C   UNL     1       8.684  23.016  55.440  1.00  0.00     0.000 C 
HETATM   35  C   UNL     1       8.407  23.025  56.947  1.00  0.00     0.000 C 
HETATM   36  C   UNL     1       8.825  24.310  57.683  1.00  0.00     0.000 C 
HETATM   37  C   UNL     1       7.872  25.504  57.521  1.00  0.00     0.002 C 
HETATM   38  C   UNL     1       8.452  26.628  56.643  1.00  0.00     0.025 C 
ENDBRANCH  24  27
ENDBRANCH   2  23
TORSDOF 4
ENDMDL
MODEL 4
REMARK VINA RESULT:     -10.6      4.114      7.859
REMARK  4 active torsions:
REMARK  status: ('A' for Active; 'I' for Inactive)
REMARK    1  A    between atoms: N_4  and  C_5 
REMARK    2  A    between atoms: C_16  and  N_17 
REMARK       I    between atoms: N_17  and  C_18 
REMARK    3  A    between atoms: C_18  and  C_19 
REMARK       I    between atoms: C_19  and  N_20 
REMARK    4  A    between atoms: N_20  and  C_21 
ROOT
HETATM    1  N   UNL     1       8.302  30.462  59.571  1.00  0.00    -0.303 N 
HETATM    2  C   UNL     1       9.185  30.879  58.592  1.00  0.00     0.315 C 
HETATM    3  O   UNL     1       9.801  31.938  58.540  1.00  0.00    -0.262 OA
HETATM    4  H   UNL     1       8.168  29.457  59.655  1.00  0.00     0.171 HD
ENDROOT
BRANCH   1   5
HETATM    5  C   UNL     1       7.896  31.315  60.580  1.00  0.00     0.152 C 
HETATM    6  N   UNL     1       7.027  32.398  60.449  1.00  0.00    -0.045 N 
HETATM    7  N   UNL     1       7.015  33.159  61.595  1.00  0.00    -0.156 NA
HETATM    8  C   UNL     1       7.677  32.417  62.491  1.00  0.00     0.055 C 
HETATM    9  C   UNL     1       7.820  32.882  63.893  1.00  0.00     0.072 C 
HETATM   10  C   UNL     1       8.200  31.236  61.920  1.00  0.00     0.079 C 
BRANCH   6  11
HETATM   11  C   UNL     1       6.073  32.680  59.445  1.00  0.00     0.732 A 
HETATM   12  N   UNL     1       6.070  32.146  58.264  1.00  0.00    -0.067 NA
HETATM   13  C   UNL     1       5.043  32.512  57.424  1.00  0.00     0.065 A 
HETATM   14  C   UNL     1       4.034  33.330  57.774  1.00  0.00     0.036 A 
HETATM   15  C   UNL     1       5.109  31.903  56.042  1.00  0.00     0.060 C 
HETATM   16  C   UNL     1       2.911  33.732  56.864  1.00  0.00     0.046 C 
HETATM   17  C   UNL     1       4.035  33.879  59.152  1.00  0.00     0.268 A 
HETATM   18  C   UNL     1       3.184  33.392  55.398  1.00  0.00     0.005 C 
HETATM   19  C   UNL     1       3.798  32.004  55.260  1.00  0.00     0.006 C 
HETATM   20  O   UNL     1       3.121  34.578  59.579  1.00  0.00    -0.267 OA
HETATM   21  N   UNL     1       5.112  33.539  59.906  1.00  0.00    -0.152 N 
HETATM   22  H   UNL     1       5.161  33.853  60.870  1.00  0.00     0.188 HD
ENDBRANCH   6  11
ENDBRANCH   1   5
BRANCH   2  23
HETATM   23  C   UNL     1       9.439  29.805  57.516  1.00  0.00     0.310 C 
HETATM   24  N   UNL     1       8.317  29.066  57.216  1.00  0.00    -0.348 N 
HETATM   25  H   UNL     1       7.510  29.291  57.796  1.00  0.00     0.163 HD
HETATM   26  O   UNL     1      10.556  29.679  57.040  1.00  0.00    -0.262 OA
BRANCH  24  27
HETATM   27  C   UNL     1       8.331  27.800  56.485  1.00  0.00     0.084 C 
HETATM   28  C   UNL     1       8.299  26.649  57.522  1.00  0.00     0.025 C 
HETATM   29  C   UNL     1       8.694  25.281  56.948  1.00  0.00     0.002 C 
HETATM   30  C   UNL     1       7.519  24.296  56.885  1.00  0.00     0.000 C 
HETATM   31  C   UNL     1       7.764  23.130  55.914  1.00  0.00     0.000 C 
HETATM   32  C   UNL     1       6.977  23.277  54.602  1.00  0.00     0.000 C 
HETATM   33  C   UNL     1       7.451  24.445  53.735  1.00  0.00     0.000 C 
HETATM   34  C   UNL     1       6.323  25.025  52.884  1.00  0.00     0.000 C 
HETATM   35  C   UNL     1       6.718  26.314  52.154  1.00  0.00     0.000 C 
HETATM   36  C   UNL     1       6.551  27.608  52.970  1.00  0.00     0.000 C 
HETATM   37  C   UNL     1       7.651  27.882  54.006  1.00  0.00     0.002 C 
HETATM   38  C   UNL     1       7.174  27.707  55.459  1.00  0.00     0.025 C 
ENDBRANCH  24  27
ENDBRANCH   2  23
TORSDOF 4
ENDMDL
MODEL 5
REMARK VINA RESULT:     -10.5      2.622      8.385
REMARK  4 active torsions:
REMARK  status: ('A' for Active; 'I' for Inactive)
REMARK    1  A    between atoms: N_4  and  C_5 
REMARK    2  A    between atoms: C_16  and  N_17 
REMARK       I    between atoms: N_17  and  C_18 
REMARK    3  A    between atoms: C_18  and  C_19 
REMARK       I    between atoms: C_19  and  N_20 
REMARK    4  A    between atoms: N_20  and  C_21 
ROOT
HETATM    1  N   UNL     1       5.280  27.293  54.448  1.00  0.00    -0.303 N 
HETATM    2  C   UNL     1       6.273  28.104  54.966  1.00  0.00     0.315 C 
HETATM    3  O   UNL     1       7.236  28.580  54.376  1.00  0.00    -0.262 OA
HETATM    4  H   UNL     1       4.397  27.288  54.952  1.00  0.00     0.171 HD
ENDROOT
BRANCH   1   5
HETATM    5  C   UNL     1       5.362  26.795  53.162  1.00  0.00     0.152 C 
HETATM    6  N   UNL     1       6.092  25.680  52.750  1.00  0.00    -0.045 N 
HETATM    7  N   UNL     1       6.131  25.598  51.377  1.00  0.00    -0.156 NA
HETATM    8  C   UNL     1       5.238  26.507  50.967  1.00  0.00     0.055 C 
HETATM    9  C   UNL     1       4.945  26.672  49.521  1.00  0.00     0.072 C 
HETATM   10  C   UNL     1       4.695  27.241  52.043  1.00  0.00     0.079 C 
BRANCH   6  11
HETATM   11  C   UNL     1       6.585  24.590  53.502  1.00  0.00     0.732 A 
HETATM   12  N   UNL     1       7.015  23.479  52.991  1.00  0.00    -0.067 NA
HETATM   13  C   UNL     1       7.492  22.537  53.874  1.00  0.00     0.065 A 
HETATM   14  C   UNL     1       7.588  22.726  55.203  1.00  0.00     0.036 A 
HETATM   15  C   UNL     1       7.935  21.240  53.237  1.00  0.00     0.060 C 
HETATM   16  C   UNL     1       8.107  21.704  56.171  1.00  0.00     0.046 C 
HETATM   17  C   UNL     1       7.142  24.030  55.751  1.00  0.00     0.268 A 
HETATM   18  C   UNL     1       8.217  20.307  55.558  1.00  0.00     0.005 C 
HETATM   19  C   UNL     1       8.798  20.367  54.151  1.00  0.00     0.006 C 
HETATM   20  O   UNL     1       7.255  24.313  56.939  1.00  0.00    -0.267 OA
HETATM   21  N   UNL     1       6.614  24.887  54.838  1.00  0.00    -0.152 N 
HETATM   22  H   UNL     1       6.320  25.810  55.139  1.00  0.00     0.188 HD
ENDBRANCH   6  11
ENDBRANCH   1   5
BRANCH   2  23
HETATM   23  C   UNL     1       6.031  28.478  56.443  1.00  0.00     0.310 C 
HETATM   24  N   UNL     1       6.522  29.721  56.771  1.00  0.00    -0.348 N 
HETATM   25  H   UNL     1       7.029  30.176  56.014  1.00  0.00     0.163 HD
HETATM   26  O   UNL     1       5.467  27.686  57.182  1.00  0.00    -0.262 OA
BRANCH  24  27
HETATM   27  C   UNL     1       6.718  30.198  58.139  1.00  0.00     0.084 C 
HETATM   28  C   UNL     1       8.235  30.147  58.451  1.00  0.00     0.025 C 
HETATM   29  C   UNL     1       8.569  30.243  59.946  1.00  0.00     0.002 C 
HETATM   30  C   UNL     1       9.265  31.558  60.321  1.00  0.00     0.000 C 
HETATM   31  C   UNL     1       9.183  31.874  61.823  1.00  0.00     0.000 C 
HETATM   32  C   UNL     1       8.164  32.980  62.141  1.00  0.00     0.000 C 
HETATM   33  C   UNL     1       6.715  32.564  61.880  1.00  0.00     0.000 C 
HETATM   34  C   UNL     1       5.834  33.753  61.498  1.00  0.00     0.000 C 
HETATM   35  C   UNL     1       4.429  33.344  61.044  1.00  0.00     0.000 C 
HETATM   36  C   UNL     1       4.302  32.977  59.555  1.00  0.00     0.000 C 
HETATM   37  C   UNL     1       4.810  31.578  59.174  1.00  0.00     0.002 C 
HETATM   38  C   UNL     1       6.114  31.609  58.357  1.00  0.00     0.025 C 
ENDBRANCH  24  27
ENDBRANCH   2  23
TORSDOF 4
ENDMDL
MODEL 6
REMARK VINA RESULT:     -10.5      2.915      8.679
REMARK  4 active torsions:
REMARK  status: ('A' for Active; 'I' for Inactive)
REMARK    1  A    between atoms: N_4  and  C_5 
REMARK    2  A    between atoms: C_16  and  N_17 
REMARK       I    between atoms: N_17  and  C_18 
REMARK    3  A    between atoms: C_18  and  C_19 
REMARK       I    between atoms: C_19  and  N_20 
REMARK    4  A    between atoms: N_20  and  C_21 
ROOT
HETATM    1  N   UNL     1       5.702  30.138  51.194  1.00  0.00    -0.303 N 
HETATM    2  C   UNL     1       4.633  29.731  51.970  1.00  0.00     0.315 C 
HETATM    3  O   UNL     1       3.449  30.016  51.826  1.00  0.00    -0.262 OA
HETATM    4  H   UNL     1       6.528  29.546  51.222  1.00  0.00     0.171 HD
ENDROOT
BRANCH   1   5
HETATM    5  C   UNL     1       5.544  31.083  50.197  1.00  0.00     0.152 C 
HETATM    6  N   UNL     1       5.098  30.849  48.897  1.00  0.00    -0.045 N 
HETATM    7  N   UNL     1       5.271  31.964  48.110  1.00  0.00    -0.156 NA
HETATM    8  C   UNL     1       5.589  32.933  48.976  1.00  0.00     0.055 C 
HETATM    9  C   UNL     1       5.792  34.325  48.504  1.00  0.00     0.072 C 
HETATM   10  C   UNL     1       5.720  32.445  50.295  1.00  0.00     0.079 C 
BRANCH   6  11
HETATM   11  C   UNL     1       4.358  29.765  48.372  1.00  0.00     0.732 A 
HETATM   12  N   UNL     1       4.660  28.517  48.546  1.00  0.00    -0.067 NA
HETATM   13  C   UNL     1       3.806  27.592  47.991  1.00  0.00     0.065 A 
HETATM   14  C   UNL     1       2.669  27.905  47.342  1.00  0.00     0.036 A 
HETATM   15  C   UNL     1       4.226  26.151  48.175  1.00  0.00     0.060 C 
HETATM   16  C   UNL     1       1.733  26.902  46.736  1.00  0.00     0.046 C 
HETATM   17  C   UNL     1       2.320  29.340  47.211  1.00  0.00     0.268 A 
HETATM   18  C   UNL     1       2.346  25.504  46.632  1.00  0.00     0.005 C 
HETATM   19  C   UNL     1       3.109  25.143  47.900  1.00  0.00     0.006 C 
HETATM   20  O   UNL     1       1.272  29.715  46.696  1.00  0.00    -0.267 OA
HETATM   21  N   UNL     1       3.240  30.204  47.716  1.00  0.00    -0.152 N 
HETATM   22  H   UNL     1       3.050  31.200  47.689  1.00  0.00     0.188 HD
ENDBRANCH   6  11
ENDBRANCH   1   5
BRANCH   2  23
HETATM   23  C   UNL     1       5.041  28.739  53.078  1.00  0.00     0.310 C 
HETATM   24  N   UNL     1       5.974  27.818  52.661  1.00  0.00    -0.348 N 
HETATM   25  H   UNL     1       6.202  27.884  51.671  1.00  0.00     0.163 HD
HETATM   26  O   UNL     1       4.527  28.824  54.183  1.00  0.00    -0.262 OA
BRANCH  24  27
HETATM   27  C   UNL     1       6.302  26.588  53.381  1.00  0.00     0.084 C 
HETATM   28  C   UNL     1       6.668  25.505  52.335  1.00  0.00     0.025 C 
HETATM   29  C   UNL     1       6.661  24.074  52.890  1.00  0.00     0.002 C 
HETATM   30  C   UNL     1       8.062  23.454  52.965  1.00  0.00     0.000 C 
HETATM   31  C   UNL     1       8.138  22.252  53.922  1.00  0.00     0.000 C 
HETATM   32  C   UNL     1       8.833  22.595  55.249  1.00  0.00     0.000 C 
HETATM   33  C   UNL     1       8.040  23.573  56.117  1.00  0.00     0.000 C 
HETATM   34  C   UNL     1       8.949  24.433  56.993  1.00  0.00     0.000 C 
HETATM   35  C   UNL     1       8.201  25.551  57.727  1.00  0.00     0.000 C 
HETATM   36  C   UNL     1       8.013  26.851  56.925  1.00  0.00     0.000 C 
HETATM   37  C   UNL     1       6.895  26.822  55.872  1.00  0.00     0.002 C 
HETATM   38  C   UNL     1       7.424  26.807  54.427  1.00  0.00     0.025 C 
ENDBRANCH  24  27
ENDBRANCH   2  23
TORSDOF 4
ENDMDL
MODEL 7
REMARK VINA RESULT:     -10.4      4.087      8.003
REMARK  4 active torsions:
REMARK  status: ('A' for Active; 'I' for Inactive)
REMARK    1  A    between atoms: N_4  and  C_5 
REMARK    2  A    between atoms: C_16  and  N_17 
REMARK       I    between atoms: N_17  and  C_18 
REMARK    3  A    between atoms: C_18  and  C_19 
REMARK       I    between atoms: C_19  and  N_20 
REMARK    4  A    between atoms: N_20  and  C_21 
ROOT
HETATM    1  N   UNL     1       4.872  31.438  56.268  1.00  0.00    -0.303 N 
HETATM    2  C   UNL     1       4.261  30.198  56.285  1.00  0.00     0.315 C 
HETATM    3  O   UNL     1       3.126  29.927  56.661  1.00  0.00    -0.262 OA
HETATM    4  H   UNL     1       5.643  31.548  55.614  1.00  0.00     0.171 HD
ENDROOT
BRANCH   1   5
HETATM    5  C   UNL     1       4.270  32.541  56.842  1.00  0.00     0.152 C 
HETATM    6  N   UNL     1       4.380  32.947  58.172  1.00  0.00    -0.045 N 
HETATM    7  N   UNL     1       3.481  33.949  58.455  1.00  0.00    -0.156 NA
HETATM    8  C   UNL     1       3.004  34.312  57.259  1.00  0.00     0.055 C 
HETATM    9  C   UNL     1       2.037  35.433  57.146  1.00  0.00     0.072 C 
HETATM   10  C   UNL     1       3.504  33.500  56.219  1.00  0.00     0.079 C 
BRANCH   6  11
HETATM   11  C   UNL     1       5.362  32.631  59.138  1.00  0.00     0.732 A 
HETATM   12  N   UNL     1       6.615  32.431  58.874  1.00  0.00    -0.067 NA
HETATM   13  C   UNL     1       7.437  32.167  59.946  1.00  0.00     0.065 A 
HETATM   14  C   UNL     1       7.030  32.162  61.229  1.00  0.00     0.036 A 
HETATM   15  C   UNL     1       8.879  31.891  59.584  1.00  0.00     0.060 C 
HETATM   16  C   UNL     1       7.921  31.875  62.401  1.00  0.00     0.046 C 
HETATM   17  C   UNL     1       5.602  32.452  61.503  1.00  0.00     0.268 A 
HETATM   18  C   UNL     1       9.264  31.268  61.993  1.00  0.00     0.005 C 
HETATM   19  C   UNL     1       9.839  31.975  60.772  1.00  0.00     0.006 C 
HETATM   20  O   UNL     1       5.158  32.535  62.643  1.00  0.00    -0.267 OA
HETATM   21  N   UNL     1       4.830  32.632  60.399  1.00  0.00    -0.152 N 
HETATM   22  H   UNL     1       3.849  32.867  60.514  1.00  0.00     0.188 HD
ENDBRANCH   6  11
ENDBRANCH   1   5
BRANCH   2  23
HETATM   23  C   UNL     1       5.137  29.088  55.671  1.00  0.00     0.310 C 
HETATM   24  N   UNL     1       4.484  27.882  55.561  1.00  0.00    -0.348 N 
HETATM   25  H   UNL     1       3.548  27.884  55.964  1.00  0.00     0.163 HD
HETATM   26  O   UNL     1       6.291  29.336  55.354  1.00  0.00    -0.262 OA
BRANCH  24  27
HETATM   27  C   UNL     1       5.145  26.601  55.318  1.00  0.00     0.084 C 
HETATM   28  C   UNL     1       5.134  26.340  53.790  1.00  0.00     0.025 C 
HETATM   29  C   UNL     1       5.435  24.885  53.404  1.00  0.00     0.002 C 
HETATM   30  C   UNL     1       6.787  24.721  52.698  1.00  0.00     0.000 C 
HETATM   31  C   UNL     1       7.309  23.275  52.727  1.00  0.00     0.000 C 
HETATM   32  C   UNL     1       8.450  23.077  53.738  1.00  0.00     0.000 C 
HETATM   33  C   UNL     1       8.006  23.226  55.194  1.00  0.00     0.000 C 
HETATM   34  C   UNL     1       9.133  23.737  56.090  1.00  0.00     0.000 C 
HETATM   35  C   UNL     1       8.668  24.080  57.510  1.00  0.00     0.000 C 
HETATM   36  C   UNL     1       8.099  25.499  57.689  1.00  0.00     0.000 C 
HETATM   37  C   UNL     1       6.659  25.700  57.191  1.00  0.00     0.002 C 
HETATM   38  C   UNL     1       6.574  26.560  55.917  1.00  0.00     0.025 C 
ENDBRANCH  24  27
ENDBRANCH   2  23
TORSDOF 4
ENDMDL
MODEL 8
REMARK VINA RESULT:     -10.1      2.383      8.524
REMARK  4 active torsions:
REMARK  status: ('A' for Active; 'I' for Inactive)
REMARK    1  A    between atoms: N_4  and  C_5 
REMARK    2  A    between atoms: C_16  and  N_17 
REMARK       I    between atoms: N_17  and  C_18 
REMARK    3  A    between atoms: C_18  and  C_19 
REMARK       I    between atoms: C_19  and  N_20 
REMARK    4  A    between atoms: N_20  and  C_21 
ROOT
HETATM    1  N   UNL     1       5.616  29.284  53.320  1.00  0.00    -0.303 N 
HETATM    2  C   UNL     1       4.812  29.373  54.442  1.00  0.00     0.315 C 
HETATM    3  O   UNL     1       3.955  28.579  54.814  1.00  0.00    -0.262 OA
HETATM    4  H   UNL     1       6.487  29.808  53.351  1.00  0.00     0.171 HD
ENDROOT
BRANCH   1   5
HETATM    5  C   UNL     1       5.419  28.296  52.375  1.00  0.00     0.152 C 
HETATM    6  N   UNL     1       6.014  27.034  52.359  1.00  0.00    -0.045 N 
HETATM    7  N   UNL     1       5.771  26.392  51.167  1.00  0.00    -0.156 NA
HETATM    8  C   UNL     1       4.844  27.148  50.567  1.00  0.00     0.055 C 
HETATM    9  C   UNL     1       4.269  26.738  49.262  1.00  0.00     0.072 C 
HETATM   10  C   UNL     1       4.554  28.318  51.304  1.00  0.00     0.079 C 
BRANCH   6  11
HETATM   11  C   UNL     1       6.613  26.300  53.408  1.00  0.00     0.732 A 
HETATM   12  N   UNL     1       6.921  26.793  54.566  1.00  0.00    -0.067 NA
HETATM   13  C   UNL     1       7.468  25.923  55.481  1.00  0.00     0.065 A 
HETATM   14  C   UNL     1       7.645  24.607  55.263  1.00  0.00     0.036 A 
HETATM   15  C   UNL     1       7.857  26.553  56.800  1.00  0.00     0.060 C 
HETATM   16  C   UNL     1       8.240  23.653  56.255  1.00  0.00     0.046 C 
HETATM   17  C   UNL     1       7.229  24.062  53.947  1.00  0.00     0.268 A 
HETATM   18  C   UNL     1       8.932  24.363  57.420  1.00  0.00     0.005 C 
HETATM   19  C   UNL     1       8.101  25.539  57.919  1.00  0.00     0.006 C 
HETATM   20  O   UNL     1       7.290  22.866  53.686  1.00  0.00    -0.267 OA
HETATM   21  N   UNL     1       6.764  24.984  53.064  1.00  0.00    -0.152 N 
HETATM   22  H   UNL     1       6.432  24.676  52.156  1.00  0.00     0.188 HD
ENDBRANCH   6  11
ENDBRANCH   1   5
BRANCH   2  23
HETATM   23  C   UNL     1       5.143  30.595  55.322  1.00  0.00     0.310 C 
HETATM   24  N   UNL     1       5.867  30.270  56.446  1.00  0.00    -0.348 N 
HETATM   25  H   UNL     1       6.015  29.269  56.564  1.00  0.00     0.163 HD
HETATM   26  O   UNL     1       4.750  31.703  54.989  1.00  0.00    -0.262 OA
BRANCH  24  27
HETATM   27  C   UNL     1       6.045  31.152  57.599  1.00  0.00     0.084 C 
HETATM   28  C   UNL     1       4.645  31.452  58.192  1.00  0.00     0.025 C 
HETATM   29  C   UNL     1       4.618  32.651  59.151  1.00  0.00     0.002 C 
HETATM   30  C   UNL     1       4.359  32.246  60.608  1.00  0.00     0.000 C 
HETATM   31  C   UNL     1       4.784  33.325  61.617  1.00  0.00     0.000 C 
HETATM   32  C   UNL     1       6.092  32.974  62.344  1.00  0.00     0.000 C 
HETATM   33  C   UNL     1       7.317  32.974  61.427  1.00  0.00     0.000 C 
HETATM   34  C   UNL     1       8.389  31.993  61.900  1.00  0.00     0.000 C 
HETATM   35  C   UNL     1       9.539  31.827  60.901  1.00  0.00     0.000 C 
HETATM   36  C   UNL     1       9.302  30.785  59.794  1.00  0.00     0.000 C 
HETATM   37  C   UNL     1       8.394  31.241  58.641  1.00  0.00     0.002 C 
HETATM   38  C   UNL     1       7.018  30.552  58.646  1.00  0.00     0.025 C 
ENDBRANCH  24  27
ENDBRANCH   2  23
TORSDOF 4
ENDMDL
MODEL 9
REMARK VINA RESULT:     -10.0      3.751      9.987
REMARK  4 active torsions:
REMARK  status: ('A' for Active; 'I' for Inactive)
REMARK    1  A    between atoms: N_4  and  C_5 
REMARK    2  A    between atoms: C_16  and  N_17 
REMARK       I    between atoms: N_17  and  C_18 
REMARK    3  A    between atoms: C_18  and  C_19 
REMARK       I    between atoms: C_19  and  N_20 
REMARK    4  A    between atoms: N_20  and  C_21 
ROOT
HETATM    1  N   UNL     1       7.467  28.682  57.984  1.00  0.00    -0.303 N 
HETATM    2  C   UNL     1       8.324  29.706  57.626  1.00  0.00     0.315 C 
HETATM    3  O   UNL     1       9.026  29.779  56.623  1.00  0.00    -0.262 OA
HETATM    4  H   UNL     1       6.717  28.928  58.625  1.00  0.00     0.171 HD
ENDROOT
BRANCH   1   5
HETATM    5  C   UNL     1       7.424  27.501  57.268  1.00  0.00     0.152 C 
HETATM    6  N   UNL     1       6.536  27.189  56.238  1.00  0.00    -0.045 N 
HETATM    7  N   UNL     1       6.626  25.858  55.899  1.00  0.00    -0.156 NA
HETATM    8  C   UNL     1       7.717  25.426  56.542  1.00  0.00     0.055 C 
HETATM    9  C   UNL     1       8.187  24.029  56.369  1.00  0.00     0.072 C 
HETATM   10  C   UNL     1       8.279  26.426  57.366  1.00  0.00     0.079 C 
BRANCH   6  11
HETATM   11  C   UNL     1       5.762  28.041  55.418  1.00  0.00     0.732 A 
HETATM   12  N   UNL     1       5.509  29.284  55.683  1.00  0.00    -0.067 NA
HETATM   13  C   UNL     1       4.765  29.973  54.753  1.00  0.00     0.065 A 
HETATM   14  C   UNL     1       4.345  29.455  53.584  1.00  0.00     0.036 A 
HETATM   15  C   UNL     1       4.452  31.405  55.128  1.00  0.00     0.060 C 
HETATM   16  C   UNL     1       3.534  30.201  52.566  1.00  0.00     0.046 C 
HETATM   17  C   UNL     1       4.701  28.047  53.284  1.00  0.00     0.268 A 
HETATM   18  C   UNL     1       2.946  31.503  53.113  1.00  0.00     0.005 C 
HETATM   19  C   UNL     1       3.969  32.258  53.954  1.00  0.00     0.006 C 
HETATM   20  O   UNL     1       4.418  27.514  52.216  1.00  0.00    -0.267 OA
HETATM   21  N   UNL     1       5.372  27.400  54.273  1.00  0.00    -0.152 N 
HETATM   22  H   UNL     1       5.676  26.444  54.121  1.00  0.00     0.188 HD
ENDBRANCH   6  11
ENDBRANCH   1   5
BRANCH   2  23
HETATM   23  C   UNL     1       8.279  30.896  58.605  1.00  0.00     0.310 C 
HETATM   24  N   UNL     1       7.134  30.924  59.368  1.00  0.00    -0.348 N 
HETATM   25  H   UNL     1       6.461  30.199  59.125  1.00  0.00     0.163 HD
HETATM   26  O   UNL     1       9.202  31.696  58.626  1.00  0.00    -0.262 OA
BRANCH  24  27
HETATM   27  C   UNL     1       6.679  32.082  60.136  1.00  0.00     0.084 C 
HETATM   28  C   UNL     1       5.253  32.446  59.652  1.00  0.00     0.025 C 
HETATM   29  C   UNL     1       4.790  33.849  60.072  1.00  0.00     0.002 C 
HETATM   30  C   UNL     1       3.657  33.820  61.105  1.00  0.00     0.000 C 
HETATM   31  C   UNL     1       3.506  35.146  61.869  1.00  0.00     0.000 C 
HETATM   32  C   UNL     1       4.054  35.069  63.303  1.00  0.00     0.000 C 
HETATM   33  C   UNL     1       5.574  34.900  63.365  1.00  0.00     0.000 C 
HETATM   34  C   UNL     1       6.017  34.137  64.612  1.00  0.00     0.000 C 
HETATM   35  C   UNL     1       7.508  33.783  64.607  1.00  0.00     0.000 C 
HETATM   36  C   UNL     1       7.870  32.478  63.875  1.00  0.00     0.000 C 
HETATM   37  C   UNL     1       7.907  32.569  62.342  1.00  0.00     0.002 C 
HETATM   38  C   UNL     1       6.741  31.829  61.663  1.00  0.00     0.025 C 
ENDBRANCH  24  27
ENDBRANCH   2  23
TORSDOF 4
ENDMDL
MODEL 10
REMARK VINA RESULT:      -9.9      4.006      9.747
REMARK  4 active torsions:
REMARK  status: ('A' for Active; 'I' for Inactive)
REMARK    1  A    between atoms: N_4  and  C_5 
REMARK    2  A    between atoms: C_16  and  N_17 
REMARK       I    between atoms: N_17  and  C_18 
REMARK    3  A    between atoms: C_18  and  C_19 
REMARK       I    between atoms: C_19  and  N_20 
REMARK    4  A    between atoms: N_20  and  C_21 
ROOT
HETATM    1  N   UNL     1       5.448  30.443  56.140  1.00  0.00    -0.303 N 
HETATM    2  C   UNL     1       4.628  30.734  57.215  1.00  0.00     0.315 C 
HETATM    3  O   UNL     1       3.478  30.353  57.406  1.00  0.00    -0.262 OA
HETATM    4  H   UNL     1       6.448  30.527  56.303  1.00  0.00     0.171 HD
ENDROOT
BRANCH   1   5
HETATM    5  C   UNL     1       4.967  29.764  55.036  1.00  0.00     0.152 C 
HETATM    6  N   UNL     1       5.436  28.546  54.543  1.00  0.00    -0.045 N 
HETATM    7  N   UNL     1       4.884  28.269  53.314  1.00  0.00    -0.156 NA
HETATM    8  C   UNL     1       3.915  29.181  53.173  1.00  0.00     0.055 C 
HETATM    9  C   UNL     1       3.037  29.165  51.977  1.00  0.00     0.072 C 
HETATM   10  C   UNL     1       3.893  30.102  54.244  1.00  0.00     0.079 C 
BRANCH   6  11
HETATM   11  C   UNL     1       6.187  27.536  55.186  1.00  0.00     0.732 A 
HETATM   12  N   UNL     1       6.445  26.374  54.674  1.00  0.00    -0.067 NA
HETATM   13  C   UNL     1       7.221  25.525  55.428  1.00  0.00     0.065 A 
HETATM   14  C   UNL     1       7.764  25.850  56.616  1.00  0.00     0.036 A 
HETATM   15  C   UNL     1       7.453  24.164  54.812  1.00  0.00     0.060 C 
HETATM   16  C   UNL     1       8.612  24.931  57.443  1.00  0.00     0.046 C 
HETATM   17  C   UNL     1       7.499  27.209  57.149  1.00  0.00     0.268 A 
HETATM   18  C   UNL     1       8.542  23.476  56.976  1.00  0.00     0.005 C 
HETATM   19  C   UNL     1       8.601  23.383  55.456  1.00  0.00     0.006 C 
HETATM   20  O   UNL     1       8.006  27.614  58.189  1.00  0.00    -0.267 OA
HETATM   21  N   UNL     1       6.666  27.971  56.392  1.00  0.00    -0.152 N 
HETATM   22  H   UNL     1       6.468  28.924  56.681  1.00  0.00     0.188 HD
ENDBRANCH   6  11
ENDBRANCH   1   5
BRANCH   2  23
HETATM   23  C   UNL     1       5.336  31.571  58.299  1.00  0.00     0.310 C 
HETATM   24  N   UNL     1       4.534  31.836  59.385  1.00  0.00    -0.348 N 
HETATM   25  H   UNL     1       3.578  31.501  59.282  1.00  0.00     0.163 HD
HETATM   26  O   UNL     1       6.489  31.935  58.124  1.00  0.00    -0.262 OA
BRANCH  24  27
HETATM   27  C   UNL     1       4.821  32.850  60.398  1.00  0.00     0.084 C 
HETATM   28  C   UNL     1       3.513  33.633  60.675  1.00  0.00     0.025 C 
HETATM   29  C   UNL     1       3.725  34.963  61.413  1.00  0.00     0.002 C 
HETATM   30  C   UNL     1       3.173  34.948  62.845  1.00  0.00     0.000 C 
HETATM   31  C   UNL     1       3.771  36.052  63.731  1.00  0.00     0.000 C 
HETATM   32  C   UNL     1       4.810  35.514  64.728  1.00  0.00     0.000 C 
HETATM   33  C   UNL     1       6.084  34.995  64.059  1.00  0.00     0.000 C 
HETATM   34  C   UNL     1       6.743  33.877  64.865  1.00  0.00     0.000 C 
HETATM   35  C   UNL     1       7.908  33.206  64.129  1.00  0.00     0.000 C 
HETATM   36  C   UNL     1       7.511  32.066  63.175  1.00  0.00     0.000 C 
HETATM   37  C   UNL     1       6.936  32.507  61.821  1.00  0.00     0.002 C 
HETATM   38  C   UNL     1       5.427  32.234  61.685  1.00  0.00     0.025 C 
ENDBRANCH  24  27
ENDBRANCH   2  23
TORSDOF 4
ENDMDL
