MODEL 1
REMARK VINA RESULT:      -9.7      0.000      0.000
REMARK  6 active torsions:
REMARK  status: ('A' for Active; 'I' for Inactive)
REMARK    1  A    between atoms: C_3  and  C_4 
REMARK    2  A    between atoms: C_4  and  N_5 
REMARK    3  A    between atoms: C_4  and  C_9 
REMARK       I    between atoms: N_5  and  C_6 
REMARK       I    between atoms: C_6  and  N_7 
REMARK    4  A    between atoms: C_9  and  C_10 
REMARK       I    between atoms: C_10  and  N_11 
REMARK    5  A    between atoms: N_11  and  N_12 
REMARK       I    between atoms: N_12  and  C_13 
REMARK    6  A    between atoms: C_13  and  C_14 
ROOT
HETATM    1  C   UNL     1       7.342  30.076  58.590  1.00  0.00     0.238 C 
HETATM    2  N   UNL     1       6.623  31.156  59.060  1.00  0.00    -0.267 N 
HETATM    3  O   UNL     1       8.273  29.579  59.223  1.00  0.00    -0.272 OA
HETATM    4  H   UNL     1       5.740  31.456  58.644  1.00  0.00     0.190 HD
ENDROOT
BRANCH   1   5
HETATM    5  C   UNL     1       6.909  29.622  57.214  1.00  0.00     0.134 C 
BRANCH   5   6
HETATM    6  C   UNL     1       8.051  28.907  56.470  1.00  0.00     0.129 C 
BRANCH   6   7
HETATM    7  C   UNL     1       7.809  27.409  56.301  1.00  0.00    -0.013 A 
HETATM    8  C   UNL     1       7.977  26.539  57.397  1.00  0.00     0.011 A 
HETATM    9  C   UNL     1       7.761  25.163  57.277  1.00  0.00     0.001 A 
HETATM   10  C   UNL     1       7.371  24.623  56.059  1.00  0.00     0.002 A 
HETATM   11  C   UNL     1       7.206  25.459  54.957  1.00  0.00     0.024 A 
HETATM   12  C   UNL     1       7.428  26.838  55.071  1.00  0.00     0.042 A 
HETATM   13 CL   UNL     1       7.206  27.775  53.634  1.00  0.00    -0.084 Cl
ENDBRANCH   6   7
BRANCH   6  14
HETATM   14  N   UNL     1       9.389  29.171  57.004  1.00  0.00    -0.339 N 
HETATM   15  C   UNL     1      10.430  29.673  56.289  1.00  0.00     0.292 C 
HETATM   16  N   UNL     1      11.563  29.756  57.031  1.00  0.00    -0.254 NA
HETATM   17  O   UNL     1      10.415  30.009  55.115  1.00  0.00    -0.254 OA
HETATM   18  H   UNL     1      11.444  30.020  57.999  1.00  0.00     0.128 HD
HETATM   19  H   UNL     1      12.318  30.230  56.554  1.00  0.00     0.128 HD
HETATM   20  H   UNL     1       9.675  28.549  57.748  1.00  0.00     0.164 HD
ENDBRANCH   6  14
ENDBRANCH   5   6
ENDBRANCH   1   5
BRANCH   2  21
HETATM   21  N   UNL     1       6.847  31.561  60.377  1.00  0.00    -0.263 N 
HETATM   22  C   UNL     1       5.867  32.286  61.019  1.00  0.00     0.270 C 
HETATM   23  O   UNL     1       4.813  32.605  60.474  1.00  0.00    -0.266 OA
HETATM   24  H   UNL     1       7.769  31.356  60.759  1.00  0.00     0.190 HD
BRANCH  22  25
HETATM   25  C   UNL     1       6.154  32.696  62.420  1.00  0.00     0.036 A 
HETATM   26  C   UNL     1       5.132  33.046  63.314  1.00  0.00     0.057 A 
HETATM   27  C   UNL     1       5.500  33.417  64.591  1.00  0.00     0.106 A 
HETATM   28  C   UNL     1       6.816  33.457  64.991  1.00  0.00     0.105 A 
HETATM   29  O   UNL     1       4.646  33.787  65.582  1.00  0.00    -0.323 OA
HETATM   30  O   UNL     1       6.951  33.851  66.285  1.00  0.00    -0.323 OA
HETATM   31  C   UNL     1       7.843  33.131  64.135  1.00  0.00     0.041 A 
HETATM   32  C   UNL     1       5.573  34.064  66.652  1.00  0.00     0.352 A 
HETATM   33  C   UNL     1       7.506  32.751  62.831  1.00  0.00     0.020 A 
ENDBRANCH  22  25
ENDBRANCH   2  21
TORSDOF 6
ENDMDL
MODEL 2
REMARK VINA RESULT:      -9.6      2.302      3.216
REMARK  6 active torsions:
REMARK  status: ('A' for Active; 'I' for Inactive)
REMARK    1  A    between atoms: C_3  and  C_4 
REMARK    2  A    between atoms: C_4  and  N_5 
REMARK    3  A    between atoms: C_4  and  C_9 
REMARK       I    between atoms: N_5  and  C_6 
REMARK       I    between atoms: C_6  and  N_7 
REMARK    4  A    between atoms: C_9  and  C_10 
REMARK       I    between atoms: C_10  and  N_11 
REMARK    5  A    between atoms: N_11  and  N_12 
REMARK       I    between atoms: N_12  and  C_13 
REMARK    6  A    between atoms: C_13  and  C_14 
ROOT
HETATM    1  C   UNL     1       7.946  28.857  57.531  1.00  0.00     0.238 C 
HETATM    2  N   UNL     1       7.705  30.201  57.732  1.00  0.00    -0.267 N 
HETATM    3  O   UNL     1       7.996  28.050  58.459  1.00  0.00    -0.272 OA
HETATM    4  H   UNL     1       7.474  30.841  56.972  1.00  0.00     0.190 HD
ENDROOT
BRANCH   1   5
HETATM    5  C   UNL     1       8.198  28.504  56.083  1.00  0.00     0.134 C 
BRANCH   5   6
HETATM    6  C   UNL     1       6.952  27.883  55.426  1.00  0.00     0.129 C 
BRANCH   6   7
HETATM    7  C   UNL     1       7.249  26.570  54.705  1.00  0.00    -0.013 A 
HETATM    8  C   UNL     1       7.573  26.575  53.334  1.00  0.00     0.011 A 
HETATM    9  C   UNL     1       7.852  25.391  52.645  1.00  0.00     0.001 A 
HETATM   10  C   UNL     1       7.814  24.173  53.310  1.00  0.00     0.002 A 
HETATM   11  C   UNL     1       7.488  24.138  54.664  1.00  0.00     0.024 A 
HETATM   12  C   UNL     1       7.201  25.322  55.357  1.00  0.00     0.042 A 
HETATM   13 CL   UNL     1       6.795  25.155  57.031  1.00  0.00    -0.084 Cl
ENDBRANCH   6   7
BRANCH   6  14
HETATM   14  N   UNL     1       6.191  28.798  54.572  1.00  0.00    -0.339 N 
HETATM   15  C   UNL     1       5.255  29.678  55.011  1.00  0.00     0.292 C 
HETATM   16  N   UNL     1       4.673  30.353  53.988  1.00  0.00    -0.254 NA
HETATM   17  O   UNL     1       4.921  29.873  56.170  1.00  0.00    -0.254 OA
HETATM   18  H   UNL     1       5.276  30.603  53.217  1.00  0.00     0.128 HD
HETATM   19  H   UNL     1       4.055  31.092  54.298  1.00  0.00     0.128 HD
HETATM   20  H   UNL     1       6.011  28.449  53.640  1.00  0.00     0.164 HD
ENDBRANCH   6  14
ENDBRANCH   5   6
ENDBRANCH   1   5
BRANCH   2  21
HETATM   21  N   UNL     1       7.319  30.605  59.012  1.00  0.00    -0.263 N 
HETATM   22  C   UNL     1       7.973  31.671  59.590  1.00  0.00     0.270 C 
HETATM   23  O   UNL     1       8.892  32.267  59.034  1.00  0.00    -0.266 OA
HETATM   24  H   UNL     1       6.619  30.027  59.474  1.00  0.00     0.190 HD
BRANCH  22  25
HETATM   25  C   UNL     1       7.529  32.062  60.955  1.00  0.00     0.036 A 
HETATM   26  C   UNL     1       6.198  32.408  61.230  1.00  0.00     0.057 A 
HETATM   27  C   UNL     1       5.885  32.762  62.526  1.00  0.00     0.106 A 
HETATM   28  C   UNL     1       6.829  32.787  63.526  1.00  0.00     0.105 A 
HETATM   29  O   UNL     1       4.652  33.126  62.969  1.00  0.00    -0.323 OA
HETATM   30  O   UNL     1       6.306  33.165  64.723  1.00  0.00    -0.323 OA
HETATM   31  C   UNL     1       8.146  32.465  63.288  1.00  0.00     0.041 A 
HETATM   32  C   UNL     1       4.926  33.383  64.362  1.00  0.00     0.352 A 
HETATM   33  C   UNL     1       8.499  32.103  61.983  1.00  0.00     0.020 A 
ENDBRANCH  22  25
ENDBRANCH   2  21
TORSDOF 6
ENDMDL
MODEL 3
REMARK VINA RESULT:      -9.6      3.393      5.484
REMARK  6 active torsions:
REMARK  status: ('A' for Active; 'I' for Inactive)
REMARK    1  A    between atoms: C_3  and  C_4 
REMARK    2  A    between atoms: C_4  and  N_5 
REMARK    3  A    between atoms: C_4  and  C_9 
REMARK       I    between atoms: N_5  and  C_6 
REMARK       I    between atoms: C_6  and  N_7 
REMARK    4  A    between atoms: C_9  and  C_10 
REMARK       I    between atoms: C_10  and  N_11 
REMARK    5  A    between atoms: N_11  and  N_12 
REMARK       I    between atoms: N_12  and  C_13 
REMARK    6  A    between atoms: C_13  and  C_14 
ROOT
HETATM    1  C   UNL     1       8.273  25.778  57.369  1.00  0.00     0.238 C 
HETATM    2  N   UNL     1       8.310  27.080  56.911  1.00  0.00    -0.267 N 
HETATM    3  O   UNL     1       8.011  25.499  58.539  1.00  0.00    -0.272 OA
HETATM    4  H   UNL     1       8.336  27.316  55.919  1.00  0.00     0.190 HD
ENDROOT
BRANCH   1   5
HETATM    5  C   UNL     1       8.642  24.761  56.314  1.00  0.00     0.134 C 
BRANCH   5   6
HETATM    6  C   UNL     1       7.398  24.045  55.757  1.00  0.00     0.129 C 
BRANCH   6   7
HETATM    7  C   UNL     1       7.734  22.750  55.022  1.00  0.00    -0.013 A 
HETATM    8  C   UNL     1       7.655  22.695  53.616  1.00  0.00     0.011 A 
HETATM    9  C   UNL     1       7.957  21.526  52.912  1.00  0.00     0.001 A 
HETATM   10  C   UNL     1       8.345  20.382  53.597  1.00  0.00     0.002 A 
HETATM   11  C   UNL     1       8.423  20.405  54.988  1.00  0.00     0.024 A 
HETATM   12  C   UNL     1       8.115  21.574  55.697  1.00  0.00     0.042 A 
HETATM   13 CL   UNL     1       8.233  21.481  57.421  1.00  0.00    -0.084 Cl
ENDBRANCH   6   7
BRANCH   6  14
HETATM   14  N   UNL     1       6.510  24.894  54.960  1.00  0.00    -0.339 N 
HETATM   15  C   UNL     1       5.393  25.509  55.426  1.00  0.00     0.292 C 
HETATM   16  N   UNL     1       4.737  26.182  54.447  1.00  0.00    -0.254 NA
HETATM   17  O   UNL     1       4.968  25.483  56.571  1.00  0.00    -0.254 OA
HETATM   18  H   UNL     1       5.313  26.643  53.758  1.00  0.00     0.128 HD
HETATM   19  H   UNL     1       3.966  26.739  54.793  1.00  0.00     0.128 HD
HETATM   20  H   UNL     1       6.452  24.640  53.983  1.00  0.00     0.164 HD
ENDBRANCH   6  14
ENDBRANCH   5   6
ENDBRANCH   1   5
BRANCH   2  21
HETATM   21  N   UNL     1       7.846  28.081  57.766  1.00  0.00    -0.263 N 
HETATM   22  C   UNL     1       8.610  29.218  57.922  1.00  0.00     0.270 C 
HETATM   23  O   UNL     1       9.686  29.378  57.353  1.00  0.00    -0.266 OA
HETATM   24  H   UNL     1       6.998  27.870  58.288  1.00  0.00     0.190 HD
BRANCH  22  25
HETATM   25  C   UNL     1       8.076  30.255  58.846  1.00  0.00     0.036 A 
HETATM   26  C   UNL     1       8.607  30.448  60.130  1.00  0.00     0.057 A 
HETATM   27  C   UNL     1       8.039  31.431  60.914  1.00  0.00     0.106 A 
HETATM   28  C   UNL     1       6.987  32.201  60.475  1.00  0.00     0.105 A 
HETATM   29  O   UNL     1       8.425  31.752  62.178  1.00  0.00    -0.323 OA
HETATM   30  O   UNL     1       6.583  33.105  61.406  1.00  0.00    -0.323 OA
HETATM   31  C   UNL     1       6.435  32.029  59.225  1.00  0.00     0.041 A 
HETATM   32  C   UNL     1       7.495  32.813  62.485  1.00  0.00     0.352 A 
HETATM   33  C   UNL     1       6.985  31.039  58.404  1.00  0.00     0.020 A 
ENDBRANCH  22  25
ENDBRANCH   2  21
TORSDOF 6
ENDMDL
MODEL 4
REMARK VINA RESULT:      -9.6      7.732     12.136
REMARK  6 active torsions:
REMARK  status: ('A' for Active; 'I' for Inactive)
REMARK    1  A    between atoms: C_3  and  C_4 
REMARK    2  A    between atoms: C_4  and  N_5 
REMARK    3  A    between atoms: C_4  and  C_9 
REMARK       I    between atoms: N_5  and  C_6 
REMARK       I    between atoms: C_6  and  N_7 
REMARK    4  A    between atoms: C_9  and  C_10 
REMARK       I    between atoms: C_10  and  N_11 
REMARK    5  A    between atoms: N_11  and  N_12 
REMARK       I    between atoms: N_12  and  C_13 
REMARK    6  A    between atoms: C_13  and  C_14 
ROOT
HETATM    1  C   UNL     1       6.427  25.438  52.613  1.00  0.00     0.238 C 
HETATM    2  N   UNL     1       6.620  26.054  51.393  1.00  0.00    -0.267 N 
HETATM    3  O   UNL     1       5.328  25.015  52.971  1.00  0.00    -0.272 OA
HETATM    4  H   UNL     1       7.546  26.236  51.006  1.00  0.00     0.190 HD
ENDROOT
BRANCH   1   5
HETATM    5  C   UNL     1       7.674  25.397  53.467  1.00  0.00     0.134 C 
BRANCH   5   6
HETATM    6  C   UNL     1       7.469  24.535  54.726  1.00  0.00     0.129 C 
BRANCH   6   7
HETATM    7  C   UNL     1       7.784  23.059  54.496  1.00  0.00    -0.013 A 
HETATM    8  C   UNL     1       7.676  22.506  53.204  1.00  0.00     0.011 A 
HETATM    9  C   UNL     1       7.959  21.159  52.958  1.00  0.00     0.001 A 
HETATM   10  C   UNL     1       8.357  20.331  53.999  1.00  0.00     0.002 A 
HETATM   11  C   UNL     1       8.464  20.849  55.288  1.00  0.00     0.024 A 
HETATM   12  C   UNL     1       8.176  22.197  55.539  1.00  0.00     0.042 A 
HETATM   13 CL   UNL     1       8.329  22.725  57.180  1.00  0.00    -0.084 Cl
ENDBRANCH   6   7
BRANCH   6  14
HETATM   14  N   UNL     1       6.169  24.705  55.378  1.00  0.00    -0.339 N 
HETATM   15  C   UNL     1       5.968  25.337  56.564  1.00  0.00     0.292 C 
HETATM   16  N   UNL     1       4.669  25.289  56.951  1.00  0.00    -0.254 NA
HETATM   17  O   UNL     1       6.815  25.884  57.253  1.00  0.00    -0.254 OA
HETATM   18  H   UNL     1       3.980  25.369  56.216  1.00  0.00     0.128 HD
HETATM   19  H   UNL     1       4.476  25.849  57.772  1.00  0.00     0.128 HD
HETATM   20  H   UNL     1       5.511  23.958  55.204  1.00  0.00     0.164 HD
ENDBRANCH   6  14
ENDBRANCH   5   6
ENDBRANCH   1   5
BRANCH   2  21
HETATM   21  N   UNL     1       5.570  26.015  50.474  1.00  0.00    -0.263 N 
HETATM   22  C   UNL     1       5.030  27.206  50.040  1.00  0.00     0.270 C 
HETATM   23  O   UNL     1       5.425  28.298  50.442  1.00  0.00    -0.266 OA
HETATM   24  H   UNL     1       5.212  25.091  50.239  1.00  0.00     0.190 HD
BRANCH  22  25
HETATM   25  C   UNL     1       3.911  27.113  49.064  1.00  0.00     0.036 A 
HETATM   26  C   UNL     1       2.972  28.143  48.913  1.00  0.00     0.057 A 
HETATM   27  C   UNL     1       1.968  27.959  47.985  1.00  0.00     0.106 A 
HETATM   28  C   UNL     1       1.869  26.814  47.230  1.00  0.00     0.105 A 
HETATM   29  O   UNL     1       0.976  28.849  47.709  1.00  0.00    -0.323 OA
HETATM   30  O   UNL     1       0.807  26.842  46.382  1.00  0.00    -0.323 OA
HETATM   31  C   UNL     1       2.768  25.779  47.362  1.00  0.00     0.041 A 
HETATM   32  C   UNL     1       0.242  28.133  46.694  1.00  0.00     0.352 A 
HETATM   33  C   UNL     1       3.798  25.931  48.296  1.00  0.00     0.020 A 
ENDBRANCH  22  25
ENDBRANCH   2  21
TORSDOF 6
ENDMDL
MODEL 5
REMARK VINA RESULT:      -9.5      3.564      9.402
REMARK  6 active torsions:
REMARK  status: ('A' for Active; 'I' for Inactive)
REMARK    1  A    between atoms: C_3  and  C_4 
REMARK    2  A    between atoms: C_4  and  N_5 
REMARK    3  A    between atoms: C_4  and  C_9 
REMARK       I    between atoms: N_5  and  C_6 
REMARK       I    between atoms: C_6  and  N_7 
REMARK    4  A    between atoms: C_9  and  C_10 
REMARK       I    between atoms: C_10  and  N_11 
REMARK    5  A    between atoms: N_11  and  N_12 
REMARK       I    between atoms: N_12  and  C_13 
REMARK    6  A    between atoms: C_13  and  C_14 
ROOT
HETATM    1  C   UNL     1       6.062  30.876  57.846  1.00  0.00     0.238 C 
HETATM    2  N   UNL     1       6.455  29.591  58.159  1.00  0.00    -0.267 N 
HETATM    3  O   UNL     1       5.768  31.214  56.699  1.00  0.00    -0.272 OA
HETATM    4  H   UNL     1       6.517  29.250  59.119  1.00  0.00     0.190 HD
ENDROOT
BRANCH   1   5
HETATM    5  C   UNL     1       6.091  31.817  59.028  1.00  0.00     0.134 C 
BRANCH   5   6
HETATM    6  C   UNL     1       7.376  31.643  59.858  1.00  0.00     0.129 C 
BRANCH   6   7
HETATM    7  C   UNL     1       7.272  32.251  61.254  1.00  0.00    -0.013 A 
HETATM    8  C   UNL     1       6.405  33.337  61.489  1.00  0.00     0.011 A 
HETATM    9  C   UNL     1       6.284  33.915  62.756  1.00  0.00     0.001 A 
HETATM   10  C   UNL     1       7.028  33.422  63.820  1.00  0.00     0.002 A 
HETATM   11  C   UNL     1       7.899  32.355  63.615  1.00  0.00     0.024 A 
HETATM   12  C   UNL     1       8.027  31.777  62.344  1.00  0.00     0.042 A 
HETATM   13 CL   UNL     1       9.150  30.467  62.205  1.00  0.00    -0.084 Cl
ENDBRANCH   6   7
BRANCH   6  14
HETATM   14  N   UNL     1       8.603  32.072  59.182  1.00  0.00    -0.339 N 
HETATM   15  C   UNL     1       9.536  31.238  58.656  1.00  0.00     0.292 C 
HETATM   16  N   UNL     1      10.594  31.917  58.145  1.00  0.00    -0.254 NA
HETATM   17  O   UNL     1       9.494  30.017  58.631  1.00  0.00    -0.254 OA
HETATM   18  H   UNL     1      10.384  32.791  57.684  1.00  0.00     0.128 HD
HETATM   19  H   UNL     1      11.247  31.324  57.649  1.00  0.00     0.128 HD
HETATM   20  H   UNL     1       8.987  32.943  59.524  1.00  0.00     0.164 HD
ENDBRANCH   6  14
ENDBRANCH   5   6
ENDBRANCH   1   5
BRANCH   2  21
HETATM   21  N   UNL     1       6.325  28.614  57.170  1.00  0.00    -0.263 N 
HETATM   22  C   UNL     1       7.066  27.458  57.287  1.00  0.00     0.270 C 
HETATM   23  O   UNL     1       7.847  27.260  58.214  1.00  0.00    -0.266 OA
HETATM   24  H   UNL     1       5.740  28.856  56.373  1.00  0.00     0.190 HD
BRANCH  22  25
HETATM   25  C   UNL     1       6.895  26.448  56.207  1.00  0.00     0.036 A 
HETATM   26  C   UNL     1       7.782  25.373  56.050  1.00  0.00     0.057 A 
HETATM   27  C   UNL     1       7.542  24.494  55.015  1.00  0.00     0.106 A 
HETATM   28  C   UNL     1       6.482  24.650  54.153  1.00  0.00     0.105 A 
HETATM   29  O   UNL     1       8.296  23.402  54.717  1.00  0.00    -0.323 OA
HETATM   30  O   UNL     1       6.435  23.673  53.208  1.00  0.00    -0.323 OA
HETATM   31  C   UNL     1       5.600  25.700  54.271  1.00  0.00     0.041 A 
HETATM   32  C   UNL     1       7.590  22.888  53.568  1.00  0.00     0.352 A 
HETATM   33  C   UNL     1       5.815  26.613  55.310  1.00  0.00     0.020 A 
ENDBRANCH  22  25
ENDBRANCH   2  21
TORSDOF 6
ENDMDL
MODEL 6
REMARK VINA RESULT:      -9.5      3.322      9.652
REMARK  6 active torsions:
REMARK  status: ('A' for Active; 'I' for Inactive)
REMARK    1  A    between atoms: C_3  and  C_4 
REMARK    2  A    between atoms: C_4  and  N_5 
REMARK    3  A    between atoms: C_4  and  C_9 
REMARK       I    between atoms: N_5  and  C_6 
REMARK       I    between atoms: C_6  and  N_7 
REMARK    4  A    between atoms: C_9  and  C_10 
REMARK       I    between atoms: C_10  and  N_11 
REMARK    5  A    between atoms: N_11  and  N_12 
REMARK       I    between atoms: N_12  and  C_13 
REMARK    6  A    between atoms: C_13  and  C_14 
ROOT
HETATM    1  C   UNL     1       6.671  31.205  58.623  1.00  0.00     0.238 C 
HETATM    2  N   UNL     1       7.487  30.127  58.899  1.00  0.00    -0.267 N 
HETATM    3  O   UNL     1       5.848  31.191  57.707  1.00  0.00    -0.272 OA
HETATM    4  H   UNL     1       8.031  30.052  59.759  1.00  0.00     0.190 HD
ENDROOT
BRANCH   1   5
HETATM    5  C   UNL     1       6.937  32.401  59.509  1.00  0.00     0.134 C 
BRANCH   5   6
HETATM    6  C   UNL     1       5.781  32.641  60.498  1.00  0.00     0.129 C 
BRANCH   6   7
HETATM    7  C   UNL     1       6.262  32.981  61.906  1.00  0.00    -0.013 A 
HETATM    8  C   UNL     1       7.450  32.410  62.404  1.00  0.00     0.011 A 
HETATM    9  C   UNL     1       7.919  32.702  63.688  1.00  0.00     0.001 A 
HETATM   10  C   UNL     1       7.212  33.574  64.506  1.00  0.00     0.002 A 
HETATM   11  C   UNL     1       6.030  34.146  64.042  1.00  0.00     0.024 A 
HETATM   12  C   UNL     1       5.553  33.851  62.758  1.00  0.00     0.042 A 
HETATM   13 CL   UNL     1       4.068  34.609  62.295  1.00  0.00    -0.084 Cl
ENDBRANCH   6   7
BRANCH   6  14
HETATM   14  N   UNL     1       4.770  31.582  60.524  1.00  0.00    -0.339 N 
HETATM   15  C   UNL     1       3.483  31.723  60.113  1.00  0.00     0.292 C 
HETATM   16  N   UNL     1       2.760  30.591  60.308  1.00  0.00    -0.254 NA
HETATM   17  O   UNL     1       2.974  32.725  59.634  1.00  0.00    -0.254 OA
HETATM   18  H   UNL     1       3.245  29.719  60.153  1.00  0.00     0.128 HD
HETATM   19  H   UNL     1       1.832  30.636  59.908  1.00  0.00     0.128 HD
HETATM   20  H   UNL     1       4.882  30.912  61.272  1.00  0.00     0.164 HD
ENDBRANCH   6  14
ENDBRANCH   5   6
ENDBRANCH   1   5
BRANCH   2  21
HETATM   21  N   UNL     1       7.223  28.928  58.234  1.00  0.00    -0.263 N 
HETATM   22  C   UNL     1       8.227  28.360  57.480  1.00  0.00     0.270 C 
HETATM   23  O   UNL     1       9.336  28.874  57.356  1.00  0.00    -0.266 OA
HETATM   24  H   UNL     1       6.266  28.585  58.288  1.00  0.00     0.190 HD
BRANCH  22  25
HETATM   25  C   UNL     1       7.898  27.085  56.788  1.00  0.00     0.036 A 
HETATM   26  C   UNL     1       7.340  27.062  55.502  1.00  0.00     0.057 A 
HETATM   27  C   UNL     1       7.065  25.829  54.947  1.00  0.00     0.106 A 
HETATM   28  C   UNL     1       7.314  24.654  55.616  1.00  0.00     0.105 A 
HETATM   29  O   UNL     1       6.524  25.621  53.717  1.00  0.00    -0.323 OA
HETATM   30  O   UNL     1       6.967  23.560  54.888  1.00  0.00    -0.323 OA
HETATM   31  C   UNL     1       7.850  24.641  56.884  1.00  0.00     0.041 A 
HETATM   32  C   UNL     1       6.462  24.179  53.687  1.00  0.00     0.352 A 
HETATM   33  C   UNL     1       8.140  25.874  57.478  1.00  0.00     0.020 A 
ENDBRANCH  22  25
ENDBRANCH   2  21
TORSDOF 6
ENDMDL
MODEL 7
REMARK VINA RESULT:      -9.4      2.943      4.347
REMARK  6 active torsions:
REMARK  status: ('A' for Active; 'I' for Inactive)
REMARK    1  A    between atoms: C_3  and  C_4 
REMARK    2  A    between atoms: C_4  and  N_5 
REMARK    3  A    between atoms: C_4  and  C_9 
REMARK       I    between atoms: N_5  and  C_6 
REMARK       I    between atoms: C_6  and  N_7 
REMARK    4  A    between atoms: C_9  and  C_10 
REMARK       I    between atoms: C_10  and  N_11 
REMARK    5  A    between atoms: N_11  and  N_12 
REMARK       I    between atoms: N_12  and  C_13 
REMARK    6  A    between atoms: C_13  and  C_14 
ROOT
HETATM    1  C   UNL     1       6.917  27.685  56.950  1.00  0.00     0.238 C 
HETATM    2  N   UNL     1       7.941  28.310  57.631  1.00  0.00    -0.267 N 
HETATM    3  O   UNL     1       5.744  27.748  57.319  1.00  0.00    -0.272 OA
HETATM    4  H   UNL     1       8.876  28.425  57.239  1.00  0.00     0.190 HD
ENDROOT
BRANCH   1   5
HETATM    5  C   UNL     1       7.392  26.879  55.762  1.00  0.00     0.134 C 
BRANCH   5   6
HETATM    6  C   UNL     1       6.499  25.649  55.519  1.00  0.00     0.129 C 
BRANCH   6   7
HETATM    7  C   UNL     1       7.252  24.479  54.891  1.00  0.00    -0.013 A 
HETATM    8  C   UNL     1       6.999  24.111  53.555  1.00  0.00     0.011 A 
HETATM    9  C   UNL     1       7.672  23.046  52.949  1.00  0.00     0.001 A 
HETATM   10  C   UNL     1       8.616  22.322  53.666  1.00  0.00     0.002 A 
HETATM   11  C   UNL     1       8.879  22.658  54.992  1.00  0.00     0.024 A 
HETATM   12  C   UNL     1       8.202  23.721  55.604  1.00  0.00     0.042 A 
HETATM   13 CL   UNL     1       8.600  24.037  57.258  1.00  0.00    -0.084 Cl
ENDBRANCH   6   7
BRANCH   6  14
HETATM   14  N   UNL     1       5.256  25.929  54.796  1.00  0.00    -0.339 N 
HETATM   15  C   UNL     1       5.131  26.814  53.773  1.00  0.00     0.292 C 
HETATM   16  N   UNL     1       3.850  26.908  53.337  1.00  0.00    -0.254 NA
HETATM   17  O   UNL     1       6.021  27.486  53.275  1.00  0.00    -0.254 OA
HETATM   18  H   UNL     1       3.316  26.050  53.327  1.00  0.00     0.128 HD
HETATM   19  H   UNL     1       3.753  27.475  52.504  1.00  0.00     0.128 HD
HETATM   20  H   UNL     1       4.417  25.836  55.352  1.00  0.00     0.164 HD
ENDBRANCH   6  14
ENDBRANCH   5   6
ENDBRANCH   1   5
BRANCH   2  21
HETATM   21  N   UNL     1       7.593  29.194  58.655  1.00  0.00    -0.263 N 
HETATM   22  C   UNL     1       8.500  30.165  59.022  1.00  0.00     0.270 C 
HETATM   23  O   UNL     1       9.605  30.273  58.497  1.00  0.00    -0.266 OA
HETATM   24  H   UNL     1       6.709  29.011  59.125  1.00  0.00     0.190 HD
BRANCH  22  25
HETATM   25  C   UNL     1       8.085  31.080  60.119  1.00  0.00     0.036 A 
HETATM   26  C   UNL     1       6.974  31.926  59.998  1.00  0.00     0.057 A 
HETATM   27  C   UNL     1       6.673  32.742  61.069  1.00  0.00     0.106 A 
HETATM   28  C   UNL     1       7.425  32.745  62.221  1.00  0.00     0.105 A 
HETATM   29  O   UNL     1       5.638  33.622  61.124  1.00  0.00    -0.323 OA
HETATM   30  O   UNL     1       6.954  33.624  63.144  1.00  0.00    -0.323 OA
HETATM   31  C   UNL     1       8.529  31.935  62.367  1.00  0.00     0.041 A 
HETATM   32  C   UNL     1       5.824  34.180  62.442  1.00  0.00     0.352 A 
HETATM   33  C   UNL     1       8.864  31.096  61.299  1.00  0.00     0.020 A 
ENDBRANCH  22  25
ENDBRANCH   2  21
TORSDOF 6
ENDMDL
MODEL 8
REMARK VINA RESULT:      -9.3      7.111     11.053
REMARK  6 active torsions:
REMARK  status: ('A' for Active; 'I' for Inactive)
REMARK    1  A    between atoms: C_3  and  C_4 
REMARK    2  A    between atoms: C_4  and  N_5 
REMARK    3  A    between atoms: C_4  and  C_9 
REMARK       I    between atoms: N_5  and  C_6 
REMARK       I    between atoms: C_6  and  N_7 
REMARK    4  A    between atoms: C_9  and  C_10 
REMARK       I    between atoms: C_10  and  N_11 
REMARK    5  A    between atoms: N_11  and  N_12 
REMARK       I    between atoms: N_12  and  C_13 
REMARK    6  A    between atoms: C_13  and  C_14 
ROOT
HETATM    1  C   UNL     1       5.587  26.007  53.793  1.00  0.00     0.238 C 
HETATM    2  N   UNL     1       4.516  25.976  52.922  1.00  0.00    -0.267 N 
HETATM    3  O   UNL     1       6.480  26.850  53.708  1.00  0.00    -0.272 OA
HETATM    4  H   UNL     1       3.682  25.412  53.091  1.00  0.00     0.190 HD
ENDROOT
BRANCH   1   5
HETATM    5  C   UNL     1       5.574  24.879  54.800  1.00  0.00     0.134 C 
BRANCH   5   6
HETATM    6  C   UNL     1       7.000  24.477  55.217  1.00  0.00     0.129 C 
BRANCH   6   7
HETATM    7  C   UNL     1       7.406  23.099  54.702  1.00  0.00    -0.013 A 
HETATM    8  C   UNL     1       7.430  21.996  55.577  1.00  0.00     0.011 A 
HETATM    9  C   UNL     1       7.796  20.720  55.137  1.00  0.00     0.001 A 
HETATM   10  C   UNL     1       8.147  20.517  53.809  1.00  0.00     0.002 A 
HETATM   11  C   UNL     1       8.141  21.591  52.923  1.00  0.00     0.024 A 
HETATM   12  C   UNL     1       7.781  22.873  53.363  1.00  0.00     0.042 A 
HETATM   13 CL   UNL     1       7.824  24.133  52.177  1.00  0.00    -0.084 Cl
ENDBRANCH   6   7
BRANCH   6  14
HETATM   14  N   UNL     1       7.278  24.612  56.649  1.00  0.00    -0.339 N 
HETATM   15  C   UNL     1       7.758  25.732  57.248  1.00  0.00     0.292 C 
HETATM   16  N   UNL     1       7.974  25.547  58.575  1.00  0.00    -0.254 NA
HETATM   17  O   UNL     1       8.003  26.801  56.710  1.00  0.00    -0.254 OA
HETATM   18  H   UNL     1       7.306  24.965  59.059  1.00  0.00     0.128 HD
HETATM   19  H   UNL     1       8.224  26.398  59.061  1.00  0.00     0.128 HD
HETATM   20  H   UNL     1       7.569  23.757  57.102  1.00  0.00     0.164 HD
ENDBRANCH   6  14
ENDBRANCH   5   6
ENDBRANCH   1   5
BRANCH   2  21
HETATM   21  N   UNL     1       4.360  27.054  52.049  1.00  0.00    -0.263 N 
HETATM   22  C   UNL     1       4.791  26.914  50.748  1.00  0.00     0.270 C 
HETATM   23  O   UNL     1       5.322  25.887  50.331  1.00  0.00    -0.266 OA
HETATM   24  H   UNL     1       4.002  27.915  52.457  1.00  0.00     0.190 HD
BRANCH  22  25
HETATM   25  C   UNL     1       4.606  28.090  49.856  1.00  0.00     0.036 A 
HETATM   26  C   UNL     1       3.702  28.073  48.784  1.00  0.00     0.057 A 
HETATM   27  C   UNL     1       3.606  29.212  48.012  1.00  0.00     0.106 A 
HETATM   28  C   UNL     1       4.364  30.332  48.262  1.00  0.00     0.105 A 
HETATM   29  O   UNL     1       2.787  29.370  46.938  1.00  0.00    -0.323 OA
HETATM   30  O   UNL     1       4.112  31.335  47.380  1.00  0.00    -0.323 OA
HETATM   31  C   UNL     1       5.269  30.378  49.299  1.00  0.00     0.041 A 
HETATM   32  C   UNL     1       3.115  30.718  46.540  1.00  0.00     0.352 A 
HETATM   33  C   UNL     1       5.394  29.239  50.102  1.00  0.00     0.020 A 
ENDBRANCH  22  25
ENDBRANCH   2  21
TORSDOF 6
ENDMDL
MODEL 9
REMARK VINA RESULT:      -9.2      3.486      5.528
REMARK  6 active torsions:
REMARK  status: ('A' for Active; 'I' for Inactive)
REMARK    1  A    between atoms: C_3  and  C_4 
REMARK    2  A    between atoms: C_4  and  N_5 
REMARK    3  A    between atoms: C_4  and  C_9 
REMARK       I    between atoms: N_5  and  C_6 
REMARK       I    between atoms: C_6  and  N_7 
REMARK    4  A    between atoms: C_9  and  C_10 
REMARK       I    between atoms: C_10  and  N_11 
REMARK    5  A    between atoms: N_11  and  N_12 
REMARK       I    between atoms: N_12  and  C_13 
REMARK    6  A    between atoms: C_13  and  C_14 
ROOT
HETATM    1  C   UNL     1       7.004  27.996  54.397  1.00  0.00     0.238 C 
HETATM    2  N   UNL     1       8.068  28.462  55.143  1.00  0.00    -0.267 N 
HETATM    3  O   UNL     1       5.836  28.264  54.677  1.00  0.00    -0.272 OA
HETATM    4  H   UNL     1       9.035  28.410  54.821  1.00  0.00     0.190 HD
ENDROOT
BRANCH   1   5
HETATM    5  C   UNL     1       7.421  27.090  53.261  1.00  0.00     0.134 C 
BRANCH   5   6
HETATM    6  C   UNL     1       6.432  25.925  53.076  1.00  0.00     0.129 C 
BRANCH   6   7
HETATM    7  C   UNL     1       6.989  24.588  53.558  1.00  0.00    -0.013 A 
HETATM    8  C   UNL     1       7.705  23.759  52.671  1.00  0.00     0.011 A 
HETATM    9  C   UNL     1       8.230  22.530  53.080  1.00  0.00     0.001 A 
HETATM   10  C   UNL     1       8.052  22.098  54.388  1.00  0.00     0.002 A 
HETATM   11  C   UNL     1       7.340  22.893  55.284  1.00  0.00     0.024 A 
HETATM   12  C   UNL     1       6.808  24.123  54.875  1.00  0.00     0.042 A 
HETATM   13 CL   UNL     1       5.932  25.017  56.070  1.00  0.00    -0.084 Cl
ENDBRANCH   6   7
BRANCH   6  14
HETATM   14  N   UNL     1       5.867  25.810  51.729  1.00  0.00    -0.339 N 
HETATM   15  C   UNL     1       4.938  26.647  51.199  1.00  0.00     0.292 C 
HETATM   16  N   UNL     1       4.558  26.262  49.955  1.00  0.00    -0.254 NA
HETATM   17  O   UNL     1       4.452  27.632  51.734  1.00  0.00    -0.254 OA
HETATM   18  H   UNL     1       5.282  25.877  49.365  1.00  0.00     0.128 HD
HETATM   19  H   UNL     1       3.952  26.932  49.498  1.00  0.00     0.128 HD
HETATM   20  H   UNL     1       5.802  24.864  51.380  1.00  0.00     0.164 HD
ENDBRANCH   6  14
ENDBRANCH   5   6
ENDBRANCH   1   5
BRANCH   2  21
HETATM   21  N   UNL     1       7.801  29.419  56.124  1.00  0.00    -0.263 N 
HETATM   22  C   UNL     1       7.967  29.069  57.447  1.00  0.00     0.270 C 
HETATM   23  O   UNL     1       8.323  27.947  57.796  1.00  0.00    -0.266 OA
HETATM   24  H   UNL     1       7.420  30.305  55.797  1.00  0.00     0.190 HD
BRANCH  22  25
HETATM   25  C   UNL     1       7.668  30.122  58.455  1.00  0.00     0.036 A 
HETATM   26  C   UNL     1       8.371  30.210  59.665  1.00  0.00     0.057 A 
HETATM   27  C   UNL     1       8.016  31.218  60.537  1.00  0.00     0.106 A 
HETATM   28  C   UNL     1       7.008  32.110  60.253  1.00  0.00     0.105 A 
HETATM   29  O   UNL     1       8.587  31.451  61.749  1.00  0.00    -0.323 OA
HETATM   30  O   UNL     1       6.824  33.017  61.249  1.00  0.00    -0.323 OA
HETATM   31  C   UNL     1       6.290  32.044  59.080  1.00  0.00     0.041 A 
HETATM   32  C   UNL     1       7.824  32.591  62.197  1.00  0.00     0.352 A 
HETATM   33  C   UNL     1       6.623  31.032  58.173  1.00  0.00     0.020 A 
ENDBRANCH  22  25
ENDBRANCH   2  21
TORSDOF 6
ENDMDL
MODEL 10
REMARK VINA RESULT:      -9.2      3.887      5.420
REMARK  6 active torsions:
REMARK  status: ('A' for Active; 'I' for Inactive)
REMARK    1  A    between atoms: C_3  and  C_4 
REMARK    2  A    between atoms: C_4  and  N_5 
REMARK    3  A    between atoms: C_4  and  C_9 
REMARK       I    between atoms: N_5  and  C_6 
REMARK       I    between atoms: C_6  and  N_7 
REMARK    4  A    between atoms: C_9  and  C_10 
REMARK       I    between atoms: C_10  and  N_11 
REMARK    5  A    between atoms: N_11  and  N_12 
REMARK       I    between atoms: N_12  and  C_13 
REMARK    6  A    between atoms: C_13  and  C_14 
ROOT
HETATM    1  C   UNL     1       5.495  25.821  56.314  1.00  0.00     0.238 C 
HETATM    2  N   UNL     1       5.980  27.069  55.979  1.00  0.00    -0.267 N 
HETATM    3  O   UNL     1       4.875  25.614  57.357  1.00  0.00    -0.272 OA
HETATM    4  H   UNL     1       6.325  27.296  55.046  1.00  0.00     0.190 HD
ENDROOT
BRANCH   1   5
HETATM    5  C   UNL     1       5.857  24.749  55.312  1.00  0.00     0.134 C 
BRANCH   5   6
HETATM    6  C   UNL     1       7.293  24.236  55.525  1.00  0.00     0.129 C 
BRANCH   6   7
HETATM    7  C   UNL     1       7.574  22.927  54.793  1.00  0.00    -0.013 A 
HETATM    8  C   UNL     1       7.633  21.715  55.510  1.00  0.00     0.011 A 
HETATM    9  C   UNL     1       7.887  20.498  54.870  1.00  0.00     0.001 A 
HETATM   10  C   UNL     1       8.087  20.463  53.496  1.00  0.00     0.002 A 
HETATM   11  C   UNL     1       8.043  21.647  52.764  1.00  0.00     0.024 A 
HETATM   12  C   UNL     1       7.795  22.870  53.403  1.00  0.00     0.042 A 
HETATM   13 CL   UNL     1       7.778  24.276  52.394  1.00  0.00    -0.084 Cl
ENDBRANCH   6   7
BRANCH   6  14
HETATM   14  N   UNL     1       7.714  24.163  56.926  1.00  0.00    -0.339 N 
HETATM   15  C   UNL     1       8.421  25.120  57.580  1.00  0.00     0.292 C 
HETATM   16  N   UNL     1       8.719  24.753  58.852  1.00  0.00    -0.254 NA
HETATM   17  O   UNL     1       8.789  26.194  57.127  1.00  0.00    -0.254 OA
HETATM   18  H   UNL     1       8.009  24.229  59.344  1.00  0.00     0.128 HD
HETATM   19  H   UNL     1       9.146  25.495  59.392  1.00  0.00     0.128 HD
HETATM   20  H   UNL     1       7.900  23.227  57.260  1.00  0.00     0.164 HD
ENDBRANCH   6  14
ENDBRANCH   5   6
ENDBRANCH   1   5
BRANCH   2  21
HETATM   21  N   UNL     1       5.579  28.152  56.764  1.00  0.00    -0.263 N 
HETATM   22  C   UNL     1       6.454  29.204  56.929  1.00  0.00     0.270 C 
HETATM   23  O   UNL     1       7.576  29.220  56.429  1.00  0.00    -0.266 OA
HETATM   24  H   UNL     1       4.681  28.059  57.235  1.00  0.00     0.190 HD
BRANCH  22  25
HETATM   25  C   UNL     1       5.983  30.333  57.776  1.00  0.00     0.036 A 
HETATM   26  C   UNL     1       4.629  30.692  57.847  1.00  0.00     0.057 A 
HETATM   27  C   UNL     1       4.293  31.757  58.656  1.00  0.00     0.106 A 
HETATM   28  C   UNL     1       5.234  32.459  59.372  1.00  0.00     0.105 A 
HETATM   29  O   UNL     1       3.035  32.240  58.841  1.00  0.00    -0.323 OA
HETATM   30  O   UNL     1       4.686  33.467  60.099  1.00  0.00    -0.323 OA
HETATM   31  C   UNL     1       6.573  32.141  59.315  1.00  0.00     0.041 A 
HETATM   32  C   UNL     1       3.292  33.327  59.756  1.00  0.00     0.352 A 
HETATM   33  C   UNL     1       6.950  31.066  58.502  1.00  0.00     0.020 A 
ENDBRANCH  22  25
ENDBRANCH   2  21
TORSDOF 6
ENDMDL
