MODEL 1
REMARK VINA RESULT:      -9.0      0.000      0.000
REMARK  3 active torsions:
REMARK  status: ('A' for Active; 'I' for Inactive)
REMARK    1  A    between atoms: C_4  and  C_5 
REMARK    2  A    between atoms: C_9  and  C_10 
REMARK       I    between atoms: C_10  and  N_11 
REMARK    3  A    between atoms: N_11  and  C_12 
ROOT
HETATM    1  C   UNL     1       6.746  27.531  55.123  1.00  0.00     0.276 C 
HETATM    2  N   UNL     1       6.532  27.661  56.479  1.00  0.00    -0.317 N 
HETATM    3  O   UNL     1       6.950  28.454  54.341  1.00  0.00    -0.266 OA
HETATM    4  H   UNL     1       6.365  26.782  56.974  1.00  0.00     0.169 HD
ENDROOT
BRANCH   1   5
HETATM    5  C   UNL     1       6.693  26.129  54.677  1.00  0.00     0.147 A 
HETATM    6  N   UNL     1       5.758  25.688  53.813  1.00  0.00    -0.169 NA
HETATM    7  N   UNL     1       6.046  24.384  53.663  1.00  0.00    -0.277 N 
HETATM    8  C   UNL     1       7.146  23.956  54.363  1.00  0.00     0.063 A 
HETATM    9  H   UNL     1       5.443  23.832  53.064  1.00  0.00     0.189 HD
HETATM   10  C   UNL     1       7.568  25.079  55.050  1.00  0.00     0.071 A 
BRANCH   8  11
HETATM   11  C   UNL     1       7.663  22.586  54.331  1.00  0.00    -0.008 A 
HETATM   12  C   UNL     1       7.906  21.863  55.510  1.00  0.00     0.014 A 
HETATM   13  C   UNL     1       8.391  20.553  55.461  1.00  0.00     0.001 A 
HETATM   14  C   UNL     1       8.637  19.943  54.233  1.00  0.00     0.000 A 
HETATM   15  C   UNL     1       8.399  20.643  53.055  1.00  0.00     0.001 A 
HETATM   16  C   UNL     1       7.916  21.954  53.104  1.00  0.00     0.014 A 
ENDBRANCH   8  11
ENDBRANCH   1   5
BRANCH   2  17
HETATM   17  C   UNL     1       6.485  28.804  57.242  1.00  0.00     0.102 A 
HETATM   18  C   UNL     1       7.765  29.192  57.951  1.00  0.00     0.218 A 
HETATM   19  O   UNL     1       8.772  28.497  57.812  1.00  0.00    -0.284 OA
HETATM   20  C   UNL     1       7.745  30.425  58.810  1.00  0.00     0.078 A 
HETATM   21 BR   UNL     1       9.282  30.935  59.722  1.00  0.00    -0.045 Br
HETATM   22  C   UNL     1       6.592  31.105  58.878  1.00  0.00     0.111 A 
HETATM   23  N   UNL     1       5.455  30.731  58.212  1.00  0.00    -0.372 N 
HETATM   24  C   UNL     1       5.425  29.606  57.427  1.00  0.00     0.121 A 
HETATM   25  H   UNL     1       4.607  31.285  58.311  1.00  0.00     0.164 HD
ENDBRANCH   2  17
TORSDOF 3
ENDMDL
MODEL 2
REMARK VINA RESULT:      -8.8      1.536      1.888
REMARK  3 active torsions:
REMARK  status: ('A' for Active; 'I' for Inactive)
REMARK    1  A    between atoms: C_4  and  C_5 
REMARK    2  A    between atoms: C_9  and  C_10 
REMARK       I    between atoms: C_10  and  N_11 
REMARK    3  A    between atoms: N_11  and  C_12 
ROOT
HETATM    1  C   UNL     1       7.442  27.740  56.330  1.00  0.00     0.276 C 
HETATM    2  N   UNL     1       6.874  28.237  57.484  1.00  0.00    -0.317 N 
HETATM    3  O   UNL     1       7.851  28.412  55.389  1.00  0.00    -0.266 OA
HETATM    4  H   UNL     1       6.578  27.527  58.157  1.00  0.00     0.169 HD
ENDROOT
BRANCH   1   5
HETATM    5  C   UNL     1       7.506  26.269  56.324  1.00  0.00     0.147 A 
HETATM    6  N   UNL     1       7.390  25.543  57.453  1.00  0.00    -0.169 NA
HETATM    7  N   UNL     1       7.499  24.271  57.031  1.00  0.00    -0.277 N 
HETATM    8  C   UNL     1       7.646  24.128  55.674  1.00  0.00     0.063 A 
HETATM    9  H   UNL     1       7.466  23.536  57.729  1.00  0.00     0.189 HD
HETATM   10  C   UNL     1       7.676  25.426  55.198  1.00  0.00     0.071 A 
BRANCH   8  11
HETATM   11  C   UNL     1       7.756  22.839  54.987  1.00  0.00    -0.008 A 
HETATM   12  C   UNL     1       7.794  22.752  53.586  1.00  0.00     0.014 A 
HETATM   13  C   UNL     1       7.909  21.514  52.947  1.00  0.00     0.001 A 
HETATM   14  C   UNL     1       7.991  20.344  53.698  1.00  0.00     0.000 A 
HETATM   15  C   UNL     1       7.959  20.411  55.087  1.00  0.00     0.001 A 
HETATM   16  C   UNL     1       7.843  21.649  55.726  1.00  0.00     0.014 A 
ENDBRANCH   8  11
ENDBRANCH   1   5
BRANCH   2  17
HETATM   17  C   UNL     1       6.627  29.544  57.834  1.00  0.00     0.102 A 
HETATM   18  C   UNL     1       7.612  30.180  58.792  1.00  0.00     0.218 A 
HETATM   19  O   UNL     1       8.573  29.526  59.200  1.00  0.00    -0.284 OA
HETATM   20  C   UNL     1       7.364  31.601  59.212  1.00  0.00     0.078 A 
HETATM   21 BR   UNL     1       8.527  32.424  60.406  1.00  0.00    -0.045 Br
HETATM   22  C   UNL     1       6.288  32.213  58.696  1.00  0.00     0.111 A 
HETATM   23  N   UNL     1       5.425  31.610  57.820  1.00  0.00    -0.372 N 
HETATM   24  C   UNL     1       5.606  30.310  57.419  1.00  0.00     0.121 A 
HETATM   25  H   UNL     1       4.620  32.124  57.470  1.00  0.00     0.164 HD
ENDBRANCH   2  17
TORSDOF 3
ENDMDL
MODEL 3
REMARK VINA RESULT:      -8.7      3.985      9.991
REMARK  3 active torsions:
REMARK  status: ('A' for Active; 'I' for Inactive)
REMARK    1  A    between atoms: C_4  and  C_5 
REMARK    2  A    between atoms: C_9  and  C_10 
REMARK       I    between atoms: C_10  and  N_11 
REMARK    3  A    between atoms: N_11  and  C_12 
ROOT
HETATM    1  C   UNL     1       8.679  30.089  58.787  1.00  0.00     0.276 C 
HETATM    2  N   UNL     1       7.526  29.487  58.331  1.00  0.00    -0.317 N 
HETATM    3  O   UNL     1       9.741  30.153  58.176  1.00  0.00    -0.266 OA
HETATM    4  H   UNL     1       6.739  29.517  58.983  1.00  0.00     0.169 HD
ENDROOT
BRANCH   1   5
HETATM    5  C   UNL     1       8.520  30.660  60.135  1.00  0.00     0.147 A 
HETATM    6  N   UNL     1       9.197  30.183  61.198  1.00  0.00    -0.169 NA
HETATM    7  N   UNL     1       8.783  30.956  62.217  1.00  0.00    -0.277 N 
HETATM    8  C   UNL     1       7.892  31.939  61.866  1.00  0.00     0.063 A 
HETATM    9  H   UNL     1       9.149  30.757  63.141  1.00  0.00     0.189 HD
HETATM   10  C   UNL     1       7.691  31.746  60.511  1.00  0.00     0.071 A 
BRANCH   8  11
HETATM   11  C   UNL     1       7.327  32.915  62.801  1.00  0.00    -0.008 A 
HETATM   12  C   UNL     1       6.375  33.861  62.392  1.00  0.00     0.014 A 
HETATM   13  C   UNL     1       5.839  34.779  63.301  1.00  0.00     0.001 A 
HETATM   14  C   UNL     1       6.244  34.762  64.633  1.00  0.00     0.000 A 
HETATM   15  C   UNL     1       7.184  33.828  65.057  1.00  0.00     0.001 A 
HETATM   16  C   UNL     1       7.721  32.912  64.148  1.00  0.00     0.014 A 
ENDBRANCH   8  11
ENDBRANCH   1   5
BRANCH   2  17
HETATM   17  C   UNL     1       7.303  28.833  57.142  1.00  0.00     0.102 A 
HETATM   18  C   UNL     1       7.471  27.328  57.161  1.00  0.00     0.218 A 
HETATM   19  O   UNL     1       7.781  26.764  58.211  1.00  0.00    -0.284 OA
HETATM   20  C   UNL     1       7.254  26.582  55.875  1.00  0.00     0.078 A 
HETATM   21 BR   UNL     1       7.471  24.737  55.835  1.00  0.00    -0.045 Br
HETATM   22  C   UNL     1       6.912  27.304  54.798  1.00  0.00     0.111 A 
HETATM   23  N   UNL     1       6.755  28.665  54.821  1.00  0.00    -0.372 N 
HETATM   24  C   UNL     1       6.956  29.388  55.970  1.00  0.00     0.121 A 
HETATM   25  H   UNL     1       6.503  29.158  53.967  1.00  0.00     0.164 HD
ENDBRANCH   2  17
TORSDOF 3
ENDMDL
MODEL 4
REMARK VINA RESULT:      -8.5      4.895      6.285
REMARK  3 active torsions:
REMARK  status: ('A' for Active; 'I' for Inactive)
REMARK    1  A    between atoms: C_4  and  C_5 
REMARK    2  A    between atoms: C_9  and  C_10 
REMARK       I    between atoms: C_10  and  N_11 
REMARK    3  A    between atoms: N_11  and  C_12 
ROOT
HETATM    1  C   UNL     1       5.294  26.842  51.864  1.00  0.00     0.276 C 
HETATM    2  N   UNL     1       5.668  27.042  50.553  1.00  0.00    -0.317 N 
HETATM    3  O   UNL     1       4.326  27.356  52.417  1.00  0.00    -0.266 OA
HETATM    4  H   UNL     1       6.513  26.541  50.266  1.00  0.00     0.169 HD
ENDROOT
BRANCH   1   5
HETATM    5  C   UNL     1       6.204  25.930  52.576  1.00  0.00     0.147 A 
HETATM    6  N   UNL     1       7.291  26.375  53.235  1.00  0.00    -0.169 NA
HETATM    7  N   UNL     1       7.843  25.257  53.739  1.00  0.00    -0.277 N 
HETATM    8  C   UNL     1       7.149  24.104  53.470  1.00  0.00     0.063 A 
HETATM    9  H   UNL     1       8.706  25.349  54.262  1.00  0.00     0.189 HD
HETATM   10  C   UNL     1       6.086  24.522  52.691  1.00  0.00     0.071 A 
BRANCH   8  11
HETATM   11  C   UNL     1       7.545  22.774  53.938  1.00  0.00    -0.008 A 
HETATM   12  C   UNL     1       7.493  22.426  55.297  1.00  0.00     0.014 A 
HETATM   13  C   UNL     1       7.866  21.148  55.725  1.00  0.00     0.001 A 
HETATM   14  C   UNL     1       8.293  20.197  54.802  1.00  0.00     0.000 A 
HETATM   15  C   UNL     1       8.347  20.523  53.451  1.00  0.00     0.001 A 
HETATM   16  C   UNL     1       7.976  21.802  53.023  1.00  0.00     0.014 A 
ENDBRANCH   8  11
ENDBRANCH   1   5
BRANCH   2  17
HETATM   17  C   UNL     1       5.083  27.838  49.597  1.00  0.00     0.102 A 
HETATM   18  C   UNL     1       5.383  29.320  49.681  1.00  0.00     0.218 A 
HETATM   19  O   UNL     1       6.125  29.741  50.568  1.00  0.00    -0.284 OA
HETATM   20  C   UNL     1       4.744  30.224  48.663  1.00  0.00     0.078 A 
HETATM   21 BR   UNL     1       5.058  32.054  48.734  1.00  0.00    -0.045 Br
HETATM   22  C   UNL     1       3.960  29.648  47.740  1.00  0.00     0.111 A 
HETATM   23  N   UNL     1       3.721  28.301  47.687  1.00  0.00    -0.372 N 
HETATM   24  C   UNL     1       4.273  27.440  48.603  1.00  0.00     0.121 A 
HETATM   25  H   UNL     1       3.108  27.925  46.967  1.00  0.00     0.164 HD
ENDBRANCH   2  17
TORSDOF 3
ENDMDL
MODEL 5
REMARK VINA RESULT:      -8.3      3.611      5.292
REMARK  3 active torsions:
REMARK  status: ('A' for Active; 'I' for Inactive)
REMARK    1  A    between atoms: C_4  and  C_5 
REMARK    2  A    between atoms: C_9  and  C_10 
REMARK       I    between atoms: C_10  and  N_11 
REMARK    3  A    between atoms: N_11  and  C_12 
ROOT
HETATM    1  C   UNL     1       8.316  31.318  59.052  1.00  0.00     0.276 C 
HETATM    2  N   UNL     1       7.181  31.214  59.827  1.00  0.00    -0.317 N 
HETATM    3  O   UNL     1       9.046  32.302  58.983  1.00  0.00    -0.266 OA
HETATM    4  H   UNL     1       6.687  30.322  59.749  1.00  0.00     0.169 HD
ENDROOT
BRANCH   1   5
HETATM    5  C   UNL     1       8.577  30.098  58.272  1.00  0.00     0.147 A 
HETATM    6  N   UNL     1       9.763  29.872  57.673  1.00  0.00    -0.169 NA
HETATM    7  N   UNL     1       9.602  28.678  57.077  1.00  0.00    -0.277 N 
HETATM    8  C   UNL     1       8.378  28.094  57.286  1.00  0.00     0.063 A 
HETATM    9  H   UNL     1      10.375  28.312  56.533  1.00  0.00     0.189 HD
HETATM   10  C   UNL     1       7.686  29.019  58.046  1.00  0.00     0.071 A 
BRANCH   8  11
HETATM   11  C   UNL     1       7.986  26.784  56.759  1.00  0.00    -0.008 A 
HETATM   12  C   UNL     1       8.305  25.595  57.433  1.00  0.00     0.014 A 
HETATM   13  C   UNL     1       7.915  24.354  56.920  1.00  0.00     0.001 A 
HETATM   14  C   UNL     1       7.198  24.283  55.728  1.00  0.00     0.000 A 
HETATM   15  C   UNL     1       6.871  25.452  55.049  1.00  0.00     0.001 A 
HETATM   16  C   UNL     1       7.262  26.693  55.561  1.00  0.00     0.014 A 
ENDBRANCH   8  11
ENDBRANCH   1   5
BRANCH   2  17
HETATM   17  C   UNL     1       6.613  32.149  60.661  1.00  0.00     0.102 A 
HETATM   18  C   UNL     1       7.191  32.244  62.057  1.00  0.00     0.218 A 
HETATM   19  O   UNL     1       8.125  31.510  62.379  1.00  0.00    -0.284 OA
HETATM   20  C   UNL     1       6.582  33.241  63.002  1.00  0.00     0.078 A 
HETATM   21 BR   UNL     1       7.235  33.383  64.736  1.00  0.00    -0.045 Br
HETATM   22  C   UNL     1       5.572  33.990  62.535  1.00  0.00     0.111 A 
HETATM   23  N   UNL     1       5.083  33.886  61.260  1.00  0.00    -0.372 N 
HETATM   24  C   UNL     1       5.601  32.981  60.368  1.00  0.00     0.121 A 
HETATM   25  H   UNL     1       4.309  34.477  60.967  1.00  0.00     0.164 HD
ENDBRANCH   2  17
TORSDOF 3
ENDMDL
MODEL 6
REMARK VINA RESULT:      -8.1      3.621      8.287
REMARK  3 active torsions:
REMARK  status: ('A' for Active; 'I' for Inactive)
REMARK    1  A    between atoms: C_4  and  C_5 
REMARK    2  A    between atoms: C_9  and  C_10 
REMARK       I    between atoms: C_10  and  N_11 
REMARK    3  A    between atoms: N_11  and  C_12 
ROOT
HETATM    1  C   UNL     1       7.055  25.292  56.080  1.00  0.00     0.276 C 
HETATM    2  N   UNL     1       8.169  24.495  56.232  1.00  0.00    -0.317 N 
HETATM    3  O   UNL     1       5.921  24.894  55.828  1.00  0.00    -0.266 OA
HETATM    4  H   UNL     1       9.036  25.001  56.426  1.00  0.00     0.169 HD
ENDROOT
BRANCH   1   5
HETATM    5  C   UNL     1       7.361  26.723  56.240  1.00  0.00     0.147 A 
HETATM    6  N   UNL     1       6.995  27.639  55.322  1.00  0.00    -0.169 NA
HETATM    7  N   UNL     1       7.449  28.799  55.826  1.00  0.00    -0.277 N 
HETATM    8  C   UNL     1       8.064  28.692  57.048  1.00  0.00     0.063 A 
HETATM    9  H   UNL     1       7.307  29.641  55.280  1.00  0.00     0.189 HD
HETATM   10  C   UNL     1       8.036  27.337  57.323  1.00  0.00     0.071 A 
BRANCH   8  11
HETATM   11  C   UNL     1       8.611  29.824  57.800  1.00  0.00    -0.008 A 
HETATM   12  C   UNL     1       7.864  30.479  58.791  1.00  0.00     0.014 A 
HETATM   13  C   UNL     1       8.405  31.552  59.506  1.00  0.00     0.001 A 
HETATM   14  C   UNL     1       9.703  31.984  59.244  1.00  0.00     0.000 A 
HETATM   15  C   UNL     1      10.459  31.344  58.268  1.00  0.00     0.001 A 
HETATM   16  C   UNL     1       9.917  30.272  57.552  1.00  0.00     0.014 A 
ENDBRANCH   8  11
ENDBRANCH   1   5
BRANCH   2  17
HETATM   17  C   UNL     1       8.276  23.127  56.131  1.00  0.00     0.102 A 
HETATM   18  C   UNL     1       8.340  22.561  54.728  1.00  0.00     0.218 A 
HETATM   19  O   UNL     1       8.306  23.324  53.762  1.00  0.00    -0.284 OA
HETATM   20  C   UNL     1       8.438  21.069  54.578  1.00  0.00     0.078 A 
HETATM   21 BR   UNL     1       8.496  20.317  52.879  1.00  0.00    -0.045 Br
HETATM   22  C   UNL     1       8.475  20.341  55.704  1.00  0.00     0.111 A 
HETATM   23  N   UNL     1       8.428  20.890  56.958  1.00  0.00    -0.372 N 
HETATM   24  C   UNL     1       8.325  22.246  57.142  1.00  0.00     0.121 A 
HETATM   25  H   UNL     1       8.450  20.283  57.775  1.00  0.00     0.164 HD
ENDBRANCH   2  17
TORSDOF 3
ENDMDL
MODEL 7
REMARK VINA RESULT:      -7.9      2.230      3.321
REMARK  3 active torsions:
REMARK  status: ('A' for Active; 'I' for Inactive)
REMARK    1  A    between atoms: C_4  and  C_5 
REMARK    2  A    between atoms: C_9  and  C_10 
REMARK       I    between atoms: C_10  and  N_11 
REMARK    3  A    between atoms: N_11  and  C_12 
ROOT
HETATM    1  C   UNL     1       6.124  29.308  57.300  1.00  0.00     0.276 C 
HETATM    2  N   UNL     1       6.973  30.281  57.782  1.00  0.00    -0.317 N 
HETATM    3  O   UNL     1       4.979  29.102  57.689  1.00  0.00    -0.266 OA
HETATM    4  H   UNL     1       7.899  30.297  57.349  1.00  0.00     0.169 HD
ENDROOT
BRANCH   1   5
HETATM    5  C   UNL     1       6.745  28.495  56.241  1.00  0.00     0.147 A 
HETATM    6  N   UNL     1       7.705  28.986  55.432  1.00  0.00    -0.169 NA
HETATM    7  N   UNL     1       8.003  27.955  54.623  1.00  0.00    -0.277 N 
HETATM    8  C   UNL     1       7.309  26.801  54.885  1.00  0.00     0.063 A 
HETATM    9  H   UNL     1       8.697  28.106  53.899  1.00  0.00     0.189 HD
HETATM   10  C   UNL     1       6.465  27.142  55.926  1.00  0.00     0.071 A 
BRANCH   8  11
HETATM   11  C   UNL     1       7.487  25.545  54.151  1.00  0.00    -0.008 A 
HETATM   12  C   UNL     1       7.692  25.527  52.763  1.00  0.00     0.014 A 
HETATM   13  C   UNL     1       7.869  24.319  52.080  1.00  0.00     0.001 A 
HETATM   14  C   UNL     1       7.849  23.113  52.775  1.00  0.00     0.000 A 
HETATM   15  C   UNL     1       7.651  23.113  54.152  1.00  0.00     0.001 A 
HETATM   16  C   UNL     1       7.471  24.320  54.834  1.00  0.00     0.014 A 
ENDBRANCH   8  11
ENDBRANCH   1   5
BRANCH   2  17
HETATM   17  C   UNL     1       6.754  31.204  58.779  1.00  0.00     0.102 A 
HETATM   18  C   UNL     1       7.623  31.078  60.013  1.00  0.00     0.218 A 
HETATM   19  O   UNL     1       8.472  30.189  60.070  1.00  0.00    -0.284 OA
HETATM   20  C   UNL     1       7.399  32.058  61.130  1.00  0.00     0.078 A 
HETATM   21 BR   UNL     1       8.420  31.936  62.678  1.00  0.00    -0.045 Br
HETATM   22  C   UNL     1       6.449  32.987  60.949  1.00  0.00     0.111 A 
HETATM   23  N   UNL     1       5.690  33.078  59.812  1.00  0.00    -0.372 N 
HETATM   24  C   UNL     1       5.852  32.197  58.772  1.00  0.00     0.121 A 
HETATM   25  H   UNL     1       4.978  33.801  59.738  1.00  0.00     0.164 HD
ENDBRANCH   2  17
TORSDOF 3
ENDMDL
MODEL 8
REMARK VINA RESULT:      -7.9      5.277      7.296
REMARK  3 active torsions:
REMARK  status: ('A' for Active; 'I' for Inactive)
REMARK    1  A    between atoms: C_4  and  C_5 
REMARK    2  A    between atoms: C_9  and  C_10 
REMARK       I    between atoms: C_10  and  N_11 
REMARK    3  A    between atoms: N_11  and  C_12 
ROOT
HETATM    1  C   UNL     1       6.950  26.305  53.265  1.00  0.00     0.276 C 
HETATM    2  N   UNL     1       6.521  25.115  53.812  1.00  0.00    -0.317 N 
HETATM    3  O   UNL     1       7.930  26.947  53.632  1.00  0.00    -0.266 OA
HETATM    4  H   UNL     1       5.675  24.728  53.388  1.00  0.00     0.169 HD
ENDROOT
BRANCH   1   5
HETATM    5  C   UNL     1       6.085  26.764  52.166  1.00  0.00     0.147 A 
HETATM    6  N   UNL     1       5.779  28.064  51.991  1.00  0.00    -0.169 NA
HETATM    7  N   UNL     1       4.988  28.066  50.904  1.00  0.00    -0.277 N 
HETATM    8  C   UNL     1       4.788  26.832  50.339  1.00  0.00     0.063 A 
HETATM    9  H   UNL     1       4.608  28.954  50.597  1.00  0.00     0.189 HD
HETATM   10  C   UNL     1       5.480  25.965  51.164  1.00  0.00     0.071 A 
BRANCH   8  11
HETATM   11  C   UNL     1       3.986  26.595  49.136  1.00  0.00    -0.008 A 
HETATM   12  C   UNL     1       3.478  27.655  48.369  1.00  0.00     0.014 A 
HETATM   13  C   UNL     1       2.722  27.410  47.218  1.00  0.00     0.001 A 
HETATM   14  C   UNL     1       2.467  26.103  46.814  1.00  0.00     0.000 A 
HETATM   15  C   UNL     1       2.966  25.040  47.559  1.00  0.00     0.001 A 
HETATM   16  C   UNL     1       3.720  25.284  48.711  1.00  0.00     0.014 A 
ENDBRANCH   8  11
ENDBRANCH   1   5
BRANCH   2  17
HETATM   17  C   UNL     1       7.054  24.400  54.859  1.00  0.00     0.102 A 
HETATM   18  C   UNL     1       7.537  23.001  54.541  1.00  0.00     0.218 A 
HETATM   19  O   UNL     1       7.447  22.574  53.390  1.00  0.00    -0.284 OA
HETATM   20  C   UNL     1       8.109  22.184  55.665  1.00  0.00     0.078 A 
HETATM   21 BR   UNL     1       8.695  20.451  55.337  1.00  0.00    -0.045 Br
HETATM   22  C   UNL     1       8.162  22.760  56.875  1.00  0.00     0.111 A 
HETATM   23  N   UNL     1       7.727  24.034  57.124  1.00  0.00    -0.372 N 
HETATM   24  C   UNL     1       7.187  24.812  56.130  1.00  0.00     0.121 A 
HETATM   25  H   UNL     1       7.786  24.412  58.066  1.00  0.00     0.164 HD
ENDBRANCH   2  17
TORSDOF 3
ENDMDL
MODEL 9
REMARK VINA RESULT:      -7.9      4.780     10.380
REMARK  3 active torsions:
REMARK  status: ('A' for Active; 'I' for Inactive)
REMARK    1  A    between atoms: C_4  and  C_5 
REMARK    2  A    between atoms: C_9  and  C_10 
REMARK       I    between atoms: C_10  and  N_11 
REMARK    3  A    between atoms: N_11  and  C_12 
ROOT
HETATM    1  C   UNL     1       7.255  31.336  59.022  1.00  0.00     0.276 C 
HETATM    2  N   UNL     1       7.656  30.077  58.629  1.00  0.00    -0.317 N 
HETATM    3  O   UNL     1       6.892  32.236  58.272  1.00  0.00    -0.266 OA
HETATM    4  H   UNL     1       7.940  29.458  59.392  1.00  0.00     0.169 HD
ENDROOT
BRANCH   1   5
HETATM    5  C   UNL     1       7.318  31.515  60.482  1.00  0.00     0.147 A 
HETATM    6  N   UNL     1       8.197  30.840  61.249  1.00  0.00    -0.169 NA
HETATM    7  N   UNL     1       7.940  31.276  62.494  1.00  0.00    -0.277 N 
HETATM    8  C   UNL     1       6.956  32.230  62.576  1.00  0.00     0.063 A 
HETATM    9  H   UNL     1       8.475  30.876  63.256  1.00  0.00     0.189 HD
HETATM   10  C   UNL     1       6.522  32.381  61.272  1.00  0.00     0.071 A 
BRANCH   8  11
HETATM   11  C   UNL     1       6.526  32.868  63.823  1.00  0.00    -0.008 A 
HETATM   12  C   UNL     1       7.453  33.355  64.758  1.00  0.00     0.014 A 
HETATM   13  C   UNL     1       7.025  33.970  65.939  1.00  0.00     0.001 A 
HETATM   14  C   UNL     1       5.664  34.112  66.200  1.00  0.00     0.000 A 
HETATM   15  C   UNL     1       4.732  33.639  65.282  1.00  0.00     0.001 A 
HETATM   16  C   UNL     1       5.160  33.022  64.103  1.00  0.00     0.014 A 
ENDBRANCH   8  11
ENDBRANCH   1   5
BRANCH   2  17
HETATM   17  C   UNL     1       7.753  29.556  57.360  1.00  0.00     0.102 A 
HETATM   18  C   UNL     1       6.562  28.761  56.867  1.00  0.00     0.218 A 
HETATM   19  O   UNL     1       5.579  28.625  57.594  1.00  0.00    -0.284 OA
HETATM   20  C   UNL     1       6.641  28.161  55.491  1.00  0.00     0.078 A 
HETATM   21 BR   UNL     1       5.218  27.155  54.844  1.00  0.00    -0.045 Br
HETATM   22  C   UNL     1       7.761  28.383  54.789  1.00  0.00     0.111 A 
HETATM   23  N   UNL     1       8.815  29.119  55.263  1.00  0.00    -0.372 N 
HETATM   24  C   UNL     1       8.791  29.675  56.517  1.00  0.00     0.121 A 
HETATM   25  H   UNL     1       9.643  29.245  54.685  1.00  0.00     0.164 HD
ENDBRANCH   2  17
TORSDOF 3
ENDMDL
MODEL 10
REMARK VINA RESULT:      -7.8      5.209     10.732
REMARK  3 active torsions:
REMARK  status: ('A' for Active; 'I' for Inactive)
REMARK    1  A    between atoms: C_4  and  C_5 
REMARK    2  A    between atoms: C_9  and  C_10 
REMARK       I    between atoms: C_10  and  N_11 
REMARK    3  A    between atoms: N_11  and  C_12 
ROOT
HETATM    1  C   UNL     1       5.846  32.333  59.250  1.00  0.00     0.276 C 
HETATM    2  N   UNL     1       6.454  31.097  59.210  1.00  0.00    -0.317 N 
HETATM    3  O   UNL     1       5.715  33.095  58.297  1.00  0.00    -0.266 OA
HETATM    4  H   UNL     1       6.485  30.604  60.106  1.00  0.00     0.169 HD
ENDROOT
BRANCH   1   5
HETATM    5  C   UNL     1       5.359  32.677  60.596  1.00  0.00     0.147 A 
HETATM    6  N   UNL     1       4.045  32.731  60.889  1.00  0.00    -0.169 NA
HETATM    7  N   UNL     1       4.019  33.070  62.189  1.00  0.00    -0.277 N 
HETATM    8  C   UNL     1       5.254  33.208  62.771  1.00  0.00     0.063 A 
HETATM    9  H   UNL     1       3.113  33.197  62.627  1.00  0.00     0.189 HD
HETATM   10  C   UNL     1       6.143  32.977  61.738  1.00  0.00     0.071 A 
BRANCH   8  11
HETATM   11  C   UNL     1       5.470  33.545  64.180  1.00  0.00    -0.008 A 
HETATM   12  C   UNL     1       4.397  33.791  65.051  1.00  0.00     0.014 A 
HETATM   13  C   UNL     1       4.621  34.103  66.396  1.00  0.00     0.001 A 
HETATM   14  C   UNL     1       5.921  34.169  66.892  1.00  0.00     0.000 A 
HETATM   15  C   UNL     1       6.996  33.924  66.044  1.00  0.00     0.001 A 
HETATM   16  C   UNL     1       6.772  33.614  64.699  1.00  0.00     0.014 A 
ENDBRANCH   8  11
ENDBRANCH   1   5
BRANCH   2  17
HETATM   17  C   UNL     1       7.045  30.456  58.146  1.00  0.00     0.102 A 
HETATM   18  C   UNL     1       8.556  30.373  58.166  1.00  0.00     0.218 A 
HETATM   19  O   UNL     1       9.179  30.857  59.111  1.00  0.00    -0.284 OA
HETATM   20  C   UNL     1       9.237  29.696  57.010  1.00  0.00     0.078 A 
HETATM   21 BR   UNL     1      11.092  29.587  56.970  1.00  0.00    -0.045 Br
HETATM   22  C   UNL     1       8.452  29.200  56.042  1.00  0.00     0.111 A 
HETATM   23  N   UNL     1       7.085  29.282  56.064  1.00  0.00    -0.372 N 
HETATM   24  C   UNL     1       6.422  29.902  57.093  1.00  0.00     0.121 A 
HETATM   25  H   UNL     1       6.545  28.894  55.294  1.00  0.00     0.164 HD
ENDBRANCH   2  17
TORSDOF 3
ENDMDL
