MODEL 1
REMARK VINA RESULT:      -9.7      0.000      0.000
REMARK  7 active torsions:
REMARK  status: ('A' for Active; 'I' for Inactive)
REMARK    1  A    between atoms: C_2  and  O_3 
REMARK    2  A    between atoms: O_3  and  C_4 
REMARK    3  A    between atoms: C_5  and  N_6 
REMARK       I    between atoms: N_6  and  C_7 
REMARK    4  A    between atoms: C_7  and  C_8 
REMARK    5  A    between atoms: C_8  and  N_9 
REMARK    6  A    between atoms: C_20  and  C_21 
REMARK       I    between atoms: C_21  and  N_22 
REMARK    7  A    between atoms: N_22  and  C_23 
ROOT
HETATM    1  N   UNL     1       6.613  27.522  54.269  1.00  0.00    -0.304 N 
HETATM    2  C   UNL     1       7.053  27.873  55.550  1.00  0.00     0.259 C 
HETATM    3  O   UNL     1       8.183  27.616  55.966  1.00  0.00    -0.270 OA
HETATM    4  C   UNL     1       5.963  28.526  56.420  1.00  0.00     0.141 C 
HETATM    5  C   UNL     1       4.953  27.459  56.875  1.00  0.00     0.057 C 
HETATM    6  C   UNL     1       6.605  29.154  57.663  1.00  0.00     0.057 C 
HETATM    7  O   UNL     1       5.265  29.580  55.757  1.00  0.00    -0.329 OA
HETATM    8  C   UNL     1       4.988  29.340  54.437  1.00  0.00     0.097 A 
HETATM    9  C   UNL     1       5.589  28.322  53.676  1.00  0.00     0.072 A 
HETATM   10  C   UNL     1       4.072  30.229  53.870  1.00  0.00     0.040 A 
HETATM   11  C   UNL     1       3.712  30.105  52.531  1.00  0.00     0.020 A 
HETATM   12  C   UNL     1       4.258  29.073  51.765  1.00  0.00     0.034 A 
HETATM   13  C   UNL     1       5.195  28.192  52.337  1.00  0.00     0.049 A 
ENDROOT
BRANCH   1  14
HETATM   14  C   UNL     1       7.505  26.671  53.486  1.00  0.00     0.235 C 
BRANCH  14  15
HETATM   15  C   UNL     1       7.090  25.186  53.524  1.00  0.00     0.240 C 
HETATM   16  N   UNL     1       8.175  24.344  53.354  1.00  0.00    -0.323 N 
HETATM   17  H   UNL     1       9.003  24.698  52.884  1.00  0.00     0.169 HD
HETATM   18  O   UNL     1       5.924  24.818  53.646  1.00  0.00    -0.271 OA
BRANCH  16  19
HETATM   19  C   UNL     1       8.267  22.990  53.737  1.00  0.00     0.068 A 
HETATM   20  C   UNL     1       8.726  22.709  55.038  1.00  0.00     0.095 A 
HETATM   21  C   UNL     1       8.707  21.396  55.517  1.00  0.00     0.039 A 
HETATM   22  C   UNL     1       8.264  20.360  54.693  1.00  0.00     0.003 A 
HETATM   23  C   UNL     1       7.842  20.633  53.393  1.00  0.00     0.002 A 
HETATM   24  C   UNL     1       7.843  21.945  52.914  1.00  0.00     0.032 A 
BRANCH  20  25
HETATM   25  O   UNL     1       9.152  23.789  55.780  1.00  0.00    -0.349 OA
BRANCH  25  26
HETATM   26  C   UNL     1       8.623  23.860  57.107  1.00  0.00     0.171 C 
HETATM   27  C   UNL     1       7.254  24.513  57.037  1.00  0.00     0.034 C 
ENDBRANCH  25  26
ENDBRANCH  20  25
ENDBRANCH  16  19
ENDBRANCH  14  15
ENDBRANCH   1  14
BRANCH  12  28
HETATM   28  C   UNL     1       3.924  28.904  50.324  1.00  0.00     0.252 C 
HETATM   29  N   UNL     1       3.655  27.620  49.900  1.00  0.00    -0.352 N 
HETATM   30  H   UNL     1       3.757  26.844  50.539  1.00  0.00     0.163 HD
HETATM   31  O   UNL     1       3.921  29.879  49.581  1.00  0.00    -0.268 OA
BRANCH  29  32
HETATM   32  C   UNL     1       3.277  27.338  48.532  1.00  0.00     0.084 C 
HETATM   33  C   UNL     1       3.414  25.862  48.179  1.00  0.00     0.025 C 
HETATM   34  C   UNL     1       2.578  25.739  46.916  1.00  0.00     0.002 C 
HETATM   35  C   UNL     1       1.376  26.643  47.166  1.00  0.00     0.002 C 
HETATM   36  C   UNL     1       1.802  27.638  48.248  1.00  0.00     0.025 C 
ENDBRANCH  29  32
ENDBRANCH  12  28
TORSDOF 7
ENDMDL
MODEL 2
REMARK VINA RESULT:      -9.3      4.617      9.426
REMARK  7 active torsions:
REMARK  status: ('A' for Active; 'I' for Inactive)
REMARK    1  A    between atoms: C_2  and  O_3 
REMARK    2  A    between atoms: O_3  and  C_4 
REMARK    3  A    between atoms: C_5  and  N_6 
REMARK       I    between atoms: N_6  and  C_7 
REMARK    4  A    between atoms: C_7  and  C_8 
REMARK    5  A    between atoms: C_8  and  N_9 
REMARK    6  A    between atoms: C_20  and  C_21 
REMARK       I    between atoms: C_21  and  N_22 
REMARK    7  A    between atoms: N_22  and  C_23 
ROOT
HETATM    1  N   UNL     1       6.513  30.489  57.893  1.00  0.00    -0.304 N 
HETATM    2  C   UNL     1       5.650  31.551  57.601  1.00  0.00     0.259 C 
HETATM    3  O   UNL     1       6.032  32.717  57.496  1.00  0.00    -0.270 OA
HETATM    4  C   UNL     1       4.169  31.139  57.514  1.00  0.00     0.141 C 
HETATM    5  C   UNL     1       3.624  30.862  58.925  1.00  0.00     0.057 C 
HETATM    6  C   UNL     1       3.354  32.277  56.888  1.00  0.00     0.057 C 
HETATM    7  O   UNL     1       3.948  29.992  56.693  1.00  0.00    -0.329 OA
HETATM    8  C   UNL     1       4.892  29.008  56.819  1.00  0.00     0.097 A 
HETATM    9  C   UNL     1       6.145  29.188  57.433  1.00  0.00     0.072 A 
HETATM   10  C   UNL     1       4.533  27.787  56.241  1.00  0.00     0.040 A 
HETATM   11  C   UNL     1       5.408  26.706  56.287  1.00  0.00     0.020 A 
HETATM   12  C   UNL     1       6.639  26.845  56.933  1.00  0.00     0.034 A 
HETATM   13  C   UNL     1       7.003  28.082  57.496  1.00  0.00     0.049 A 
ENDROOT
BRANCH   1  14
HETATM   14  C   UNL     1       7.885  30.844  58.246  1.00  0.00     0.235 C 
BRANCH  14  15
HETATM   15  C   UNL     1       8.089  30.977  59.769  1.00  0.00     0.240 C 
HETATM   16  N   UNL     1       7.794  32.252  60.218  1.00  0.00    -0.323 N 
HETATM   17  H   UNL     1       7.837  33.026  59.562  1.00  0.00     0.169 HD
HETATM   18  O   UNL     1       8.508  30.060  60.472  1.00  0.00    -0.271 OA
BRANCH  16  19
HETATM   19  C   UNL     1       7.461  32.632  61.534  1.00  0.00     0.068 A 
HETATM   20  C   UNL     1       6.159  33.115  61.764  1.00  0.00     0.095 A 
HETATM   21  C   UNL     1       5.731  33.376  63.069  1.00  0.00     0.039 A 
HETATM   22  C   UNL     1       6.606  33.188  64.140  1.00  0.00     0.003 A 
HETATM   23  C   UNL     1       7.906  32.742  63.910  1.00  0.00     0.002 A 
HETATM   24  C   UNL     1       8.334  32.464  62.610  1.00  0.00     0.032 A 
BRANCH  20  25
HETATM   25  O   UNL     1       5.365  33.279  60.651  1.00  0.00    -0.349 OA
BRANCH  25  26
HETATM   26  C   UNL     1       4.281  34.198  60.809  1.00  0.00     0.171 C 
HETATM   27  C   UNL     1       3.993  34.827  59.458  1.00  0.00     0.034 C 
ENDBRANCH  25  26
ENDBRANCH  20  25
ENDBRANCH  16  19
ENDBRANCH  14  15
ENDBRANCH   1  14
BRANCH  12  28
HETATM   28  C   UNL     1       7.621  25.727  56.996  1.00  0.00     0.252 C 
HETATM   29  N   UNL     1       7.507  24.751  56.029  1.00  0.00    -0.352 N 
HETATM   30  H   UNL     1       6.743  24.779  55.368  1.00  0.00     0.163 HD
HETATM   31  O   UNL     1       8.458  25.702  57.891  1.00  0.00    -0.268 OA
BRANCH  29  32
HETATM   32  C   UNL     1       8.431  23.639  55.964  1.00  0.00     0.084 C 
HETATM   33  C   UNL     1       7.951  22.432  56.762  1.00  0.00     0.025 C 
HETATM   34  C   UNL     1       8.802  21.303  56.208  1.00  0.00     0.002 C 
HETATM   35  C   UNL     1       8.895  21.593  54.713  1.00  0.00     0.002 C 
HETATM   36  C   UNL     1       8.598  23.086  54.546  1.00  0.00     0.025 C 
ENDBRANCH  29  32
ENDBRANCH  12  28
TORSDOF 7
ENDMDL
MODEL 3
REMARK VINA RESULT:      -9.2      3.284      7.812
REMARK  7 active torsions:
REMARK  status: ('A' for Active; 'I' for Inactive)
REMARK    1  A    between atoms: C_2  and  O_3 
REMARK    2  A    between atoms: O_3  and  C_4 
REMARK    3  A    between atoms: C_5  and  N_6 
REMARK       I    between atoms: N_6  and  C_7 
REMARK    4  A    between atoms: C_7  and  C_8 
REMARK    5  A    between atoms: C_8  and  N_9 
REMARK    6  A    between atoms: C_20  and  C_21 
REMARK       I    between atoms: C_21  and  N_22 
REMARK    7  A    between atoms: N_22  and  C_23 
ROOT
HETATM    1  N   UNL     1       6.412  29.329  55.814  1.00  0.00    -0.304 N 
HETATM    2  C   UNL     1       5.574  30.450  55.836  1.00  0.00     0.259 C 
HETATM    3  O   UNL     1       5.986  31.592  56.038  1.00  0.00    -0.270 OA
HETATM    4  C   UNL     1       4.081  30.109  55.676  1.00  0.00     0.141 C 
HETATM    5  C   UNL     1       3.551  29.477  56.974  1.00  0.00     0.057 C 
HETATM    6  C   UNL     1       3.288  31.391  55.396  1.00  0.00     0.057 C 
HETATM    7  O   UNL     1       3.815  29.229  54.583  1.00  0.00    -0.329 OA
HETATM    8  C   UNL     1       4.734  28.227  54.420  1.00  0.00     0.097 A 
HETATM    9  C   UNL     1       6.001  28.208  55.031  1.00  0.00     0.072 A 
HETATM   10  C   UNL     1       4.332  27.214  53.546  1.00  0.00     0.040 A 
HETATM   11  C   UNL     1       5.177  26.140  53.282  1.00  0.00     0.020 A 
HETATM   12  C   UNL     1       6.422  26.073  53.912  1.00  0.00     0.034 A 
HETATM   13  C   UNL     1       6.829  27.106  54.778  1.00  0.00     0.049 A 
ENDROOT
BRANCH   1  14
HETATM   14  C   UNL     1       7.798  29.546  56.218  1.00  0.00     0.235 C 
BRANCH  14  15
HETATM   15  C   UNL     1       7.993  29.449  57.745  1.00  0.00     0.240 C 
HETATM   16  N   UNL     1       8.397  30.655  58.290  1.00  0.00    -0.323 N 
HETATM   17  H   UNL     1       8.861  31.333  57.693  1.00  0.00     0.169 HD
HETATM   18  O   UNL     1       7.845  28.403  58.374  1.00  0.00    -0.271 OA
BRANCH  16  19
HETATM   19  C   UNL     1       8.271  31.063  59.633  1.00  0.00     0.068 A 
HETATM   20  C   UNL     1       7.229  31.957  59.948  1.00  0.00     0.095 A 
HETATM   21  C   UNL     1       6.972  32.288  61.282  1.00  0.00     0.039 A 
HETATM   22  C   UNL     1       7.769  31.757  62.298  1.00  0.00     0.003 A 
HETATM   23  C   UNL     1       8.822  30.899  61.984  1.00  0.00     0.002 A 
HETATM   24  C   UNL     1       9.073  30.551  60.654  1.00  0.00     0.032 A 
BRANCH  20  25
HETATM   25  O   UNL     1       6.498  32.439  58.885  1.00  0.00    -0.349 OA
BRANCH  25  26
HETATM   26  C   UNL     1       5.093  32.560  59.121  1.00  0.00     0.171 C 
HETATM   27  C   UNL     1       4.606  33.828  58.442  1.00  0.00     0.034 C 
ENDBRANCH  25  26
ENDBRANCH  20  25
ENDBRANCH  16  19
ENDBRANCH  14  15
ENDBRANCH   1  14
BRANCH  12  28
HETATM   28  C   UNL     1       7.374  24.958  53.652  1.00  0.00     0.252 C 
HETATM   29  N   UNL     1       7.240  23.837  54.444  1.00  0.00    -0.352 N 
HETATM   30  H   UNL     1       6.571  23.828  55.201  1.00  0.00     0.163 HD
HETATM   31  O   UNL     1       8.232  25.079  52.786  1.00  0.00    -0.268 OA
BRANCH  29  32
HETATM   32  C   UNL     1       8.081  22.674  54.256  1.00  0.00     0.084 C 
HETATM   33  C   UNL     1       7.818  21.589  55.294  1.00  0.00     0.025 C 
HETATM   34  C   UNL     1       8.450  20.360  54.661  1.00  0.00     0.002 C 
HETATM   35  C   UNL     1       8.121  20.484  53.177  1.00  0.00     0.002 C 
HETATM   36  C   UNL     1       7.825  21.964  52.924  1.00  0.00     0.025 C 
ENDBRANCH  29  32
ENDBRANCH  12  28
TORSDOF 7
ENDMDL
MODEL 4
REMARK VINA RESULT:      -9.0      6.863     11.380
REMARK  7 active torsions:
REMARK  status: ('A' for Active; 'I' for Inactive)
REMARK    1  A    between atoms: C_2  and  O_3 
REMARK    2  A    between atoms: O_3  and  C_4 
REMARK    3  A    between atoms: C_5  and  N_6 
REMARK       I    between atoms: N_6  and  C_7 
REMARK    4  A    between atoms: C_7  and  C_8 
REMARK    5  A    between atoms: C_8  and  N_9 
REMARK    6  A    between atoms: C_20  and  C_21 
REMARK       I    between atoms: C_21  and  N_22 
REMARK    7  A    between atoms: N_22  and  C_23 
ROOT
HETATM    1  N   UNL     1       4.356  33.130  62.293  1.00  0.00    -0.304 N 
HETATM    2  C   UNL     1       3.586  33.804  63.247  1.00  0.00     0.259 C 
HETATM    3  O   UNL     1       2.368  33.654  63.354  1.00  0.00    -0.270 OA
HETATM    4  C   UNL     1       4.387  34.816  64.086  1.00  0.00     0.141 C 
HETATM    5  C   UNL     1       4.717  36.053  63.232  1.00  0.00     0.057 C 
HETATM    6  C   UNL     1       3.550  35.263  65.290  1.00  0.00     0.057 C 
HETATM    7  O   UNL     1       5.597  34.278  64.619  1.00  0.00    -0.329 OA
HETATM    8  C   UNL     1       6.280  33.454  63.765  1.00  0.00     0.097 A 
HETATM    9  C   UNL     1       5.733  32.899  62.594  1.00  0.00     0.072 A 
HETATM   10  C   UNL     1       7.585  33.158  64.170  1.00  0.00     0.040 A 
HETATM   11  C   UNL     1       8.385  32.320  63.399  1.00  0.00     0.020 A 
HETATM   12  C   UNL     1       7.881  31.794  62.207  1.00  0.00     0.034 A 
HETATM   13  C   UNL     1       6.561  32.080  61.813  1.00  0.00     0.049 A 
ENDROOT
BRANCH   1  14
HETATM   14  C   UNL     1       3.624  32.354  61.295  1.00  0.00     0.235 C 
BRANCH  14  15
HETATM   15  C   UNL     1       3.408  33.133  59.982  1.00  0.00     0.240 C 
HETATM   16  N   UNL     1       4.584  33.273  59.267  1.00  0.00    -0.323 N 
HETATM   17  H   UNL     1       5.469  33.213  59.761  1.00  0.00     0.169 HD
HETATM   18  O   UNL     1       2.321  33.603  59.652  1.00  0.00    -0.271 OA
BRANCH  16  19
HETATM   19  C   UNL     1       4.713  33.532  57.887  1.00  0.00     0.068 A 
HETATM   20  C   UNL     1       4.901  32.431  57.030  1.00  0.00     0.095 A 
HETATM   21  C   UNL     1       4.897  32.615  55.644  1.00  0.00     0.039 A 
HETATM   22  C   UNL     1       4.740  33.896  55.112  1.00  0.00     0.003 A 
HETATM   23  C   UNL     1       4.588  34.991  55.961  1.00  0.00     0.002 A 
HETATM   24  C   UNL     1       4.574  34.811  57.346  1.00  0.00     0.032 A 
BRANCH  20  25
HETATM   25  O   UNL     1       5.056  31.205  57.639  1.00  0.00    -0.349 OA
BRANCH  25  26
HETATM   26  C   UNL     1       4.130  30.199  57.221  1.00  0.00     0.171 C 
HETATM   27  C   UNL     1       4.923  28.990  56.757  1.00  0.00     0.034 C 
ENDBRANCH  25  26
ENDBRANCH  20  25
ENDBRANCH  16  19
ENDBRANCH  14  15
ENDBRANCH   1  14
BRANCH  12  28
HETATM   28  C   UNL     1       8.686  30.877  61.352  1.00  0.00     0.252 C 
HETATM   29  N   UNL     1       8.538  31.018  59.989  1.00  0.00    -0.352 N 
HETATM   30  H   UNL     1       7.859  31.668  59.617  1.00  0.00     0.163 HD
HETATM   31  O   UNL     1       9.414  30.040  61.873  1.00  0.00    -0.268 OA
BRANCH  29  32
HETATM   32  C   UNL     1       9.300  30.213  59.058  1.00  0.00     0.084 C 
HETATM   33  C   UNL     1       8.414  29.489  58.050  1.00  0.00     0.025 C 
HETATM   34  C   UNL     1       9.397  29.097  56.961  1.00  0.00     0.002 C 
HETATM   35  C   UNL     1      10.340  30.290  56.850  1.00  0.00     0.002 C 
HETATM   36  C   UNL     1      10.236  31.045  58.177  1.00  0.00     0.025 C 
ENDBRANCH  29  32
ENDBRANCH  12  28
TORSDOF 7
ENDMDL
MODEL 5
REMARK VINA RESULT:      -8.9      7.579     12.226
REMARK  7 active torsions:
REMARK  status: ('A' for Active; 'I' for Inactive)
REMARK    1  A    between atoms: C_2  and  O_3 
REMARK    2  A    between atoms: O_3  and  C_4 
REMARK    3  A    between atoms: C_5  and  N_6 
REMARK       I    between atoms: N_6  and  C_7 
REMARK    4  A    between atoms: C_7  and  C_8 
REMARK    5  A    between atoms: C_8  and  N_9 
REMARK    6  A    between atoms: C_20  and  C_21 
REMARK       I    between atoms: C_21  and  N_22 
REMARK    7  A    between atoms: N_22  and  C_23 
ROOT
HETATM    1  N   UNL     1       4.276  33.303  62.525  1.00  0.00    -0.304 N 
HETATM    2  C   UNL     1       3.610  34.018  63.527  1.00  0.00     0.259 C 
HETATM    3  O   UNL     1       2.395  33.945  63.709  1.00  0.00    -0.270 OA
HETATM    4  C   UNL     1       4.524  34.974  64.316  1.00  0.00     0.141 C 
HETATM    5  C   UNL     1       4.877  36.192  63.446  1.00  0.00     0.057 C 
HETATM    6  C   UNL     1       3.794  35.464  65.571  1.00  0.00     0.057 C 
HETATM    7  O   UNL     1       5.729  34.358  64.771  1.00  0.00    -0.329 OA
HETATM    8  C   UNL     1       6.305  33.497  63.875  1.00  0.00     0.097 A 
HETATM    9  C   UNL     1       5.652  32.984  62.739  1.00  0.00     0.072 A 
HETATM   10  C   UNL     1       7.610  33.117  64.197  1.00  0.00     0.040 A 
HETATM   11  C   UNL     1       8.306  32.236  63.376  1.00  0.00     0.020 A 
HETATM   12  C   UNL     1       7.698  31.749  62.217  1.00  0.00     0.034 A 
HETATM   13  C   UNL     1       6.376  32.120  61.907  1.00  0.00     0.049 A 
ENDROOT
BRANCH   1  14
HETATM   14  C   UNL     1       3.436  32.581  61.574  1.00  0.00     0.235 C 
BRANCH  14  15
HETATM   15  C   UNL     1       3.093  33.423  60.328  1.00  0.00     0.240 C 
HETATM   16  N   UNL     1       4.227  33.936  59.725  1.00  0.00    -0.323 N 
HETATM   17  H   UNL     1       5.071  34.046  60.280  1.00  0.00     0.169 HD
HETATM   18  O   UNL     1       1.940  33.638  59.961  1.00  0.00    -0.271 OA
BRANCH  16  19
HETATM   19  C   UNL     1       4.355  34.374  58.391  1.00  0.00     0.068 A 
HETATM   20  C   UNL     1       4.244  35.756  58.145  1.00  0.00     0.095 A 
HETATM   21  C   UNL     1       4.498  36.261  56.866  1.00  0.00     0.039 A 
HETATM   22  C   UNL     1       4.830  35.390  55.827  1.00  0.00     0.003 A 
HETATM   23  C   UNL     1       4.907  34.018  56.063  1.00  0.00     0.002 A 
HETATM   24  C   UNL     1       4.671  33.510  57.342  1.00  0.00     0.032 A 
BRANCH  20  25
HETATM   25  O   UNL     1       3.904  36.541  59.224  1.00  0.00    -0.349 OA
BRANCH  25  26
HETATM   26  C   UNL     1       4.149  37.941  59.058  1.00  0.00     0.171 C 
HETATM   27  C   UNL     1       5.060  38.399  60.182  1.00  0.00     0.034 C 
ENDBRANCH  25  26
ENDBRANCH  20  25
ENDBRANCH  16  19
ENDBRANCH  14  15
ENDBRANCH   1  14
BRANCH  12  28
HETATM   28  C   UNL     1       8.389  30.789  61.312  1.00  0.00     0.252 C 
HETATM   29  N   UNL     1       7.850  30.634  60.052  1.00  0.00    -0.352 N 
HETATM   30  H   UNL     1       6.990  31.104  59.807  1.00  0.00     0.163 HD
HETATM   31  O   UNL     1       9.369  30.172  61.712  1.00  0.00    -0.268 OA
BRANCH  29  32
HETATM   32  C   UNL     1       8.460  29.761  59.072  1.00  0.00     0.084 C 
HETATM   33  C   UNL     1       7.484  29.336  57.980  1.00  0.00     0.025 C 
HETATM   34  C   UNL     1       8.406  28.829  56.884  1.00  0.00     0.002 C 
HETATM   35  C   UNL     1       9.589  29.791  56.907  1.00  0.00     0.002 C 
HETATM   36  C   UNL     1       9.593  30.437  58.295  1.00  0.00     0.025 C 
ENDBRANCH  29  32
ENDBRANCH  12  28
TORSDOF 7
ENDMDL
MODEL 6
REMARK VINA RESULT:      -8.7      2.721      6.372
REMARK  7 active torsions:
REMARK  status: ('A' for Active; 'I' for Inactive)
REMARK    1  A    between atoms: C_2  and  O_3 
REMARK    2  A    between atoms: O_3  and  C_4 
REMARK    3  A    between atoms: C_5  and  N_6 
REMARK       I    between atoms: N_6  and  C_7 
REMARK    4  A    between atoms: C_7  and  C_8 
REMARK    5  A    between atoms: C_8  and  N_9 
REMARK    6  A    between atoms: C_20  and  C_21 
REMARK       I    between atoms: C_21  and  N_22 
REMARK    7  A    between atoms: N_22  and  C_23 
ROOT
HETATM    1  N   UNL     1       8.350  24.197  56.012  1.00  0.00    -0.304 N 
HETATM    2  C   UNL     1       8.285  22.850  56.384  1.00  0.00     0.259 C 
HETATM    3  O   UNL     1       8.349  22.474  57.555  1.00  0.00    -0.270 OA
HETATM    4  C   UNL     1       8.218  21.881  55.190  1.00  0.00     0.141 C 
HETATM    5  C   UNL     1       9.595  21.800  54.509  1.00  0.00     0.057 C 
HETATM    6  C   UNL     1       7.834  20.481  55.684  1.00  0.00     0.057 C 
HETATM    7  O   UNL     1       7.236  22.244  54.219  1.00  0.00    -0.329 OA
HETATM    8  C   UNL     1       7.145  23.588  53.974  1.00  0.00     0.097 A 
HETATM    9  C   UNL     1       7.706  24.582  54.796  1.00  0.00     0.072 A 
HETATM   10  C   UNL     1       6.399  23.918  52.839  1.00  0.00     0.040 A 
HETATM   11  C   UNL     1       6.218  25.250  52.483  1.00  0.00     0.020 A 
HETATM   12  C   UNL     1       6.804  26.255  53.255  1.00  0.00     0.034 A 
HETATM   13  C   UNL     1       7.539  25.919  54.407  1.00  0.00     0.049 A 
ENDROOT
BRANCH   1  14
HETATM   14  C   UNL     1       8.675  25.150  57.070  1.00  0.00     0.235 C 
BRANCH  14  15
HETATM   15  C   UNL     1       7.466  26.014  57.480  1.00  0.00     0.240 C 
HETATM   16  N   UNL     1       7.802  27.353  57.583  1.00  0.00    -0.323 N 
HETATM   17  H   UNL     1       8.771  27.604  57.749  1.00  0.00     0.169 HD
HETATM   18  O   UNL     1       6.357  25.544  57.725  1.00  0.00    -0.271 OA
BRANCH  16  19
HETATM   19  C   UNL     1       6.925  28.455  57.519  1.00  0.00     0.068 A 
HETATM   20  C   UNL     1       7.315  29.638  58.176  1.00  0.00     0.095 A 
HETATM   21  C   UNL     1       6.553  30.801  58.030  1.00  0.00     0.039 A 
HETATM   22  C   UNL     1       5.389  30.780  57.261  1.00  0.00     0.003 A 
HETATM   23  C   UNL     1       4.984  29.600  56.638  1.00  0.00     0.002 A 
HETATM   24  C   UNL     1       5.750  28.439  56.766  1.00  0.00     0.032 A 
BRANCH  20  25
HETATM   25  O   UNL     1       8.471  29.568  58.920  1.00  0.00    -0.349 OA
BRANCH  25  26
HETATM   26  C   UNL     1       9.442  30.578  58.629  1.00  0.00     0.171 C 
HETATM   27  C   UNL     1      10.344  30.063  57.522  1.00  0.00     0.034 C 
ENDBRANCH  25  26
ENDBRANCH  20  25
ENDBRANCH  16  19
ENDBRANCH  14  15
ENDBRANCH   1  14
BRANCH  12  28
HETATM   28  C   UNL     1       6.628  27.698  52.931  1.00  0.00     0.252 C 
HETATM   29  N   UNL     1       5.684  28.003  51.974  1.00  0.00    -0.352 N 
HETATM   30  H   UNL     1       5.202  27.263  51.483  1.00  0.00     0.163 HD
HETATM   31  O   UNL     1       7.322  28.538  53.492  1.00  0.00    -0.268 OA
BRANCH  29  32
HETATM   32  C   UNL     1       5.395  29.373  51.607  1.00  0.00     0.084 C 
HETATM   33  C   UNL     1       5.615  29.639  50.122  1.00  0.00     0.025 C 
HETATM   34  C   UNL     1       4.857  30.936  49.898  1.00  0.00     0.002 C 
HETATM   35  C   UNL     1       3.604  30.800  50.757  1.00  0.00     0.002 C 
HETATM   36  C   UNL     1       3.927  29.750  51.824  1.00  0.00     0.025 C 
ENDBRANCH  29  32
ENDBRANCH  12  28
TORSDOF 7
ENDMDL
MODEL 7
REMARK VINA RESULT:      -8.6      7.245     12.350
REMARK  7 active torsions:
REMARK  status: ('A' for Active; 'I' for Inactive)
REMARK    1  A    between atoms: C_2  and  O_3 
REMARK    2  A    between atoms: O_3  and  C_4 
REMARK    3  A    between atoms: C_5  and  N_6 
REMARK       I    between atoms: N_6  and  C_7 
REMARK    4  A    between atoms: C_7  and  C_8 
REMARK    5  A    between atoms: C_8  and  N_9 
REMARK    6  A    between atoms: C_20  and  C_21 
REMARK       I    between atoms: C_21  and  N_22 
REMARK    7  A    between atoms: N_22  and  C_23 
ROOT
HETATM    1  N   UNL     1       4.385  33.719  62.711  1.00  0.00    -0.304 N 
HETATM    2  C   UNL     1       3.861  33.904  63.995  1.00  0.00     0.259 C 
HETATM    3  O   UNL     1       2.664  33.784  64.256  1.00  0.00    -0.270 OA
HETATM    4  C   UNL     1       4.907  34.362  65.029  1.00  0.00     0.141 C 
HETATM    5  C   UNL     1       5.272  35.835  64.782  1.00  0.00     0.057 C 
HETATM    6  C   UNL     1       4.324  34.232  66.442  1.00  0.00     0.057 C 
HETATM    7  O   UNL     1       6.099  33.575  65.016  1.00  0.00    -0.329 OA
HETATM    8  C   UNL     1       6.531  33.214  63.768  1.00  0.00     0.097 A 
HETATM    9  C   UNL     1       5.747  33.303  62.603  1.00  0.00     0.072 A 
HETATM   10  C   UNL     1       7.828  32.696  63.735  1.00  0.00     0.040 A 
HETATM   11  C   UNL     1       8.385  32.279  62.530  1.00  0.00     0.020 A 
HETATM   12  C   UNL     1       7.646  32.401  61.352  1.00  0.00     0.034 A 
HETATM   13  C   UNL     1       6.333  32.905  61.393  1.00  0.00     0.049 A 
ENDROOT
BRANCH   1  14
HETATM   14  C   UNL     1       3.417  33.541  61.633  1.00  0.00     0.235 C 
BRANCH  14  15
HETATM   15  C   UNL     1       3.113  34.857  60.887  1.00  0.00     0.240 C 
HETATM   16  N   UNL     1       3.829  34.956  59.707  1.00  0.00    -0.323 N 
HETATM   17  H   UNL     1       4.687  34.423  59.607  1.00  0.00     0.169 HD
HETATM   18  O   UNL     1       2.357  35.719  61.329  1.00  0.00    -0.271 OA
BRANCH  16  19
HETATM   19  C   UNL     1       3.521  35.764  58.594  1.00  0.00     0.068 A 
HETATM   20  C   UNL     1       2.892  35.148  57.495  1.00  0.00     0.095 A 
HETATM   21  C   UNL     1       2.441  35.925  56.423  1.00  0.00     0.039 A 
HETATM   22  C   UNL     1       2.644  37.306  56.429  1.00  0.00     0.003 A 
HETATM   23  C   UNL     1       3.298  37.911  57.501  1.00  0.00     0.002 A 
HETATM   24  C   UNL     1       3.735  37.143  58.582  1.00  0.00     0.032 A 
BRANCH  20  25
HETATM   25  O   UNL     1       2.739  33.782  57.568  1.00  0.00    -0.349 OA
BRANCH  25  26
HETATM   26  C   UNL     1       3.303  33.049  56.477  1.00  0.00     0.171 C 
HETATM   27  C   UNL     1       4.776  32.822  56.771  1.00  0.00     0.034 C 
ENDBRANCH  25  26
ENDBRANCH  20  25
ENDBRANCH  16  19
ENDBRANCH  14  15
ENDBRANCH   1  14
BRANCH  12  28
HETATM   28  C   UNL     1       8.185  31.953  60.037  1.00  0.00     0.252 C 
HETATM   29  N   UNL     1       7.750  30.728  59.578  1.00  0.00    -0.352 N 
HETATM   30  H   UNL     1       7.154  30.153  60.157  1.00  0.00     0.163 HD
HETATM   31  O   UNL     1       8.990  32.657  59.437  1.00  0.00    -0.268 OA
BRANCH  29  32
HETATM   32  C   UNL     1       8.173  30.208  58.296  1.00  0.00     0.084 C 
HETATM   33  C   UNL     1       9.684  30.023  58.208  1.00  0.00     0.025 C 
HETATM   34  C   UNL     1       9.840  29.095  57.016  1.00  0.00     0.002 C 
HETATM   35  C   UNL     1       8.676  28.116  57.139  1.00  0.00     0.002 C 
HETATM   36  C   UNL     1       7.625  28.806  58.012  1.00  0.00     0.025 C 
ENDBRANCH  29  32
ENDBRANCH  12  28
TORSDOF 7
ENDMDL
MODEL 8
REMARK VINA RESULT:      -8.6      1.843      7.276
REMARK  7 active torsions:
REMARK  status: ('A' for Active; 'I' for Inactive)
REMARK    1  A    between atoms: C_2  and  O_3 
REMARK    2  A    between atoms: O_3  and  C_4 
REMARK    3  A    between atoms: C_5  and  N_6 
REMARK       I    between atoms: N_6  and  C_7 
REMARK    4  A    between atoms: C_7  and  C_8 
REMARK    5  A    between atoms: C_8  and  N_9 
REMARK    6  A    between atoms: C_20  and  C_21 
REMARK       I    between atoms: C_21  and  N_22 
REMARK    7  A    between atoms: N_22  and  C_23 
ROOT
HETATM    1  N   UNL     1       6.553  24.078  54.125  1.00  0.00    -0.304 N 
HETATM    2  C   UNL     1       7.522  23.098  53.880  1.00  0.00     0.259 C 
HETATM    3  O   UNL     1       7.679  22.570  52.779  1.00  0.00    -0.270 OA
HETATM    4  C   UNL     1       8.306  22.677  55.136  1.00  0.00     0.141 C 
HETATM    5  C   UNL     1       7.414  21.809  56.039  1.00  0.00     0.057 C 
HETATM    6  C   UNL     1       9.533  21.854  54.724  1.00  0.00     0.057 C 
HETATM    7  O   UNL     1       8.804  23.782  55.891  1.00  0.00    -0.329 OA
HETATM    8  C   UNL     1       7.942  24.842  55.985  1.00  0.00     0.097 A 
HETATM    9  C   UNL     1       6.806  25.013  55.174  1.00  0.00     0.072 A 
HETATM   10  C   UNL     1       8.302  25.794  56.943  1.00  0.00     0.040 A 
HETATM   11  C   UNL     1       7.519  26.928  57.133  1.00  0.00     0.020 A 
HETATM   12  C   UNL     1       6.360  27.099  56.373  1.00  0.00     0.034 A 
HETATM   13  C   UNL     1       6.011  26.147  55.397  1.00  0.00     0.049 A 
ENDROOT
BRANCH   1  14
HETATM   14  C   UNL     1       5.602  24.336  53.047  1.00  0.00     0.235 C 
BRANCH  14  15
HETATM   15  C   UNL     1       6.119  25.384  52.040  1.00  0.00     0.240 C 
HETATM   16  N   UNL     1       5.085  26.109  51.476  1.00  0.00    -0.323 N 
HETATM   17  H   UNL     1       4.154  25.705  51.458  1.00  0.00     0.169 HD
HETATM   18  O   UNL     1       7.308  25.510  51.754  1.00  0.00    -0.271 OA
BRANCH  16  19
HETATM   19  C   UNL     1       5.172  27.378  50.867  1.00  0.00     0.068 A 
HETATM   20  C   UNL     1       4.843  27.470  49.501  1.00  0.00     0.095 A 
HETATM   21  C   UNL     1       4.779  28.722  48.881  1.00  0.00     0.039 A 
HETATM   22  C   UNL     1       5.072  29.876  49.609  1.00  0.00     0.003 A 
HETATM   23  C   UNL     1       5.431  29.782  50.953  1.00  0.00     0.002 A 
HETATM   24  C   UNL     1       5.480  28.536  51.582  1.00  0.00     0.032 A 
BRANCH  20  25
HETATM   25  O   UNL     1       4.576  26.283  48.858  1.00  0.00    -0.349 OA
BRANCH  25  26
HETATM   26  C   UNL     1       3.828  26.404  47.645  1.00  0.00     0.171 C 
HETATM   27  C   UNL     1       2.967  25.163  47.493  1.00  0.00     0.034 C 
ENDBRANCH  25  26
ENDBRANCH  20  25
ENDBRANCH  16  19
ENDBRANCH  14  15
ENDBRANCH   1  14
BRANCH  12  28
HETATM   28  C   UNL     1       5.494  28.302  56.521  1.00  0.00     0.252 C 
HETATM   29  N   UNL     1       5.057  28.893  55.355  1.00  0.00    -0.352 N 
HETATM   30  H   UNL     1       5.379  28.550  54.461  1.00  0.00     0.163 HD
HETATM   31  O   UNL     1       5.227  28.726  57.640  1.00  0.00    -0.268 OA
BRANCH  29  32
HETATM   32  C   UNL     1       4.177  30.042  55.374  1.00  0.00     0.084 C 
HETATM   33  C   UNL     1       4.929  31.351  55.587  1.00  0.00     0.025 C 
HETATM   34  C   UNL     1       3.920  32.394  55.139  1.00  0.00     0.002 C 
HETATM   35  C   UNL     1       3.239  31.770  53.925  1.00  0.00     0.002 C 
HETATM   36  C   UNL     1       3.453  30.259  54.042  1.00  0.00     0.025 C 
ENDBRANCH  29  32
ENDBRANCH  12  28
TORSDOF 7
ENDMDL
MODEL 9
REMARK VINA RESULT:      -8.6      1.850      7.575
REMARK  7 active torsions:
REMARK  status: ('A' for Active; 'I' for Inactive)
REMARK    1  A    between atoms: C_2  and  O_3 
REMARK    2  A    between atoms: O_3  and  C_4 
REMARK    3  A    between atoms: C_5  and  N_6 
REMARK       I    between atoms: N_6  and  C_7 
REMARK    4  A    between atoms: C_7  and  C_8 
REMARK    5  A    between atoms: C_8  and  N_9 
REMARK    6  A    between atoms: C_20  and  C_21 
REMARK       I    between atoms: C_21  and  N_22 
REMARK    7  A    between atoms: N_22  and  C_23 
ROOT
HETATM    1  N   UNL     1       7.988  23.709  53.970  1.00  0.00    -0.304 N 
HETATM    2  C   UNL     1       8.593  22.451  54.068  1.00  0.00     0.259 C 
HETATM    3  O   UNL     1       9.086  21.866  53.103  1.00  0.00    -0.270 OA
HETATM    4  C   UNL     1       8.503  21.830  55.474  1.00  0.00     0.141 C 
HETATM    5  C   UNL     1       7.067  21.346  55.737  1.00  0.00     0.057 C 
HETATM    6  C   UNL     1       9.449  20.627  55.566  1.00  0.00     0.057 C 
HETATM    7  O   UNL     1       8.895  22.725  56.515  1.00  0.00    -0.329 OA
HETATM    8  C   UNL     1       8.474  24.017  56.346  1.00  0.00     0.097 A 
HETATM    9  C   UNL     1       7.984  24.537  55.134  1.00  0.00     0.072 A 
HETATM   10  C   UNL     1       8.608  24.821  57.481  1.00  0.00     0.040 A 
HETATM   11  C   UNL     1       8.229  26.159  57.441  1.00  0.00     0.020 A 
HETATM   12  C   UNL     1       7.695  26.688  56.264  1.00  0.00     0.034 A 
HETATM   13  C   UNL     1       7.580  25.879  55.117  1.00  0.00     0.049 A 
ENDROOT
BRANCH   1  14
HETATM   14  C   UNL     1       7.805  24.239  52.622  1.00  0.00     0.235 C 
BRANCH  14  15
HETATM   15  C   UNL     1       6.412  24.869  52.417  1.00  0.00     0.240 C 
HETATM   16  N   UNL     1       6.478  26.031  51.669  1.00  0.00    -0.323 N 
HETATM   17  H   UNL     1       7.353  26.547  51.637  1.00  0.00     0.169 HD
HETATM   18  O   UNL     1       5.387  24.402  52.907  1.00  0.00    -0.271 OA
BRANCH  16  19
HETATM   19  C   UNL     1       5.430  26.633  50.941  1.00  0.00     0.068 A 
HETATM   20  C   UNL     1       5.033  27.929  51.322  1.00  0.00     0.095 A 
HETATM   21  C   UNL     1       4.096  28.626  50.552  1.00  0.00     0.039 A 
HETATM   22  C   UNL     1       3.533  28.024  49.426  1.00  0.00     0.003 A 
HETATM   23  C   UNL     1       3.901  26.728  49.069  1.00  0.00     0.002 A 
HETATM   24  C   UNL     1       4.849  26.033  49.824  1.00  0.00     0.032 A 
BRANCH  20  25
HETATM   25  O   UNL     1       5.633  28.443  52.450  1.00  0.00    -0.349 OA
BRANCH  25  26
HETATM   26  C   UNL     1       4.766  29.185  53.313  1.00  0.00     0.171 C 
HETATM   27  C   UNL     1       4.150  28.218  54.309  1.00  0.00     0.034 C 
ENDBRANCH  25  26
ENDBRANCH  20  25
ENDBRANCH  16  19
ENDBRANCH  14  15
ENDBRANCH   1  14
BRANCH  12  28
HETATM   28  C   UNL     1       7.291  28.117  56.158  1.00  0.00     0.252 C 
HETATM   29  N   UNL     1       6.432  28.587  57.129  1.00  0.00    -0.352 N 
HETATM   30  H   UNL     1       6.056  27.956  57.822  1.00  0.00     0.163 HD
HETATM   31  O   UNL     1       7.704  28.800  55.229  1.00  0.00    -0.268 OA
BRANCH  29  32
HETATM   32  C   UNL     1       6.003  29.969  57.155  1.00  0.00     0.084 C 
HETATM   33  C   UNL     1       4.546  30.122  57.574  1.00  0.00     0.025 C 
HETATM   34  C   UNL     1       4.456  31.591  57.949  1.00  0.00     0.002 C 
HETATM   35  C   UNL     1       5.778  31.886  58.651  1.00  0.00     0.002 C 
HETATM   36  C   UNL     1       6.761  30.809  58.187  1.00  0.00     0.025 C 
ENDBRANCH  29  32
ENDBRANCH  12  28
TORSDOF 7
ENDMDL
MODEL 10
REMARK VINA RESULT:      -8.5      2.365      5.609
REMARK  7 active torsions:
REMARK  status: ('A' for Active; 'I' for Inactive)
REMARK    1  A    between atoms: C_2  and  O_3 
REMARK    2  A    between atoms: O_3  and  C_4 
REMARK    3  A    between atoms: C_5  and  N_6 
REMARK       I    between atoms: N_6  and  C_7 
REMARK    4  A    between atoms: C_7  and  C_8 
REMARK    5  A    between atoms: C_8  and  N_9 
REMARK    6  A    between atoms: C_20  and  C_21 
REMARK       I    between atoms: C_21  and  N_22 
REMARK    7  A    between atoms: N_22  and  C_23 
ROOT
HETATM    1  N   UNL     1       5.800  26.435  55.627  1.00  0.00    -0.304 N 
HETATM    2  C   UNL     1       6.156  25.328  56.405  1.00  0.00     0.259 C 
HETATM    3  O   UNL     1       5.833  25.205  57.586  1.00  0.00    -0.270 OA
HETATM    4  C   UNL     1       7.066  24.325  55.672  1.00  0.00     0.141 C 
HETATM    5  C   UNL     1       8.485  24.906  55.547  1.00  0.00     0.057 C 
HETATM    6  C   UNL     1       7.141  23.019  56.472  1.00  0.00     0.057 C 
HETATM    7  O   UNL     1       6.588  23.970  54.374  1.00  0.00    -0.329 OA
HETATM    8  C   UNL     1       6.054  25.008  53.659  1.00  0.00     0.097 A 
HETATM    9  C   UNL     1       5.689  26.247  54.216  1.00  0.00     0.072 A 
HETATM   10  C   UNL     1       5.849  24.730  52.305  1.00  0.00     0.040 A 
HETATM   11  C   UNL     1       5.300  25.695  51.467  1.00  0.00     0.020 A 
HETATM   12  C   UNL     1       4.973  26.950  51.984  1.00  0.00     0.034 A 
HETATM   13  C   UNL     1       5.164  27.219  53.353  1.00  0.00     0.049 A 
ENDROOT
BRANCH   1  14
HETATM   14  C   UNL     1       5.162  27.545  56.330  1.00  0.00     0.235 C 
BRANCH  14  15
HETATM   15  C   UNL     1       6.072  28.786  56.427  1.00  0.00     0.240 C 
HETATM   16  N   UNL     1       7.139  28.576  57.282  1.00  0.00    -0.323 N 
HETATM   17  H   UNL     1       7.059  27.864  58.002  1.00  0.00     0.169 HD
HETATM   18  O   UNL     1       5.833  29.840  55.841  1.00  0.00    -0.271 OA
BRANCH  16  19
HETATM   19  C   UNL     1       8.361  29.279  57.303  1.00  0.00     0.068 A 
HETATM   20  C   UNL     1       8.488  30.339  58.222  1.00  0.00     0.095 A 
HETATM   21  C   UNL     1       9.720  30.980  58.382  1.00  0.00     0.039 A 
HETATM   22  C   UNL     1      10.814  30.591  57.608  1.00  0.00     0.003 A 
HETATM   23  C   UNL     1      10.680  29.564  56.674  1.00  0.00     0.002 A 
HETATM   24  C   UNL     1       9.456  28.909  56.522  1.00  0.00     0.032 A 
BRANCH  20  25
HETATM   25  O   UNL     1       7.357  30.663  58.938  1.00  0.00    -0.349 OA
BRANCH  25  26
HETATM   26  C   UNL     1       7.418  31.910  59.636  1.00  0.00     0.171 C 
HETATM   27  C   UNL     1       7.486  31.617  61.124  1.00  0.00     0.034 C 
ENDBRANCH  25  26
ENDBRANCH  20  25
ENDBRANCH  16  19
ENDBRANCH  14  15
ENDBRANCH   1  14
BRANCH  12  28
HETATM   28  C   UNL     1       4.365  28.014  51.137  1.00  0.00     0.252 C 
HETATM   29  N   UNL     1       3.824  27.610  49.936  1.00  0.00    -0.352 N 
HETATM   30  H   UNL     1       3.913  26.649  49.637  1.00  0.00     0.163 HD
HETATM   31  O   UNL     1       4.386  29.180  51.516  1.00  0.00    -0.268 OA
BRANCH  29  32
HETATM   32  C   UNL     1       3.169  28.547  49.049  1.00  0.00     0.084 C 
HETATM   33  C   UNL     1       3.242  28.119  47.587  1.00  0.00     0.025 C 
HETATM   34  C   UNL     1       2.161  28.964  46.935  1.00  0.00     0.002 C 
HETATM   35  C   UNL     1       1.029  28.989  47.957  1.00  0.00     0.002 C 
HETATM   36  C   UNL     1       1.665  28.664  49.311  1.00  0.00     0.025 C 
ENDBRANCH  29  32
ENDBRANCH  12  28
TORSDOF 7
ENDMDL
