MODEL 1
REMARK VINA RESULT:      -7.9      0.000      0.000
REMARK  5 active torsions:
REMARK  status: ('A' for Active; 'I' for Inactive)
REMARK    1  A    between atoms: C_8  and  N_9 
REMARK       I    between atoms: N_9  and  C_10 
REMARK       I    between atoms: C_10  and  N_11 
REMARK    2  A    between atoms: N_11  and  C_12 
REMARK    3  A    between atoms: C_13  and  O_14 
REMARK    4  A    between atoms: O_14  and  C_15 
REMARK    5  A    between atoms: C_15  and  C_16 
ROOT
HETATM    1  N   UNL     1       5.956  26.609  51.854  1.00  0.00    -0.305 N 
HETATM    2  C   UNL     1       5.881  25.339  52.397  1.00  0.00     0.325 C 
HETATM    3  N   UNL     1       7.151  24.858  52.661  1.00  0.00    -0.306 N 
HETATM    4  O   UNL     1       4.846  24.728  52.628  1.00  0.00    -0.247 OA
HETATM    5  H   UNL     1       6.728  27.172  52.178  1.00  0.00     0.171 HD
HETATM    6  H   UNL     1       7.887  25.199  52.054  1.00  0.00     0.171 HD
ENDROOT
BRANCH   3   7
HETATM    7  C   UNL     1       7.473  23.719  53.427  1.00  0.00     0.070 A 
HETATM    8  C   UNL     1       7.570  23.869  54.821  1.00  0.00     0.097 A 
HETATM    9  C   UNL     1       7.808  22.771  55.649  1.00  0.00     0.063 A 
HETATM   10  C   UNL     1       7.985  21.514  55.075  1.00  0.00     0.036 A 
HETATM   11 CL   UNL     1       8.285  20.152  56.082  1.00  0.00    -0.084 Cl
HETATM   12  C   UNL     1       7.920  21.352  53.692  1.00  0.00     0.026 A 
HETATM   13  C   UNL     1       7.659  22.453  52.869  1.00  0.00     0.034 A 
BRANCH   8  14
HETATM   14  O   UNL     1       7.403  25.125  55.354  1.00  0.00    -0.340 OA
BRANCH  14  15
HETATM   15  C   UNL     1       6.860  25.053  56.688  1.00  0.00     0.293 C 
BRANCH  15  16
HETATM   16  C   UNL     1       5.528  25.782  56.752  1.00  0.00     0.408 C 
HETATM   17  F   UNL     1       5.025  25.992  55.513  1.00  0.00    -0.169 F 
HETATM   18  F   UNL     1       4.611  25.086  57.458  1.00  0.00    -0.169 F 
HETATM   19  F   UNL     1       5.672  26.989  57.346  1.00  0.00    -0.169 F 
ENDBRANCH  15  16
ENDBRANCH  14  15
ENDBRANCH   8  14
ENDBRANCH   3   7
BRANCH   1  20
HETATM   20  C   UNL     1       4.891  27.291  51.292  1.00  0.00     0.086 A 
HETATM   21  C   UNL     1       4.073  28.136  52.016  1.00  0.00     0.052 A 
HETATM   22  C   UNL     1       4.028  28.506  53.449  1.00  0.00     0.072 C 
HETATM   23  N   UNL     1       3.155  28.615  51.122  1.00  0.00    -0.280 N 
HETATM   24  H   UNL     1       2.380  29.246  51.297  1.00  0.00     0.189 HD
HETATM   25  N   UNL     1       3.339  28.182  49.870  1.00  0.00    -0.177 NA
HETATM   26  C   UNL     1       4.403  27.370  49.956  1.00  0.00     0.079 A 
HETATM   27  C   UNL     1       4.935  26.759  48.712  1.00  0.00     0.075 C 
ENDBRANCH   1  20
TORSDOF 5
ENDMDL
MODEL 2
REMARK VINA RESULT:      -7.8      4.118      5.877
REMARK  5 active torsions:
REMARK  status: ('A' for Active; 'I' for Inactive)
REMARK    1  A    between atoms: C_8  and  N_9 
REMARK       I    between atoms: N_9  and  C_10 
REMARK       I    between atoms: C_10  and  N_11 
REMARK    2  A    between atoms: N_11  and  C_12 
REMARK    3  A    between atoms: C_13  and  O_14 
REMARK    4  A    between atoms: O_14  and  C_15 
REMARK    5  A    between atoms: C_15  and  C_16 
ROOT
HETATM    1  N   UNL     1       7.947  28.628  56.204  1.00  0.00    -0.305 N 
HETATM    2  C   UNL     1       8.034  27.269  56.441  1.00  0.00     0.325 C 
HETATM    3  N   UNL     1       7.365  26.568  55.454  1.00  0.00    -0.306 N 
HETATM    4  O   UNL     1       8.628  26.751  57.378  1.00  0.00    -0.247 OA
HETATM    5  H   UNL     1       7.915  28.895  55.231  1.00  0.00     0.171 HD
HETATM    6  H   UNL     1       6.578  27.044  55.031  1.00  0.00     0.171 HD
ENDROOT
BRANCH   3   7
HETATM    7  C   UNL     1       7.434  25.179  55.218  1.00  0.00     0.070 A 
HETATM    8  C   UNL     1       7.656  24.745  53.901  1.00  0.00     0.097 A 
HETATM    9  C   UNL     1       7.813  23.389  53.606  1.00  0.00     0.063 A 
HETATM   10  C   UNL     1       7.713  22.455  54.635  1.00  0.00     0.036 A 
HETATM   11 CL   UNL     1       7.899  20.781  54.286  1.00  0.00    -0.084 Cl
HETATM   12  C   UNL     1       7.466  22.867  55.944  1.00  0.00     0.026 A 
HETATM   13  C   UNL     1       7.331  24.229  56.236  1.00  0.00     0.034 A 
BRANCH   8  14
HETATM   14  O   UNL     1       7.736  25.691  52.908  1.00  0.00    -0.340 OA
BRANCH  14  15
HETATM   15  C   UNL     1       7.063  25.245  51.712  1.00  0.00     0.293 C 
BRANCH  15  16
HETATM   16  C   UNL     1       5.597  25.639  51.760  1.00  0.00     0.408 C 
HETATM   17  F   UNL     1       4.846  24.666  52.327  1.00  0.00    -0.169 F 
HETATM   18  F   UNL     1       5.406  26.773  52.466  1.00  0.00    -0.169 F 
HETATM   19  F   UNL     1       5.117  25.850  50.512  1.00  0.00    -0.169 F 
ENDBRANCH  15  16
ENDBRANCH  14  15
ENDBRANCH   8  14
ENDBRANCH   3   7
BRANCH   1  20
HETATM   20  C   UNL     1       8.328  29.613  57.099  1.00  0.00     0.086 A 
HETATM   21  C   UNL     1       7.426  30.329  57.858  1.00  0.00     0.052 A 
HETATM   22  C   UNL     1       5.946  30.328  57.926  1.00  0.00     0.072 C 
HETATM   23  N   UNL     1       8.177  31.192  58.607  1.00  0.00    -0.280 N 
HETATM   24  H   UNL     1       7.856  31.891  59.268  1.00  0.00     0.189 HD
HETATM   25  N   UNL     1       9.496  31.061  58.426  1.00  0.00    -0.177 NA
HETATM   26  C   UNL     1       9.607  30.093  57.504  1.00  0.00     0.079 A 
HETATM   27  C   UNL     1      10.963  29.636  57.110  1.00  0.00     0.075 C 
ENDBRANCH   1  20
TORSDOF 5
ENDMDL
MODEL 3
REMARK VINA RESULT:      -7.7      0.730      1.850
REMARK  5 active torsions:
REMARK  status: ('A' for Active; 'I' for Inactive)
REMARK    1  A    between atoms: C_8  and  N_9 
REMARK       I    between atoms: N_9  and  C_10 
REMARK       I    between atoms: C_10  and  N_11 
REMARK    2  A    between atoms: N_11  and  C_12 
REMARK    3  A    between atoms: C_13  and  O_14 
REMARK    4  A    between atoms: O_14  and  C_15 
REMARK    5  A    between atoms: C_15  and  C_16 
ROOT
HETATM    1  N   UNL     1       6.094  26.722  52.297  1.00  0.00    -0.305 N 
HETATM    2  C   UNL     1       6.046  25.431  52.789  1.00  0.00     0.325 C 
HETATM    3  N   UNL     1       7.323  24.907  52.879  1.00  0.00    -0.306 N 
HETATM    4  O   UNL     1       5.027  24.834  53.114  1.00  0.00    -0.247 OA
HETATM    5  H   UNL     1       6.915  27.250  52.552  1.00  0.00     0.171 HD
HETATM    6  H   UNL     1       7.993  25.258  52.205  1.00  0.00     0.171 HD
ENDROOT
BRANCH   3   7
HETATM    7  C   UNL     1       7.699  23.726  53.551  1.00  0.00     0.070 A 
HETATM    8  C   UNL     1       8.059  23.825  54.906  1.00  0.00     0.097 A 
HETATM    9  C   UNL     1       8.367  22.688  55.655  1.00  0.00     0.063 A 
HETATM   10  C   UNL     1       8.348  21.441  55.034  1.00  0.00     0.036 A 
HETATM   11 CL   UNL     1       8.730  20.031  55.942  1.00  0.00    -0.084 Cl
HETATM   12  C   UNL     1       8.020  21.327  53.684  1.00  0.00     0.026 A 
HETATM   13  C   UNL     1       7.692  22.468  52.944  1.00  0.00     0.034 A 
BRANCH   8  14
HETATM   14  O   UNL     1       8.081  25.072  55.484  1.00  0.00    -0.340 OA
BRANCH  14  15
HETATM   15  C   UNL     1       7.060  25.189  56.497  1.00  0.00     0.293 C 
BRANCH  15  16
HETATM   16  C   UNL     1       6.309  26.499  56.334  1.00  0.00     0.408 C 
HETATM   17  F   UNL     1       6.894  27.288  55.404  1.00  0.00    -0.169 F 
HETATM   18  F   UNL     1       5.028  26.296  55.957  1.00  0.00    -0.169 F 
HETATM   19  F   UNL     1       6.287  27.186  57.499  1.00  0.00    -0.169 F 
ENDBRANCH  15  16
ENDBRANCH  14  15
ENDBRANCH   8  14
ENDBRANCH   3   7
BRANCH   1  20
HETATM   20  C   UNL     1       4.991  27.456  51.896  1.00  0.00     0.086 A 
HETATM   21  C   UNL     1       4.437  27.353  50.636  1.00  0.00     0.052 A 
HETATM   22  C   UNL     1       4.813  26.572  49.435  1.00  0.00     0.072 C 
HETATM   23  N   UNL     1       3.380  28.220  50.626  1.00  0.00    -0.280 N 
HETATM   24  H   UNL     1       2.749  28.430  49.860  1.00  0.00     0.189 HD
HETATM   25  N   UNL     1       3.178  28.843  51.792  1.00  0.00    -0.177 NA
HETATM   26  C   UNL     1       4.157  28.383  52.584  1.00  0.00     0.079 A 
HETATM   27  C   UNL     1       4.193  28.825  54.002  1.00  0.00     0.075 C 
ENDBRANCH   1  20
TORSDOF 5
ENDMDL
MODEL 4
REMARK VINA RESULT:      -7.7      4.337      6.108
REMARK  5 active torsions:
REMARK  status: ('A' for Active; 'I' for Inactive)
REMARK    1  A    between atoms: C_8  and  N_9 
REMARK       I    between atoms: N_9  and  C_10 
REMARK       I    between atoms: C_10  and  N_11 
REMARK    2  A    between atoms: N_11  and  C_12 
REMARK    3  A    between atoms: C_13  and  O_14 
REMARK    4  A    between atoms: O_14  and  C_15 
REMARK    5  A    between atoms: C_15  and  C_16 
ROOT
HETATM    1  N   UNL     1       8.479  28.742  56.631  1.00  0.00    -0.305 N 
HETATM    2  C   UNL     1       8.140  27.463  57.032  1.00  0.00     0.325 C 
HETATM    3  N   UNL     1       7.981  26.643  55.930  1.00  0.00    -0.306 N 
HETATM    4  O   UNL     1       8.012  27.096  58.194  1.00  0.00    -0.247 OA
HETATM    5  H   UNL     1       9.032  28.797  55.789  1.00  0.00     0.171 HD
HETATM    6  H   UNL     1       7.665  27.100  55.082  1.00  0.00     0.171 HD
ENDROOT
BRANCH   3   7
HETATM    7  C   UNL     1       7.875  25.237  55.939  1.00  0.00     0.070 A 
HETATM    8  C   UNL     1       7.060  24.632  54.967  1.00  0.00     0.097 A 
HETATM    9  C   UNL     1       6.970  23.243  54.866  1.00  0.00     0.063 A 
HETATM   10  C   UNL     1       7.676  22.450  55.768  1.00  0.00     0.036 A 
HETATM   11 CL   UNL     1       7.570  20.736  55.660  1.00  0.00    -0.084 Cl
HETATM   12  C   UNL     1       8.467  23.034  56.756  1.00  0.00     0.026 A 
HETATM   13  C   UNL     1       8.570  24.427  56.838  1.00  0.00     0.034 A 
BRANCH   8  14
HETATM   14  O   UNL     1       6.368  25.444  54.100  1.00  0.00    -0.340 OA
BRANCH  14  15
HETATM   15  C   UNL     1       6.489  24.972  52.742  1.00  0.00     0.293 C 
BRANCH  15  16
HETATM   16  C   UNL     1       5.241  25.329  51.952  1.00  0.00     0.408 C 
HETATM   17  F   UNL     1       5.551  25.701  50.688  1.00  0.00    -0.169 F 
HETATM   18  F   UNL     1       4.383  24.288  51.878  1.00  0.00    -0.169 F 
HETATM   19  F   UNL     1       4.585  26.359  52.532  1.00  0.00    -0.169 F 
ENDBRANCH  15  16
ENDBRANCH  14  15
ENDBRANCH   8  14
ENDBRANCH   3   7
BRANCH   1  20
HETATM   20  C   UNL     1       8.513  29.848  57.463  1.00  0.00     0.086 A 
HETATM   21  C   UNL     1       9.685  30.476  57.831  1.00  0.00     0.052 A 
HETATM   22  C   UNL     1      11.110  30.189  57.547  1.00  0.00     0.072 C 
HETATM   23  N   UNL     1       9.310  31.511  58.642  1.00  0.00    -0.280 N 
HETATM   24  H   UNL     1       9.904  32.180  59.120  1.00  0.00     0.189 HD
HETATM   25  N   UNL     1       7.987  31.630  58.794  1.00  0.00    -0.177 NA
HETATM   26  C   UNL     1       7.481  30.618  58.073  1.00  0.00     0.079 A 
HETATM   27  C   UNL     1       6.006  30.489  57.962  1.00  0.00     0.075 C 
ENDBRANCH   1  20
TORSDOF 5
ENDMDL
MODEL 5
REMARK VINA RESULT:      -7.7      2.063      3.037
REMARK  5 active torsions:
REMARK  status: ('A' for Active; 'I' for Inactive)
REMARK    1  A    between atoms: C_8  and  N_9 
REMARK       I    between atoms: N_9  and  C_10 
REMARK       I    between atoms: C_10  and  N_11 
REMARK    2  A    between atoms: N_11  and  C_12 
REMARK    3  A    between atoms: C_13  and  O_14 
REMARK    4  A    between atoms: O_14  and  C_15 
REMARK    5  A    between atoms: C_15  and  C_16 
ROOT
HETATM    1  N   UNL     1       3.765  27.513  53.266  1.00  0.00    -0.305 N 
HETATM    2  C   UNL     1       5.019  26.999  53.537  1.00  0.00     0.325 C 
HETATM    3  N   UNL     1       4.926  25.655  53.851  1.00  0.00    -0.306 N 
HETATM    4  O   UNL     1       6.068  27.630  53.493  1.00  0.00    -0.247 OA
HETATM    5  H   UNL     1       3.116  26.867  52.842  1.00  0.00     0.171 HD
HETATM    6  H   UNL     1       4.060  25.363  54.290  1.00  0.00     0.171 HD
ENDROOT
BRANCH   3   7
HETATM    7  C   UNL     1       5.995  24.740  53.948  1.00  0.00     0.070 A 
HETATM    8  C   UNL     1       6.423  24.361  55.231  1.00  0.00     0.097 A 
HETATM    9  C   UNL     1       7.423  23.401  55.403  1.00  0.00     0.063 A 
HETATM   10  C   UNL     1       8.024  22.840  54.279  1.00  0.00     0.036 A 
HETATM   11 CL   UNL     1       9.261  21.660  54.475  1.00  0.00    -0.084 Cl
HETATM   12  C   UNL     1       7.631  23.224  52.999  1.00  0.00     0.026 A 
HETATM   13  C   UNL     1       6.614  24.171  52.833  1.00  0.00     0.034 A 
BRANCH   8  14
HETATM   14  O   UNL     1       5.817  24.944  56.319  1.00  0.00    -0.340 OA
BRANCH  14  15
HETATM   15  C   UNL     1       6.798  25.453  57.246  1.00  0.00     0.293 C 
BRANCH  15  16
HETATM   16  C   UNL     1       6.998  26.944  57.031  1.00  0.00     0.408 C 
HETATM   17  F   UNL     1       7.469  27.541  58.150  1.00  0.00    -0.169 F 
HETATM   18  F   UNL     1       7.870  27.192  56.031  1.00  0.00    -0.169 F 
HETATM   19  F   UNL     1       5.828  27.542  56.710  1.00  0.00    -0.169 F 
ENDBRANCH  15  16
ENDBRANCH  14  15
ENDBRANCH   8  14
ENDBRANCH   3   7
BRANCH   1  20
HETATM   20  C   UNL     1       3.478  28.859  53.117  1.00  0.00     0.086 A 
HETATM   21  C   UNL     1       2.977  29.396  51.948  1.00  0.00     0.052 A 
HETATM   22  C   UNL     1       2.668  28.808  50.625  1.00  0.00     0.072 C 
HETATM   23  N   UNL     1       2.826  30.733  52.192  1.00  0.00    -0.280 N 
HETATM   24  H   UNL     1       2.501  31.453  51.556  1.00  0.00     0.189 HD
HETATM   25  N   UNL     1       3.148  31.098  53.438  1.00  0.00    -0.177 NA
HETATM   26  C   UNL     1       3.549  29.958  54.021  1.00  0.00     0.079 A 
HETATM   27  C   UNL     1       3.921  29.985  55.458  1.00  0.00     0.075 C 
ENDBRANCH   1  20
TORSDOF 5
ENDMDL
MODEL 6
REMARK VINA RESULT:      -7.6      3.282      6.584
REMARK  5 active torsions:
REMARK  status: ('A' for Active; 'I' for Inactive)
REMARK    1  A    between atoms: C_8  and  N_9 
REMARK       I    between atoms: N_9  and  C_10 
REMARK       I    between atoms: C_10  and  N_11 
REMARK    2  A    between atoms: N_11  and  C_12 
REMARK    3  A    between atoms: C_13  and  O_14 
REMARK    4  A    between atoms: O_14  and  C_15 
REMARK    5  A    between atoms: C_15  and  C_16 
ROOT
HETATM    1  N   UNL     1       8.191  23.423  53.704  1.00  0.00    -0.305 N 
HETATM    2  C   UNL     1       7.099  24.258  53.555  1.00  0.00     0.325 C 
HETATM    3  N   UNL     1       7.424  25.328  52.741  1.00  0.00    -0.306 N 
HETATM    4  O   UNL     1       5.996  24.076  54.054  1.00  0.00    -0.247 OA
HETATM    5  H   UNL     1       8.808  23.373  52.907  1.00  0.00     0.171 HD
HETATM    6  H   UNL     1       8.393  25.622  52.764  1.00  0.00     0.171 HD
ENDROOT
BRANCH   3   7
HETATM    7  C   UNL     1       6.523  26.248  52.167  1.00  0.00     0.070 A 
HETATM    8  C   UNL     1       6.451  27.535  52.726  1.00  0.00     0.097 A 
HETATM    9  C   UNL     1       5.640  28.522  52.161  1.00  0.00     0.063 A 
HETATM   10  C   UNL     1       4.867  28.208  51.046  1.00  0.00     0.036 A 
HETATM   11 CL   UNL     1       3.858  29.411  50.342  1.00  0.00    -0.084 Cl
HETATM   12  C   UNL     1       4.905  26.928  50.495  1.00  0.00     0.026 A 
HETATM   13  C   UNL     1       5.736  25.950  51.052  1.00  0.00     0.034 A 
BRANCH   8  14
HETATM   14  O   UNL     1       7.217  27.808  53.834  1.00  0.00    -0.340 OA
BRANCH  14  15
HETATM   15  C   UNL     1       6.388  28.055  54.988  1.00  0.00     0.293 C 
BRANCH  15  16
HETATM   16  C   UNL     1       6.786  27.131  56.126  1.00  0.00     0.408 C 
HETATM   17  F   UNL     1       7.969  26.524  55.874  1.00  0.00    -0.169 F 
HETATM   18  F   UNL     1       6.906  27.800  57.294  1.00  0.00    -0.169 F 
HETATM   19  F   UNL     1       5.858  26.163  56.304  1.00  0.00    -0.169 F 
ENDBRANCH  15  16
ENDBRANCH  14  15
ENDBRANCH   8  14
ENDBRANCH   3   7
BRANCH   1  20
HETATM   20  C   UNL     1       8.270  22.378  54.608  1.00  0.00     0.086 A 
HETATM   21  C   UNL     1       8.364  21.056  54.223  1.00  0.00     0.052 A 
HETATM   22  C   UNL     1       8.360  20.394  52.898  1.00  0.00     0.072 C 
HETATM   23  N   UNL     1       8.422  20.337  55.384  1.00  0.00    -0.280 N 
HETATM   24  H   UNL     1       8.474  19.330  55.496  1.00  0.00     0.189 HD
HETATM   25  N   UNL     1       8.417  21.089  56.490  1.00  0.00    -0.177 NA
HETATM   26  C   UNL     1       8.327  22.347  56.031  1.00  0.00     0.079 A 
HETATM   27  C   UNL     1       8.366  23.466  57.006  1.00  0.00     0.075 C 
ENDBRANCH   1  20
TORSDOF 5
ENDMDL
MODEL 7
REMARK VINA RESULT:      -7.6      3.335      4.885
REMARK  5 active torsions:
REMARK  status: ('A' for Active; 'I' for Inactive)
REMARK    1  A    between atoms: C_8  and  N_9 
REMARK       I    between atoms: N_9  and  C_10 
REMARK       I    between atoms: C_10  and  N_11 
REMARK    2  A    between atoms: N_11  and  C_12 
REMARK    3  A    between atoms: C_13  and  O_14 
REMARK    4  A    between atoms: O_14  and  C_15 
REMARK    5  A    between atoms: C_15  and  C_16 
ROOT
HETATM    1  N   UNL     1       7.080  28.109  55.963  1.00  0.00    -0.305 N 
HETATM    2  C   UNL     1       6.680  26.828  55.630  1.00  0.00     0.325 C 
HETATM    3  N   UNL     1       7.586  26.257  54.755  1.00  0.00    -0.306 N 
HETATM    4  O   UNL     1       5.678  26.267  56.055  1.00  0.00    -0.247 OA
HETATM    5  H   UNL     1       8.078  28.255  55.993  1.00  0.00     0.171 HD
HETATM    6  H   UNL     1       8.075  26.901  54.144  1.00  0.00     0.171 HD
ENDROOT
BRANCH   3   7
HETATM    7  C   UNL     1       7.651  24.899  54.384  1.00  0.00     0.070 A 
HETATM    8  C   UNL     1       7.528  24.581  53.020  1.00  0.00     0.097 A 
HETATM    9  C   UNL     1       7.662  23.266  52.572  1.00  0.00     0.063 A 
HETATM   10  C   UNL     1       7.887  22.252  53.500  1.00  0.00     0.036 A 
HETATM   11 CL   UNL     1       8.048  20.626  52.963  1.00  0.00    -0.084 Cl
HETATM   12  C   UNL     1       7.984  22.545  54.859  1.00  0.00     0.026 A 
HETATM   13  C   UNL     1       7.871  23.869  55.300  1.00  0.00     0.034 A 
BRANCH   8  14
HETATM   14  O   UNL     1       7.294  25.604  52.133  1.00  0.00    -0.340 OA
BRANCH  14  15
HETATM   15  C   UNL     1       5.932  25.574  51.658  1.00  0.00     0.293 C 
BRANCH  15  16
HETATM   16  C   UNL     1       5.203  26.839  52.078  1.00  0.00     0.408 C 
HETATM   17  F   UNL     1       6.074  27.814  52.427  1.00  0.00    -0.169 F 
HETATM   18  F   UNL     1       4.422  27.318  51.086  1.00  0.00    -0.169 F 
HETATM   19  F   UNL     1       4.407  26.601  53.146  1.00  0.00    -0.169 F 
ENDBRANCH  15  16
ENDBRANCH  14  15
ENDBRANCH   8  14
ENDBRANCH   3   7
BRANCH   1  20
HETATM   20  C   UNL     1       6.304  29.025  56.652  1.00  0.00     0.086 A 
HETATM   21  C   UNL     1       6.737  29.669  57.794  1.00  0.00     0.052 A 
HETATM   22  C   UNL     1       7.981  29.572  58.590  1.00  0.00     0.072 C 
HETATM   23  N   UNL     1       5.705  30.484  58.171  1.00  0.00    -0.280 N 
HETATM   24  H   UNL     1       5.652  31.094  58.980  1.00  0.00     0.189 HD
HETATM   25  N   UNL     1       4.657  30.452  57.341  1.00  0.00    -0.177 NA
HETATM   26  C   UNL     1       5.009  29.563  56.400  1.00  0.00     0.079 A 
HETATM   27  C   UNL     1       4.087  29.328  55.260  1.00  0.00     0.075 C 
ENDBRANCH   1  20
TORSDOF 5
ENDMDL
MODEL 8
REMARK VINA RESULT:      -7.4      1.844      2.705
REMARK  5 active torsions:
REMARK  status: ('A' for Active; 'I' for Inactive)
REMARK    1  A    between atoms: C_8  and  N_9 
REMARK       I    between atoms: N_9  and  C_10 
REMARK       I    between atoms: C_10  and  N_11 
REMARK    2  A    between atoms: N_11  and  C_12 
REMARK    3  A    between atoms: C_13  and  O_14 
REMARK    4  A    between atoms: O_14  and  C_15 
REMARK    5  A    between atoms: C_15  and  C_16 
ROOT
HETATM    1  N   UNL     1       5.682  27.116  50.868  1.00  0.00    -0.305 N 
HETATM    2  C   UNL     1       5.638  25.931  51.578  1.00  0.00     0.325 C 
HETATM    3  N   UNL     1       6.913  25.557  51.963  1.00  0.00    -0.306 N 
HETATM    4  O   UNL     1       4.621  25.303  51.846  1.00  0.00    -0.247 OA
HETATM    5  H   UNL     1       6.410  27.757  51.144  1.00  0.00     0.171 HD
HETATM    6  H   UNL     1       7.663  25.850  51.348  1.00  0.00     0.171 HD
ENDROOT
BRANCH   3   7
HETATM    7  C   UNL     1       7.247  24.552  52.895  1.00  0.00     0.070 A 
HETATM    8  C   UNL     1       6.985  24.800  54.253  1.00  0.00     0.097 A 
HETATM    9  C   UNL     1       7.216  23.821  55.221  1.00  0.00     0.063 A 
HETATM   10  C   UNL     1       7.748  22.594  54.832  1.00  0.00     0.036 A 
HETATM   11 CL   UNL     1       8.045  21.380  56.014  1.00  0.00    -0.084 Cl
HETATM   12  C   UNL     1       8.041  22.342  53.492  1.00  0.00     0.026 A 
HETATM   13  C   UNL     1       7.786  23.319  52.524  1.00  0.00     0.034 A 
BRANCH   8  14
HETATM   14  O   UNL     1       6.471  26.025  54.604  1.00  0.00    -0.340 OA
BRANCH  14  15
HETATM   15  C   UNL     1       7.373  26.731  55.481  1.00  0.00     0.293 C 
BRANCH  15  16
HETATM   16  C   UNL     1       7.676  28.111  54.920  1.00  0.00     0.408 C 
HETATM   17  F   UNL     1       6.570  28.890  54.913  1.00  0.00    -0.169 F 
HETATM   18  F   UNL     1       8.625  28.746  55.642  1.00  0.00    -0.169 F 
HETATM   19  F   UNL     1       8.123  28.022  53.647  1.00  0.00    -0.169 F 
ENDBRANCH  15  16
ENDBRANCH  14  15
ENDBRANCH   8  14
ENDBRANCH   3   7
BRANCH   1  20
HETATM   20  C   UNL     1       4.617  27.658  50.169  1.00  0.00     0.086 A 
HETATM   21  C   UNL     1       4.353  27.357  48.848  1.00  0.00     0.052 A 
HETATM   22  C   UNL     1       5.051  26.511  47.853  1.00  0.00     0.072 C 
HETATM   23  N   UNL     1       3.237  28.077  48.522  1.00  0.00    -0.280 N 
HETATM   24  H   UNL     1       2.762  28.125  47.627  1.00  0.00     0.189 HD
HETATM   25  N   UNL     1       2.732  28.786  49.537  1.00  0.00    -0.177 NA
HETATM   26  C   UNL     1       3.567  28.538  50.558  1.00  0.00     0.079 A 
HETATM   27  C   UNL     1       3.260  29.124  51.888  1.00  0.00     0.075 C 
ENDBRANCH   1  20
TORSDOF 5
ENDMDL
MODEL 9
REMARK VINA RESULT:      -7.3      3.781      5.441
REMARK  5 active torsions:
REMARK  status: ('A' for Active; 'I' for Inactive)
REMARK    1  A    between atoms: C_8  and  N_9 
REMARK       I    between atoms: N_9  and  C_10 
REMARK       I    between atoms: C_10  and  N_11 
REMARK    2  A    between atoms: N_11  and  C_12 
REMARK    3  A    between atoms: C_13  and  O_14 
REMARK    4  A    between atoms: O_14  and  C_15 
REMARK    5  A    between atoms: C_15  and  C_16 
ROOT
HETATM    1  N   UNL     1       5.996  28.081  57.192  1.00  0.00    -0.305 N 
HETATM    2  C   UNL     1       6.914  27.292  56.524  1.00  0.00     0.325 C 
HETATM    3  N   UNL     1       6.615  25.954  56.704  1.00  0.00    -0.306 N 
HETATM    4  O   UNL     1       7.851  27.709  55.855  1.00  0.00    -0.247 OA
HETATM    5  H   UNL     1       5.062  27.703  57.245  1.00  0.00     0.171 HD
HETATM    6  H   UNL     1       6.157  25.718  57.577  1.00  0.00     0.171 HD
ENDROOT
BRANCH   3   7
HETATM    7  C   UNL     1       7.166  24.868  55.994  1.00  0.00     0.070 A 
HETATM    8  C   UNL     1       6.609  24.546  54.745  1.00  0.00     0.097 A 
HETATM    9  C   UNL     1       7.154  23.535  53.952  1.00  0.00     0.063 A 
HETATM   10  C   UNL     1       8.247  22.815  54.427  1.00  0.00     0.036 A 
HETATM   11 CL   UNL     1       8.926  21.562  53.464  1.00  0.00    -0.084 Cl
HETATM   12  C   UNL     1       8.796  23.102  55.676  1.00  0.00     0.026 A 
HETATM   13  C   UNL     1       8.258  24.131  56.457  1.00  0.00     0.034 A 
BRANCH   8  14
HETATM   14  O   UNL     1       5.523  25.269  54.311  1.00  0.00    -0.340 OA
BRANCH  14  15
HETATM   15  C   UNL     1       5.034  24.761  53.053  1.00  0.00     0.293 C 
BRANCH  15  16
HETATM   16  C   UNL     1       5.223  25.800  51.960  1.00  0.00     0.408 C 
HETATM   17  F   UNL     1       6.534  26.063  51.755  1.00  0.00    -0.169 F 
HETATM   18  F   UNL     1       4.694  25.391  50.786  1.00  0.00    -0.169 F 
HETATM   19  F   UNL     1       4.620  26.963  52.296  1.00  0.00    -0.169 F 
ENDBRANCH  15  16
ENDBRANCH  14  15
ENDBRANCH   8  14
ENDBRANCH   3   7
BRANCH   1  20
HETATM   20  C   UNL     1       6.119  29.446  57.385  1.00  0.00     0.086 A 
HETATM   21  C   UNL     1       5.190  30.357  56.924  1.00  0.00     0.052 A 
HETATM   22  C   UNL     1       3.948  30.211  56.131  1.00  0.00     0.072 C 
HETATM   23  N   UNL     1       5.656  31.585  57.308  1.00  0.00    -0.280 N 
HETATM   24  H   UNL     1       5.247  32.495  57.126  1.00  0.00     0.189 HD
HETATM   25  N   UNL     1       6.789  31.538  58.017  1.00  0.00    -0.177 NA
HETATM   26  C   UNL     1       7.086  30.231  58.076  1.00  0.00     0.079 A 
HETATM   27  C   UNL     1       8.270  29.804  58.864  1.00  0.00     0.075 C 
ENDBRANCH   1  20
TORSDOF 5
ENDMDL
MODEL 10
REMARK VINA RESULT:      -7.3      9.556     11.605
REMARK  5 active torsions:
REMARK  status: ('A' for Active; 'I' for Inactive)
REMARK    1  A    between atoms: C_8  and  N_9 
REMARK       I    between atoms: N_9  and  C_10 
REMARK       I    between atoms: C_10  and  N_11 
REMARK    2  A    between atoms: N_11  and  C_12 
REMARK    3  A    between atoms: C_13  and  O_14 
REMARK    4  A    between atoms: O_14  and  C_15 
REMARK    5  A    between atoms: C_15  and  C_16 
ROOT
HETATM    1  N   UNL     1       6.024  34.261  61.996  1.00  0.00    -0.305 N 
HETATM    2  C   UNL     1       5.615  33.086  61.392  1.00  0.00     0.325 C 
HETATM    3  N   UNL     1       5.916  33.114  60.042  1.00  0.00    -0.306 N 
HETATM    4  O   UNL     1       5.078  32.146  61.964  1.00  0.00    -0.247 OA
HETATM    5  H   UNL     1       6.849  34.685  61.599  1.00  0.00     0.171 HD
HETATM    6  H   UNL     1       5.920  34.030  59.610  1.00  0.00     0.171 HD
ENDROOT
BRANCH   3   7
HETATM    7  C   UNL     1       5.875  32.021  59.152  1.00  0.00     0.070 A 
HETATM    8  C   UNL     1       7.062  31.301  58.938  1.00  0.00     0.097 A 
HETATM    9  C   UNL     1       7.079  30.162  58.131  1.00  0.00     0.063 A 
HETATM   10  C   UNL     1       5.902  29.757  57.505  1.00  0.00     0.036 A 
HETATM   11 CL   UNL     1       5.908  28.358  56.504  1.00  0.00    -0.084 Cl
HETATM   12  C   UNL     1       4.721  30.475  57.684  1.00  0.00     0.026 A 
HETATM   13  C   UNL     1       4.707  31.604  58.511  1.00  0.00     0.034 A 
BRANCH   8  14
HETATM   14  O   UNL     1       8.208  31.735  59.561  1.00  0.00    -0.340 OA
BRANCH  14  15
HETATM   15  C   UNL     1       8.928  30.630  60.146  1.00  0.00     0.293 C 
BRANCH  15  16
HETATM   16  C   UNL     1       9.104  30.851  61.639  1.00  0.00     0.408 C 
HETATM   17  F   UNL     1       9.676  32.051  61.892  1.00  0.00    -0.169 F 
HETATM   18  F   UNL     1       7.924  30.810  62.293  1.00  0.00    -0.169 F 
HETATM   19  F   UNL     1       9.901  29.897  62.173  1.00  0.00    -0.169 F 
ENDBRANCH  15  16
ENDBRANCH  14  15
ENDBRANCH   8  14
ENDBRANCH   3   7
BRANCH   1  20
HETATM   20  C   UNL     1       5.697  34.642  63.286  1.00  0.00     0.086 A 
HETATM   21  C   UNL     1       6.414  34.237  64.394  1.00  0.00     0.052 A 
HETATM   22  C   UNL     1       7.580  33.340  64.563  1.00  0.00     0.072 C 
HETATM   23  N   UNL     1       5.792  34.814  65.466  1.00  0.00    -0.280 N 
HETATM   24  H   UNL     1       6.025  34.724  66.449  1.00  0.00     0.189 HD
HETATM   25  N   UNL     1       4.757  35.595  65.138  1.00  0.00    -0.177 NA
HETATM   26  C   UNL     1       4.687  35.503  63.801  1.00  0.00     0.079 A 
HETATM   27  C   UNL     1       3.672  36.315  63.083  1.00  0.00     0.075 C 
ENDBRANCH   1  20
TORSDOF 5
ENDMDL
