MODEL 1
REMARK VINA RESULT:      -8.6      0.000      0.000
REMARK  3 active torsions:
REMARK  status: ('A' for Active; 'I' for Inactive)
REMARK    1  A    between atoms: C_2  and  N_3 
REMARK       I    between atoms: N_3  and  C_4 
REMARK    2  A    between atoms: C_4  and  C_5 
REMARK    3  A    between atoms: C_5  and  C_6 
ROOT
HETATM    1  C   UNL     1       7.158  24.960  55.238  1.00  0.00     0.286 C 
HETATM    2  N   UNL     1       7.098  23.690  54.400  1.00  0.00    -0.056 N 
HETATM    3  H   UNL     1       6.483  23.033  54.927  1.00  0.00     0.278 HD
HETATM    4  H   UNL     1       6.625  23.866  53.506  1.00  0.00     0.278 HD
HETATM    5  C   UNL     1       8.461  23.080  54.188  1.00  0.00     0.209 C 
HETATM    6  C   UNL     1       9.095  22.761  55.567  1.00  0.00     0.115 C 
HETATM    7  N   UNL     1       9.030  23.900  56.484  1.00  0.00    -0.353 N 
HETATM    8  C   UNL     1       7.984  24.792  56.532  1.00  0.00     0.249 C 
HETATM    9  O   UNL     1       7.810  25.486  57.526  1.00  0.00    -0.271 OA
HETATM   10  C   UNL     1       8.330  21.849  53.291  1.00  0.00     0.035 C 
HETATM   11  C   UNL     1       7.700  20.652  53.996  1.00  0.00     0.002 C 
HETATM   12  C   UNL     1       8.428  20.326  55.295  1.00  0.00     0.002 C 
HETATM   13  C   UNL     1       8.466  21.528  56.232  1.00  0.00     0.027 C 
HETATM   14  H   UNL     1       9.550  23.841  57.358  1.00  0.00     0.163 HD
ENDROOT
BRANCH   1  15
HETATM   15  C   UNL     1       5.756  25.512  55.532  1.00  0.00     0.146 C 
BRANCH  15  16
HETATM   16  C   UNL     1       5.453  26.709  54.669  1.00  0.00     0.224 C 
HETATM   17  N   UNL     1       5.940  27.948  54.934  1.00  0.00    -0.327 N 
HETATM   18  H   UNL     1       5.545  28.642  54.303  1.00  0.00     0.169 HD
HETATM   19  O   UNL     1       4.760  26.541  53.655  1.00  0.00    -0.273 OA
BRANCH  17  20
HETATM   20  C   UNL     1       6.841  28.464  55.886  1.00  0.00     0.034 A 
HETATM   21  C   UNL     1       6.547  28.724  57.227  1.00  0.00     0.032 A 
HETATM   22  C   UNL     1       7.531  29.234  58.085  1.00  0.00     0.044 A 
HETATM   23  C   UNL     1       8.812  29.472  57.607  1.00  0.00     0.116 A 
HETATM   24  C   UNL     1       9.133  29.204  56.287  1.00  0.00     0.044 A 
HETATM   25  F   UNL     1       9.746  29.957  58.433  1.00  0.00    -0.206 F 
HETATM   26  C   UNL     1       8.151  28.696  55.432  1.00  0.00     0.032 A 
ENDBRANCH  17  20
ENDBRANCH  15  16
ENDBRANCH   1  15
TORSDOF 3
ENDMDL
MODEL 2
REMARK VINA RESULT:      -8.4      2.784      6.890
REMARK  3 active torsions:
REMARK  status: ('A' for Active; 'I' for Inactive)
REMARK    1  A    between atoms: C_2  and  N_3 
REMARK       I    between atoms: N_3  and  C_4 
REMARK    2  A    between atoms: C_4  and  C_5 
REMARK    3  A    between atoms: C_5  and  C_6 
ROOT
HETATM    1  C   UNL     1       6.557  26.998  55.794  1.00  0.00     0.286 C 
HETATM    2  N   UNL     1       8.007  27.459  55.848  1.00  0.00    -0.056 N 
HETATM    3  H   UNL     1       8.351  27.200  56.797  1.00  0.00     0.278 HD
HETATM    4  H   UNL     1       8.583  26.930  55.183  1.00  0.00     0.278 HD
HETATM    5  C   UNL     1       8.142  28.946  55.628  1.00  0.00     0.209 C 
HETATM    6  C   UNL     1       7.319  29.696  56.707  1.00  0.00     0.115 C 
HETATM    7  N   UNL     1       5.954  29.179  56.822  1.00  0.00    -0.353 N 
HETATM    8  C   UNL     1       5.616  27.855  56.668  1.00  0.00     0.249 C 
HETATM    9  O   UNL     1       4.559  27.432  57.119  1.00  0.00    -0.271 OA
HETATM   10  C   UNL     1       9.623  29.325  55.634  1.00  0.00     0.035 C 
HETATM   11  C   UNL     1      10.251  29.287  57.024  1.00  0.00     0.002 C 
HETATM   12  C   UNL     1       9.452  30.123  58.018  1.00  0.00     0.002 C 
HETATM   13  C   UNL     1       7.997  29.673  58.085  1.00  0.00     0.027 C 
HETATM   14  H   UNL     1       5.292  29.700  57.394  1.00  0.00     0.163 HD
ENDROOT
BRANCH   1  15
HETATM   15  C   UNL     1       6.425  25.504  56.121  1.00  0.00     0.146 C 
BRANCH  15  16
HETATM   16  C   UNL     1       7.557  25.039  57.001  1.00  0.00     0.224 C 
HETATM   17  N   UNL     1       8.232  23.883  56.778  1.00  0.00    -0.327 N 
HETATM   18  H   UNL     1       8.889  23.689  57.532  1.00  0.00     0.169 HD
HETATM   19  O   UNL     1       7.905  25.766  57.942  1.00  0.00    -0.273 OA
BRANCH  17  20
HETATM   20  C   UNL     1       8.203  22.911  55.759  1.00  0.00     0.034 A 
HETATM   21  C   UNL     1       7.999  21.542  55.945  1.00  0.00     0.032 A 
HETATM   22  C   UNL     1       7.986  20.669  54.849  1.00  0.00     0.044 A 
HETATM   23  C   UNL     1       8.162  21.165  53.566  1.00  0.00     0.116 A 
HETATM   24  C   UNL     1       8.346  22.521  53.353  1.00  0.00     0.044 A 
HETATM   25  F   UNL     1       8.146  20.325  52.524  1.00  0.00    -0.206 F 
HETATM   26  C   UNL     1       8.361  23.390  54.447  1.00  0.00     0.032 A 
ENDBRANCH  17  20
ENDBRANCH  15  16
ENDBRANCH   1  15
TORSDOF 3
ENDMDL
MODEL 3
REMARK VINA RESULT:      -8.3      3.134      6.450
REMARK  3 active torsions:
REMARK  status: ('A' for Active; 'I' for Inactive)
REMARK    1  A    between atoms: C_2  and  N_3 
REMARK       I    between atoms: N_3  and  C_4 
REMARK    2  A    between atoms: C_4  and  C_5 
REMARK    3  A    between atoms: C_5  and  C_6 
ROOT
HETATM    1  C   UNL     1       6.365  25.942  55.462  1.00  0.00     0.286 C 
HETATM    2  N   UNL     1       6.314  25.483  54.011  1.00  0.00    -0.056 N 
HETATM    3  H   UNL     1       6.958  26.117  53.492  1.00  0.00     0.278 HD
HETATM    4  H   UNL     1       6.704  24.538  53.914  1.00  0.00     0.278 HD
HETATM    5  C   UNL     1       4.921  25.563  53.436  1.00  0.00     0.209 C 
HETATM    6  C   UNL     1       4.413  27.025  53.536  1.00  0.00     0.115 C 
HETATM    7  N   UNL     1       4.594  27.585  54.876  1.00  0.00    -0.353 N 
HETATM    8  C   UNL     1       5.661  27.297  55.694  1.00  0.00     0.249 C 
HETATM    9  O   UNL     1       5.947  28.044  56.622  1.00  0.00    -0.271 OA
HETATM   10  C   UNL     1       4.935  25.031  52.003  1.00  0.00     0.035 C 
HETATM   11  C   UNL     1       5.598  25.982  51.012  1.00  0.00     0.002 C 
HETATM   12  C   UNL     1       4.989  27.377  51.088  1.00  0.00     0.002 C 
HETATM   13  C   UNL     1       5.071  27.948  52.499  1.00  0.00     0.027 C 
HETATM   14  H   UNL     1       4.158  28.482  55.083  1.00  0.00     0.163 HD
ENDROOT
BRANCH   1  15
HETATM   15  C   UNL     1       7.802  25.954  56.002  1.00  0.00     0.146 C 
BRANCH  15  16
HETATM   16  C   UNL     1       7.944  25.034  57.187  1.00  0.00     0.224 C 
HETATM   17  N   UNL     1       8.068  23.689  57.062  1.00  0.00    -0.327 N 
HETATM   18  H   UNL     1       8.050  23.231  57.970  1.00  0.00     0.169 HD
HETATM   19  O   UNL     1       7.987  25.538  58.319  1.00  0.00    -0.273 OA
BRANCH  17  20
HETATM   20  C   UNL     1       8.197  22.814  55.965  1.00  0.00     0.034 A 
HETATM   21  C   UNL     1       8.709  23.152  54.710  1.00  0.00     0.032 A 
HETATM   22  C   UNL     1       8.793  22.191  53.693  1.00  0.00     0.044 A 
HETATM   23  C   UNL     1       8.378  20.889  53.934  1.00  0.00     0.116 A 
HETATM   24  C   UNL     1       7.886  20.524  55.175  1.00  0.00     0.044 A 
HETATM   25  F   UNL     1       8.464  19.977  52.959  1.00  0.00    -0.206 F 
HETATM   26  C   UNL     1       7.801  21.484  56.188  1.00  0.00     0.032 A 
ENDBRANCH  17  20
ENDBRANCH  15  16
ENDBRANCH   1  15
TORSDOF 3
ENDMDL
MODEL 4
REMARK VINA RESULT:      -8.3      2.846      7.227
REMARK  3 active torsions:
REMARK  status: ('A' for Active; 'I' for Inactive)
REMARK    1  A    between atoms: C_2  and  N_3 
REMARK       I    between atoms: N_3  and  C_4 
REMARK    2  A    between atoms: C_4  and  C_5 
REMARK    3  A    between atoms: C_5  and  C_6 
ROOT
HETATM    1  C   UNL     1       6.649  26.288  55.849  1.00  0.00     0.286 C 
HETATM    2  N   UNL     1       6.484  27.513  56.738  1.00  0.00    -0.056 N 
HETATM    3  H   UNL     1       5.582  27.376  57.242  1.00  0.00     0.278 HD
HETATM    4  H   UNL     1       7.213  27.538  57.461  1.00  0.00     0.278 HD
HETATM    5  C   UNL     1       6.455  28.795  55.944  1.00  0.00     0.209 C 
HETATM    6  C   UNL     1       5.288  28.735  54.923  1.00  0.00     0.115 C 
HETATM    7  N   UNL     1       5.293  27.493  54.149  1.00  0.00    -0.353 N 
HETATM    8  C   UNL     1       5.670  26.271  54.655  1.00  0.00     0.249 C 
HETATM    9  O   UNL     1       5.320  25.238  54.097  1.00  0.00    -0.271 OA
HETATM   10  C   UNL     1       6.351  29.981  56.903  1.00  0.00     0.035 C 
HETATM   11  C   UNL     1       4.971  30.126  57.536  1.00  0.00     0.002 C 
HETATM   12  C   UNL     1       3.874  30.160  56.478  1.00  0.00     0.002 C 
HETATM   13  C   UNL     1       3.917  28.923  55.588  1.00  0.00     0.027 C 
HETATM   14  H   UNL     1       4.660  27.422  53.354  1.00  0.00     0.163 HD
ENDROOT
BRANCH   1  15
HETATM   15  C   UNL     1       6.574  24.986  56.659  1.00  0.00     0.146 C 
BRANCH  15  16
HETATM   16  C   UNL     1       7.922  24.618  57.222  1.00  0.00     0.224 C 
HETATM   17  N   UNL     1       8.626  23.539  56.796  1.00  0.00    -0.327 N 
HETATM   18  H   UNL     1       9.460  23.397  57.361  1.00  0.00     0.169 HD
HETATM   19  O   UNL     1       8.420  25.358  58.083  1.00  0.00    -0.273 OA
BRANCH  17  20
HETATM   20  C   UNL     1       8.441  22.589  55.772  1.00  0.00     0.034 A 
HETATM   21  C   UNL     1       8.120  21.243  55.959  1.00  0.00     0.032 A 
HETATM   22  C   UNL     1       7.954  20.391  54.859  1.00  0.00     0.044 A 
HETATM   23  C   UNL     1       8.096  20.887  53.571  1.00  0.00     0.116 A 
HETATM   24  C   UNL     1       8.394  22.222  53.358  1.00  0.00     0.044 A 
HETATM   25  F   UNL     1       7.934  20.068  52.525  1.00  0.00    -0.206 F 
HETATM   26  C   UNL     1       8.561  23.071  54.456  1.00  0.00     0.032 A 
ENDBRANCH  17  20
ENDBRANCH  15  16
ENDBRANCH   1  15
TORSDOF 3
ENDMDL
MODEL 5
REMARK VINA RESULT:      -7.9      2.531      4.069
REMARK  3 active torsions:
REMARK  status: ('A' for Active; 'I' for Inactive)
REMARK    1  A    between atoms: C_2  and  N_3 
REMARK       I    between atoms: N_3  and  C_4 
REMARK    2  A    between atoms: C_4  and  C_5 
REMARK    3  A    between atoms: C_5  and  C_6 
ROOT
HETATM    1  C   UNL     1       5.120  27.628  55.202  1.00  0.00     0.286 C 
HETATM    2  N   UNL     1       6.220  26.575  55.249  1.00  0.00    -0.056 N 
HETATM    3  H   UNL     1       6.964  26.916  54.604  1.00  0.00     0.278 HD
HETATM    4  H   UNL     1       6.647  26.536  56.182  1.00  0.00     0.278 HD
HETATM    5  C   UNL     1       5.728  25.217  54.814  1.00  0.00     0.209 C 
HETATM    6  C   UNL     1       5.167  25.316  53.371  1.00  0.00     0.115 C 
HETATM    7  N   UNL     1       4.225  26.426  53.219  1.00  0.00    -0.353 N 
HETATM    8  C   UNL     1       4.344  27.633  53.868  1.00  0.00     0.249 C 
HETATM    9  O   UNL     1       3.759  28.622  53.443  1.00  0.00    -0.271 OA
HETATM   10  C   UNL     1       6.865  24.202  54.945  1.00  0.00     0.035 C 
HETATM   11  C   UNL     1       7.941  24.360  53.876  1.00  0.00     0.002 C 
HETATM   12  C   UNL     1       7.339  24.352  52.475  1.00  0.00     0.002 C 
HETATM   13  C   UNL     1       6.277  25.434  52.316  1.00  0.00     0.027 C 
HETATM   14  H   UNL     1       3.691  26.484  52.354  1.00  0.00     0.163 HD
ENDROOT
BRANCH   1  15
HETATM   15  C   UNL     1       5.658  29.024  55.547  1.00  0.00     0.146 C 
BRANCH  15  16
HETATM   16  C   UNL     1       5.470  29.331  57.010  1.00  0.00     0.224 C 
HETATM   17  N   UNL     1       6.510  29.530  57.858  1.00  0.00    -0.327 N 
HETATM   18  H   UNL     1       6.190  29.623  58.819  1.00  0.00     0.169 HD
HETATM   19  O   UNL     1       4.313  29.443  57.443  1.00  0.00    -0.273 OA
BRANCH  17  20
HETATM   20  C   UNL     1       7.907  29.615  57.693  1.00  0.00     0.034 A 
HETATM   21  C   UNL     1       8.686  28.769  56.900  1.00  0.00     0.032 A 
HETATM   22  C   UNL     1      10.072  28.956  56.809  1.00  0.00     0.044 A 
HETATM   23  C   UNL     1      10.678  29.996  57.499  1.00  0.00     0.116 A 
HETATM   24  C   UNL     1       9.925  30.860  58.276  1.00  0.00     0.044 A 
HETATM   25  F   UNL     1      12.002  30.168  57.405  1.00  0.00    -0.206 F 
HETATM   26  C   UNL     1       8.543  30.673  58.367  1.00  0.00     0.032 A 
ENDBRANCH  17  20
ENDBRANCH  15  16
ENDBRANCH   1  15
TORSDOF 3
ENDMDL
MODEL 6
REMARK VINA RESULT:      -7.8      2.657      6.376
REMARK  3 active torsions:
REMARK  status: ('A' for Active; 'I' for Inactive)
REMARK    1  A    between atoms: C_2  and  N_3 
REMARK       I    between atoms: N_3  and  C_4 
REMARK    2  A    between atoms: C_4  and  C_5 
REMARK    3  A    between atoms: C_5  and  C_6 
ROOT
HETATM    1  C   UNL     1       6.380  26.990  53.729  1.00  0.00     0.286 C 
HETATM    2  N   UNL     1       7.465  27.210  54.776  1.00  0.00    -0.056 N 
HETATM    3  H   UNL     1       7.138  26.710  55.630  1.00  0.00     0.278 HD
HETATM    4  H   UNL     1       8.340  26.752  54.495  1.00  0.00     0.278 HD
HETATM    5  C   UNL     1       7.682  28.673  55.074  1.00  0.00     0.209 C 
HETATM    6  C   UNL     1       6.351  29.295  55.568  1.00  0.00     0.115 C 
HETATM    7  N   UNL     1       5.227  28.974  54.687  1.00  0.00    -0.353 N 
HETATM    8  C   UNL     1       5.085  27.776  54.026  1.00  0.00     0.249 C 
HETATM    9  O   UNL     1       3.987  27.429  53.608  1.00  0.00    -0.271 OA
HETATM   10  C   UNL     1       8.822  28.819  56.082  1.00  0.00     0.035 C 
HETATM   11  C   UNL     1       8.435  28.399  57.496  1.00  0.00     0.002 C 
HETATM   12  C   UNL     1       7.174  29.118  57.964  1.00  0.00     0.002 C 
HETATM   13  C   UNL     1       6.010  28.884  57.008  1.00  0.00     0.027 C 
HETATM   14  H   UNL     1       4.344  29.456  54.842  1.00  0.00     0.163 HD
ENDROOT
BRANCH   1  15
HETATM   15  C   UNL     1       6.097  25.497  53.512  1.00  0.00     0.146 C 
BRANCH  15  16
HETATM   16  C   UNL     1       7.176  24.856  52.678  1.00  0.00     0.224 C 
HETATM   17  N   UNL     1       8.026  23.920  53.171  1.00  0.00    -0.327 N 
HETATM   18  H   UNL     1       8.746  23.681  52.492  1.00  0.00     0.169 HD
HETATM   19  O   UNL     1       7.261  25.174  51.483  1.00  0.00    -0.273 OA
BRANCH  17  20
HETATM   20  C   UNL     1       8.129  23.239  54.400  1.00  0.00     0.034 A 
HETATM   21  C   UNL     1       8.466  23.819  55.626  1.00  0.00     0.032 A 
HETATM   22  C   UNL     1       8.531  23.038  56.788  1.00  0.00     0.044 A 
HETATM   23  C   UNL     1       8.247  21.681  56.729  1.00  0.00     0.116 A 
HETATM   24  C   UNL     1       7.890  21.087  55.530  1.00  0.00     0.044 A 
HETATM   25  F   UNL     1       8.309  20.944  57.843  1.00  0.00    -0.206 F 
HETATM   26  C   UNL     1       7.827  21.866  54.371  1.00  0.00     0.032 A 
ENDBRANCH  17  20
ENDBRANCH  15  16
ENDBRANCH   1  15
TORSDOF 3
ENDMDL
MODEL 7
REMARK VINA RESULT:      -7.7      3.174      7.019
REMARK  3 active torsions:
REMARK  status: ('A' for Active; 'I' for Inactive)
REMARK    1  A    between atoms: C_2  and  N_3 
REMARK       I    between atoms: N_3  and  C_4 
REMARK    2  A    between atoms: C_4  and  C_5 
REMARK    3  A    between atoms: C_5  and  C_6 
ROOT
HETATM    1  C   UNL     1       5.771  26.393  54.766  1.00  0.00     0.286 C 
HETATM    2  N   UNL     1       5.552  27.842  54.354  1.00  0.00    -0.056 N 
HETATM    3  H   UNL     1       6.329  28.381  54.793  1.00  0.00     0.278 HD
HETATM    4  H   UNL     1       5.665  27.954  53.340  1.00  0.00     0.278 HD
HETATM    5  C   UNL     1       4.217  28.372  54.818  1.00  0.00     0.209 C 
HETATM    6  C   UNL     1       4.131  28.253  56.362  1.00  0.00     0.115 C 
HETATM    7  N   UNL     1       4.499  26.918  56.836  1.00  0.00    -0.353 N 
HETATM    8  C   UNL     1       5.472  26.136  56.259  1.00  0.00     0.249 C 
HETATM    9  O   UNL     1       5.979  25.216  56.890  1.00  0.00    -0.271 OA
HETATM   10  C   UNL     1       4.041  29.805  54.317  1.00  0.00     0.035 C 
HETATM   11  C   UNL     1       4.908  30.816  55.061  1.00  0.00     0.002 C 
HETATM   12  C   UNL     1       4.706  30.718  56.569  1.00  0.00     0.002 C 
HETATM   13  C   UNL     1       4.984  29.309  57.080  1.00  0.00     0.027 C 
HETATM   14  H   UNL     1       4.331  26.696  57.816  1.00  0.00     0.163 HD
ENDROOT
BRANCH   1  15
HETATM   15  C   UNL     1       7.172  25.900  54.379  1.00  0.00     0.146 C 
BRANCH  15  16
HETATM   16  C   UNL     1       7.166  25.267  53.012  1.00  0.00     0.224 C 
HETATM   17  N   UNL     1       7.434  23.952  52.810  1.00  0.00    -0.327 N 
HETATM   18  H   UNL     1       7.483  23.734  51.817  1.00  0.00     0.169 HD
HETATM   19  O   UNL     1       6.866  25.974  52.039  1.00  0.00    -0.273 OA
BRANCH  17  20
HETATM   20  C   UNL     1       7.670  22.857  53.665  1.00  0.00     0.034 A 
HETATM   21  C   UNL     1       7.617  22.888  55.060  1.00  0.00     0.032 A 
HETATM   22  C   UNL     1       7.866  21.729  55.807  1.00  0.00     0.044 A 
HETATM   23  C   UNL     1       8.154  20.536  55.161  1.00  0.00     0.116 A 
HETATM   24  C   UNL     1       8.193  20.474  53.778  1.00  0.00     0.044 A 
HETATM   25  F   UNL     1       8.389  19.433  55.881  1.00  0.00    -0.206 F 
HETATM   26  C   UNL     1       7.946  21.631  53.033  1.00  0.00     0.032 A 
ENDBRANCH  17  20
ENDBRANCH  15  16
ENDBRANCH   1  15
TORSDOF 3
ENDMDL
MODEL 8
REMARK VINA RESULT:      -7.5      2.935      6.677
REMARK  3 active torsions:
REMARK  status: ('A' for Active; 'I' for Inactive)
REMARK    1  A    between atoms: C_2  and  N_3 
REMARK       I    between atoms: N_3  and  C_4 
REMARK    2  A    between atoms: C_4  and  C_5 
REMARK    3  A    between atoms: C_5  and  C_6 
ROOT
HETATM    1  C   UNL     1       5.039  25.681  54.982  1.00  0.00     0.286 C 
HETATM    2  N   UNL     1       4.870  27.171  54.717  1.00  0.00    -0.056 N 
HETATM    3  H   UNL     1       5.804  27.510  54.405  1.00  0.00     0.278 HD
HETATM    4  H   UNL     1       4.231  27.330  53.929  1.00  0.00     0.278 HD
HETATM    5  C   UNL     1       4.421  27.922  55.947  1.00  0.00     0.209 C 
HETATM    6  C   UNL     1       5.460  27.711  57.079  1.00  0.00     0.115 C 
HETATM    7  N   UNL     1       5.795  26.299  57.268  1.00  0.00    -0.353 N 
HETATM    8  C   UNL     1       5.874  25.382  56.246  1.00  0.00     0.249 C 
HETATM    9  O   UNL     1       6.493  24.337  56.402  1.00  0.00    -0.271 OA
HETATM   10  C   UNL     1       4.212  29.394  55.591  1.00  0.00     0.035 C 
HETATM   11  C   UNL     1       5.517  30.154  55.378  1.00  0.00     0.002 C 
HETATM   12  C   UNL     1       6.458  29.990  56.567  1.00  0.00     0.002 C 
HETATM   13  C   UNL     1       6.745  28.521  56.853  1.00  0.00     0.027 C 
HETATM   14  H   UNL     1       6.351  26.045  58.082  1.00  0.00     0.163 HD
ENDROOT
BRANCH   1  15
HETATM   15  C   UNL     1       5.594  24.947  53.753  1.00  0.00     0.146 C 
BRANCH  15  16
HETATM   16  C   UNL     1       6.960  25.463  53.384  1.00  0.00     0.224 C 
HETATM   17  N   UNL     1       8.084  24.709  53.488  1.00  0.00    -0.327 N 
HETATM   18  H   UNL     1       8.917  25.259  53.292  1.00  0.00     0.169 HD
HETATM   19  O   UNL     1       7.050  26.614  52.930  1.00  0.00    -0.273 OA
BRANCH  17  20
HETATM   20  C   UNL     1       8.333  23.363  53.821  1.00  0.00     0.034 A 
HETATM   21  C   UNL     1       9.009  22.917  54.959  1.00  0.00     0.032 A 
HETATM   22  C   UNL     1       9.192  21.547  55.186  1.00  0.00     0.044 A 
HETATM   23  C   UNL     1       8.689  20.620  54.285  1.00  0.00     0.116 A 
HETATM   24  C   UNL     1       7.997  21.036  53.159  1.00  0.00     0.044 A 
HETATM   25  F   UNL     1       8.866  19.313  54.510  1.00  0.00    -0.206 F 
HETATM   26  C   UNL     1       7.816  22.403  52.932  1.00  0.00     0.032 A 
ENDBRANCH  17  20
ENDBRANCH  15  16
ENDBRANCH   1  15
TORSDOF 3
ENDMDL
MODEL 9
REMARK VINA RESULT:      -7.5      5.256      6.919
REMARK  3 active torsions:
REMARK  status: ('A' for Active; 'I' for Inactive)
REMARK    1  A    between atoms: C_2  and  N_3 
REMARK       I    between atoms: N_3  and  C_4 
REMARK    2  A    between atoms: C_4  and  C_5 
REMARK    3  A    between atoms: C_5  and  C_6 
ROOT
HETATM    1  C   UNL     1       5.469  27.591  52.981  1.00  0.00     0.286 C 
HETATM    2  N   UNL     1       6.145  26.361  52.388  1.00  0.00    -0.056 N 
HETATM    3  H   UNL     1       5.470  25.578  52.519  1.00  0.00     0.278 HD
HETATM    4  H   UNL     1       6.266  26.466  51.374  1.00  0.00     0.278 HD
HETATM    5  C   UNL     1       7.455  26.047  53.067  1.00  0.00     0.209 C 
HETATM    6  C   UNL     1       7.202  25.821  54.581  1.00  0.00     0.115 C 
HETATM    7  N   UNL     1       6.405  26.894  55.176  1.00  0.00    -0.353 N 
HETATM    8  C   UNL     1       5.391  27.554  54.522  1.00  0.00     0.249 C 
HETATM    9  O   UNL     1       4.543  28.167  55.159  1.00  0.00    -0.271 OA
HETATM   10  C   UNL     1       8.103  24.844  52.382  1.00  0.00     0.035 C 
HETATM   11  C   UNL     1       7.409  23.522  52.699  1.00  0.00     0.002 C 
HETATM   12  C   UNL     1       7.278  23.310  54.203  1.00  0.00     0.002 C 
HETATM   13  C   UNL     1       6.539  24.466  54.869  1.00  0.00     0.027 C 
HETATM   14  H   UNL     1       6.312  26.915  56.190  1.00  0.00     0.163 HD
ENDROOT
BRANCH   1  15
HETATM   15  C   UNL     1       4.091  27.839  52.351  1.00  0.00     0.146 C 
BRANCH  15  16
HETATM   16  C   UNL     1       4.098  29.083  51.502  1.00  0.00     0.224 C 
HETATM   17  N   UNL     1       3.865  29.061  50.165  1.00  0.00    -0.327 N 
HETATM   18  H   UNL     1       4.012  29.979  49.750  1.00  0.00     0.169 HD
HETATM   19  O   UNL     1       4.287  30.174  52.061  1.00  0.00    -0.273 OA
BRANCH  17  20
HETATM   20  C   UNL     1       3.490  28.056  49.252  1.00  0.00     0.034 A 
HETATM   21  C   UNL     1       2.201  27.844  48.759  1.00  0.00     0.032 A 
HETATM   22  C   UNL     1       1.948  26.812  47.846  1.00  0.00     0.044 A 
HETATM   23  C   UNL     1       2.987  25.998  47.415  1.00  0.00     0.116 A 
HETATM   24  C   UNL     1       4.278  26.201  47.873  1.00  0.00     0.044 A 
HETATM   25  F   UNL     1       2.738  25.016  46.541  1.00  0.00    -0.206 F 
HETATM   26  C   UNL     1       4.528  27.230  48.785  1.00  0.00     0.032 A 
ENDBRANCH  17  20
ENDBRANCH  15  16
ENDBRANCH   1  15
TORSDOF 3
ENDMDL
MODEL 10
REMARK VINA RESULT:      -7.5      4.033      7.271
REMARK  3 active torsions:
REMARK  status: ('A' for Active; 'I' for Inactive)
REMARK    1  A    between atoms: C_2  and  N_3 
REMARK       I    between atoms: N_3  and  C_4 
REMARK    2  A    between atoms: C_4  and  C_5 
REMARK    3  A    between atoms: C_5  and  C_6 
ROOT
HETATM    1  C   UNL     1       4.324  27.188  53.065  1.00  0.00     0.286 C 
HETATM    2  N   UNL     1       4.858  27.207  51.639  1.00  0.00    -0.056 N 
HETATM    3  H   UNL     1       5.796  27.658  51.695  1.00  0.00     0.278 HD
HETATM    4  H   UNL     1       5.021  26.252  51.299  1.00  0.00     0.278 HD
HETATM    5  C   UNL     1       3.959  27.977  50.704  1.00  0.00     0.209 C 
HETATM    6  C   UNL     1       3.811  29.432  51.221  1.00  0.00     0.115 C 
HETATM    7  N   UNL     1       3.463  29.482  52.642  1.00  0.00    -0.353 N 
HETATM    8  C   UNL     1       3.924  28.588  53.580  1.00  0.00     0.249 C 
HETATM    9  O   UNL     1       3.901  28.877  54.771  1.00  0.00    -0.271 OA
HETATM   10  C   UNL     1       4.523  27.901  49.285  1.00  0.00     0.035 C 
HETATM   11  C   UNL     1       5.771  28.755  49.084  1.00  0.00     0.002 C 
HETATM   12  C   UNL     1       5.534  30.197  49.519  1.00  0.00     0.002 C 
HETATM   13  C   UNL     1       5.070  30.275  50.969  1.00  0.00     0.027 C 
HETATM   14  H   UNL     1       3.199  30.381  53.038  1.00  0.00     0.163 HD
ENDROOT
BRANCH   1  15
HETATM   15  C   UNL     1       5.299  26.492  54.026  1.00  0.00     0.146 C 
BRANCH  15  16
HETATM   16  C   UNL     1       6.729  26.794  53.661  1.00  0.00     0.224 C 
HETATM   17  N   UNL     1       7.709  25.855  53.695  1.00  0.00    -0.327 N 
HETATM   18  H   UNL     1       8.622  26.269  53.516  1.00  0.00     0.169 HD
HETATM   19  O   UNL     1       7.008  27.939  53.278  1.00  0.00    -0.273 OA
BRANCH  17  20
HETATM   20  C   UNL     1       7.730  24.468  53.937  1.00  0.00     0.034 A 
HETATM   21  C   UNL     1       7.587  23.857  55.185  1.00  0.00     0.032 A 
HETATM   22  C   UNL     1       7.619  22.461  55.303  1.00  0.00     0.044 A 
HETATM   23  C   UNL     1       7.780  21.674  54.172  1.00  0.00     0.116 A 
HETATM   24  C   UNL     1       7.904  22.254  52.921  1.00  0.00     0.044 A 
HETATM   25  F   UNL     1       7.807  20.342  54.292  1.00  0.00    -0.206 F 
HETATM   26  C   UNL     1       7.874  23.647  52.805  1.00  0.00     0.032 A 
ENDBRANCH  17  20
ENDBRANCH  15  16
ENDBRANCH   1  15
TORSDOF 3
ENDMDL
