MODEL 1
REMARK VINA RESULT:      -9.9      0.000      0.000
REMARK  6 active torsions:
REMARK  status: ('A' for Active; 'I' for Inactive)
REMARK    1  A    between atoms: C_7  and  C_8 
REMARK    2  A    between atoms: N_9  and  N_10 
REMARK       I    between atoms: N_10  and  C_11 
REMARK    3  A    between atoms: C_11  and  C_12 
REMARK    4  A    between atoms: C_15  and  O_16 
REMARK    5  A    between atoms: O_16  and  C_17 
REMARK    6  A    between atoms: C_17  and  C_20 
ROOT
HETATM    1  N   UNL     1       7.967  27.101  57.446  1.00  0.00    -0.243 N 
HETATM    2  C   UNL     1       7.083  26.368  56.662  1.00  0.00     0.271 C 
HETATM    3  O   UNL     1       5.889  26.616  56.510  1.00  0.00    -0.266 OA
HETATM    4  H   UNL     1       8.907  26.763  57.607  1.00  0.00     0.192 HD
ENDROOT
BRANCH   1   5
HETATM    5  N   UNL     1       7.643  28.167  58.251  1.00  0.00    -0.183 NA
HETATM    6  C   UNL     1       7.794  29.367  57.789  1.00  0.00     0.153 C 
BRANCH   6   7
HETATM    7  C   UNL     1       7.422  30.512  58.605  1.00  0.00     0.018 A 
HETATM    8  C   UNL     1       6.404  31.398  58.272  1.00  0.00     0.018 A 
HETATM    9  C   UNL     1       5.489  31.433  57.100  1.00  0.00     0.069 C 
HETATM   10  N   UNL     1       6.333  32.346  59.261  1.00  0.00    -0.358 N 
HETATM   11  H   UNL     1       5.681  33.117  59.282  1.00  0.00     0.166 HD
HETATM   12  C   UNL     1       7.272  32.106  60.232  1.00  0.00     0.043 A 
HETATM   13  C   UNL     1       7.973  30.960  59.853  1.00  0.00     0.004 A 
HETATM   14  C   UNL     1       7.547  32.813  61.410  1.00  0.00     0.030 A 
HETATM   15  C   UNL     1       9.001  30.501  60.706  1.00  0.00     0.014 A 
HETATM   16  C   UNL     1       9.288  31.194  61.888  1.00  0.00     0.001 A 
HETATM   17  C   UNL     1       8.570  32.335  62.233  1.00  0.00     0.002 A 
ENDBRANCH   6   7
ENDBRANCH   1   5
BRANCH   2  18
HETATM   18  C   UNL     1       7.662  25.199  55.933  1.00  0.00     0.033 A 
HETATM   19  C   UNL     1       8.600  24.328  56.498  1.00  0.00     0.020 A 
HETATM   20  C   UNL     1       9.108  23.262  55.744  1.00  0.00     0.038 A 
HETATM   21  C   UNL     1       8.683  23.040  54.430  1.00  0.00     0.075 A 
HETATM   22  C   UNL     1       7.732  23.893  53.875  1.00  0.00     0.038 A 
HETATM   23  C   UNL     1       7.224  24.962  54.623  1.00  0.00     0.020 A 
BRANCH  21  24
HETATM   24  O   UNL     1       9.272  21.971  53.818  1.00  0.00    -0.279 OA
BRANCH  24  25
HETATM   25  C   UNL     1       8.504  20.777  53.640  1.00  0.00     0.418 C 
HETATM   26  F   UNL     1       7.253  21.101  53.226  1.00  0.00    -0.169 F 
HETATM   27  F   UNL     1       9.086  20.028  52.664  1.00  0.00    -0.169 F 
BRANCH  25  28
HETATM   28  C   UNL     1       8.463  19.977  54.942  1.00  0.00     0.455 C 
HETATM   29  F   UNL     1       9.596  20.159  55.672  1.00  0.00    -0.205 F 
HETATM   30  F   UNL     1       7.431  20.376  55.733  1.00  0.00    -0.205 F 
ENDBRANCH  25  28
ENDBRANCH  24  25
ENDBRANCH  21  24
ENDBRANCH   2  18
TORSDOF 6
ENDMDL
MODEL 2
REMARK VINA RESULT:      -9.8      5.618     10.278
REMARK  6 active torsions:
REMARK  status: ('A' for Active; 'I' for Inactive)
REMARK    1  A    between atoms: C_7  and  C_8 
REMARK    2  A    between atoms: N_9  and  N_10 
REMARK       I    between atoms: N_10  and  C_11 
REMARK    3  A    between atoms: C_11  and  C_12 
REMARK    4  A    between atoms: C_15  and  O_16 
REMARK    5  A    between atoms: O_16  and  C_17 
REMARK    6  A    between atoms: C_17  and  C_20 
ROOT
HETATM    1  N   UNL     1       7.230  26.825  56.908  1.00  0.00    -0.243 N 
HETATM    2  C   UNL     1       6.547  28.001  56.618  1.00  0.00     0.271 C 
HETATM    3  O   UNL     1       5.695  28.135  55.743  1.00  0.00    -0.266 OA
HETATM    4  H   UNL     1       7.997  26.829  57.568  1.00  0.00     0.192 HD
ENDROOT
BRANCH   1   5
HETATM    5  N   UNL     1       7.136  25.643  56.213  1.00  0.00    -0.183 NA
HETATM    6  C   UNL     1       7.972  25.415  55.251  1.00  0.00     0.153 C 
BRANCH   6   7
HETATM    7  C   UNL     1       7.919  24.155  54.526  1.00  0.00     0.018 A 
HETATM    8  C   UNL     1       7.714  24.063  53.154  1.00  0.00     0.018 A 
HETATM    9  C   UNL     1       7.507  25.118  52.128  1.00  0.00     0.069 C 
HETATM   10  N   UNL     1       7.722  22.733  52.818  1.00  0.00    -0.358 N 
HETATM   11  H   UNL     1       7.597  22.368  51.884  1.00  0.00     0.166 HD
HETATM   12  C   UNL     1       7.929  21.952  53.928  1.00  0.00     0.043 A 
HETATM   13  C   UNL     1       8.059  22.813  55.019  1.00  0.00     0.004 A 
HETATM   14  C   UNL     1       8.014  20.559  54.042  1.00  0.00     0.030 A 
HETATM   15  C   UNL     1       8.288  22.241  56.289  1.00  0.00     0.014 A 
HETATM   16  C   UNL     1       8.377  20.850  56.422  1.00  0.00     0.001 A 
HETATM   17  C   UNL     1       8.240  20.022  55.312  1.00  0.00     0.002 A 
ENDBRANCH   6   7
ENDBRANCH   1   5
BRANCH   2  18
HETATM   18  C   UNL     1       6.878  29.182  57.473  1.00  0.00     0.033 A 
HETATM   19  C   UNL     1       6.120  30.358  57.486  1.00  0.00     0.020 A 
HETATM   20  C   UNL     1       6.504  31.428  58.305  1.00  0.00     0.038 A 
HETATM   21  C   UNL     1       7.632  31.339  59.128  1.00  0.00     0.075 A 
HETATM   22  C   UNL     1       8.372  30.159  59.133  1.00  0.00     0.038 A 
HETATM   23  C   UNL     1       7.996  29.089  58.313  1.00  0.00     0.020 A 
BRANCH  21  24
HETATM   24  O   UNL     1       7.887  32.462  59.861  1.00  0.00    -0.279 OA
BRANCH  24  25
HETATM   25  C   UNL     1       7.470  32.495  61.230  1.00  0.00     0.418 C 
HETATM   26  F   UNL     1       7.110  33.761  61.563  1.00  0.00    -0.169 F 
HETATM   27  F   UNL     1       6.375  31.699  61.369  1.00  0.00    -0.169 F 
BRANCH  25  28
HETATM   28  C   UNL     1       8.590  31.985  62.136  1.00  0.00     0.455 C 
HETATM   29  F   UNL     1       9.812  32.160  61.562  1.00  0.00    -0.205 F 
HETATM   30  F   UNL     1       8.621  32.666  63.313  1.00  0.00    -0.205 F 
ENDBRANCH  25  28
ENDBRANCH  24  25
ENDBRANCH  21  24
ENDBRANCH   2  18
TORSDOF 6
ENDMDL
MODEL 3
REMARK VINA RESULT:      -9.5      5.710     10.245
REMARK  6 active torsions:
REMARK  status: ('A' for Active; 'I' for Inactive)
REMARK    1  A    between atoms: C_7  and  C_8 
REMARK    2  A    between atoms: N_9  and  N_10 
REMARK       I    between atoms: N_10  and  C_11 
REMARK    3  A    between atoms: C_11  and  C_12 
REMARK    4  A    between atoms: C_15  and  O_16 
REMARK    5  A    between atoms: O_16  and  C_17 
REMARK    6  A    between atoms: C_17  and  C_20 
ROOT
HETATM    1  N   UNL     1       7.768  28.377  56.724  1.00  0.00    -0.243 N 
HETATM    2  C   UNL     1       8.688  29.414  56.834  1.00  0.00     0.271 C 
HETATM    3  O   UNL     1       9.587  29.658  56.033  1.00  0.00    -0.266 OA
HETATM    4  H   UNL     1       7.132  28.176  57.485  1.00  0.00     0.192 HD
ENDROOT
BRANCH   1   5
HETATM    5  N   UNL     1       7.760  27.401  55.757  1.00  0.00    -0.183 NA
HETATM    6  C   UNL     1       6.940  26.406  55.879  1.00  0.00     0.153 C 
BRANCH   6   7
HETATM    7  C   UNL     1       6.883  25.381  54.849  1.00  0.00     0.018 A 
HETATM    8  C   UNL     1       6.013  25.423  53.766  1.00  0.00     0.018 A 
HETATM    9  C   UNL     1       4.987  26.427  53.380  1.00  0.00     0.069 C 
HETATM   10  N   UNL     1       6.234  24.302  53.007  1.00  0.00    -0.358 N 
HETATM   11  H   UNL     1       5.743  24.070  52.155  1.00  0.00     0.166 HD
HETATM   12  C   UNL     1       7.224  23.529  53.559  1.00  0.00     0.043 A 
HETATM   13  C   UNL     1       7.656  24.177  54.718  1.00  0.00     0.004 A 
HETATM   14  C   UNL     1       7.765  22.314  53.119  1.00  0.00     0.030 A 
HETATM   15  C   UNL     1       8.688  23.573  55.468  1.00  0.00     0.014 A 
HETATM   16  C   UNL     1       9.242  22.360  55.043  1.00  0.00     0.001 A 
HETATM   17  C   UNL     1       8.785  21.740  53.884  1.00  0.00     0.002 A 
ENDBRANCH   6   7
ENDBRANCH   1   5
BRANCH   2  18
HETATM   18  C   UNL     1       8.536  30.307  58.022  1.00  0.00     0.033 A 
HETATM   19  C   UNL     1       9.613  30.736  58.806  1.00  0.00     0.020 A 
HETATM   20  C   UNL     1       9.385  31.562  59.914  1.00  0.00     0.038 A 
HETATM   21  C   UNL     1       8.094  31.981  60.250  1.00  0.00     0.075 A 
HETATM   22  C   UNL     1       7.024  31.573  59.457  1.00  0.00     0.038 A 
HETATM   23  C   UNL     1       7.245  30.744  58.350  1.00  0.00     0.020 A 
BRANCH  21  24
HETATM   24  O   UNL     1       8.026  32.773  61.360  1.00  0.00    -0.279 OA
BRANCH  24  25
HETATM   25  C   UNL     1       7.738  32.160  62.621  1.00  0.00     0.418 C 
HETATM   26  F   UNL     1       8.034  30.836  62.558  1.00  0.00    -0.169 F 
HETATM   27  F   UNL     1       8.536  32.721  63.569  1.00  0.00    -0.169 F 
BRANCH  25  28
HETATM   28  C   UNL     1       6.272  32.379  62.992  1.00  0.00     0.455 C 
HETATM   29  F   UNL     1       5.655  33.210  62.108  1.00  0.00    -0.205 F 
HETATM   30  F   UNL     1       5.576  31.210  62.965  1.00  0.00    -0.205 F 
ENDBRANCH  25  28
ENDBRANCH  24  25
ENDBRANCH  21  24
ENDBRANCH   2  18
TORSDOF 6
ENDMDL
MODEL 4
REMARK VINA RESULT:      -9.1      6.368     10.881
REMARK  6 active torsions:
REMARK  status: ('A' for Active; 'I' for Inactive)
REMARK    1  A    between atoms: C_7  and  C_8 
REMARK    2  A    between atoms: N_9  and  N_10 
REMARK       I    between atoms: N_10  and  C_11 
REMARK    3  A    between atoms: C_11  and  C_12 
REMARK    4  A    between atoms: C_15  and  O_16 
REMARK    5  A    between atoms: O_16  and  C_17 
REMARK    6  A    between atoms: C_17  and  C_20 
ROOT
HETATM    1  N   UNL     1       8.084  28.697  58.200  1.00  0.00    -0.243 N 
HETATM    2  C   UNL     1       8.795  29.886  58.323  1.00  0.00     0.271 C 
HETATM    3  O   UNL     1       9.763  30.212  57.641  1.00  0.00    -0.266 OA
HETATM    4  H   UNL     1       7.370  28.457  58.876  1.00  0.00     0.192 HD
ENDROOT
BRANCH   1   5
HETATM    5  N   UNL     1       8.394  27.651  57.364  1.00  0.00    -0.183 NA
HETATM    6  C   UNL     1       7.445  26.863  56.970  1.00  0.00     0.153 C 
BRANCH   6   7
HETATM    7  C   UNL     1       7.739  25.773  56.054  1.00  0.00     0.018 A 
HETATM    8  C   UNL     1       8.324  24.573  56.445  1.00  0.00     0.018 A 
HETATM    9  C   UNL     1       8.775  24.101  57.781  1.00  0.00     0.069 C 
HETATM   10  N   UNL     1       8.452  23.786  55.329  1.00  0.00    -0.358 N 
HETATM   11  H   UNL     1       8.846  22.856  55.316  1.00  0.00     0.166 HD
HETATM   12  C   UNL     1       7.968  24.433  54.220  1.00  0.00     0.043 A 
HETATM   13  C   UNL     1       7.510  25.684  54.639  1.00  0.00     0.004 A 
HETATM   14  C   UNL     1       7.900  24.004  52.889  1.00  0.00     0.030 A 
HETATM   15  C   UNL     1       6.952  26.543  53.668  1.00  0.00     0.014 A 
HETATM   16  C   UNL     1       6.874  26.130  52.333  1.00  0.00     0.001 A 
HETATM   17  C   UNL     1       7.344  24.877  51.950  1.00  0.00     0.002 A 
ENDBRANCH   6   7
ENDBRANCH   1   5
BRANCH   2  18
HETATM   18  C   UNL     1       8.305  30.842  59.362  1.00  0.00     0.033 A 
HETATM   19  C   UNL     1       7.127  31.586  59.229  1.00  0.00     0.020 A 
HETATM   20  C   UNL     1       6.743  32.473  60.242  1.00  0.00     0.038 A 
HETATM   21  C   UNL     1       7.511  32.623  61.401  1.00  0.00     0.075 A 
HETATM   22  C   UNL     1       8.671  31.865  61.544  1.00  0.00     0.038 A 
HETATM   23  C   UNL     1       9.062  30.980  60.533  1.00  0.00     0.020 A 
BRANCH  21  24
HETATM   24  O   UNL     1       7.018  33.530  62.294  1.00  0.00    -0.279 OA
BRANCH  24  25
HETATM   25  C   UNL     1       6.272  33.048  63.417  1.00  0.00     0.418 C 
HETATM   26  F   UNL     1       5.162  33.811  63.584  1.00  0.00    -0.169 F 
HETATM   27  F   UNL     1       5.868  31.775  63.155  1.00  0.00    -0.169 F 
BRANCH  25  28
HETATM   28  C   UNL     1       7.142  33.060  64.673  1.00  0.00     0.455 C 
HETATM   29  F   UNL     1       8.281  33.779  64.482  1.00  0.00    -0.205 F 
HETATM   30  F   UNL     1       6.494  33.644  65.717  1.00  0.00    -0.205 F 
ENDBRANCH  25  28
ENDBRANCH  24  25
ENDBRANCH  21  24
ENDBRANCH   2  18
TORSDOF 6
ENDMDL
MODEL 5
REMARK VINA RESULT:      -9.0      7.880     12.124
REMARK  6 active torsions:
REMARK  status: ('A' for Active; 'I' for Inactive)
REMARK    1  A    between atoms: C_7  and  C_8 
REMARK    2  A    between atoms: N_9  and  N_10 
REMARK       I    between atoms: N_10  and  C_11 
REMARK    3  A    between atoms: C_11  and  C_12 
REMARK    4  A    between atoms: C_15  and  O_16 
REMARK    5  A    between atoms: O_16  and  C_17 
REMARK    6  A    between atoms: C_17  and  C_20 
ROOT
HETATM    1  N   UNL     1       6.893  31.778  60.095  1.00  0.00    -0.243 N 
HETATM    2  C   UNL     1       7.818  32.556  60.784  1.00  0.00     0.271 C 
HETATM    3  O   UNL     1       8.931  32.872  60.372  1.00  0.00    -0.266 OA
HETATM    4  H   UNL     1       6.045  31.469  60.552  1.00  0.00     0.192 HD
ENDROOT
BRANCH   1   5
HETATM    5  N   UNL     1       7.097  31.160  58.885  1.00  0.00    -0.183 NA
HETATM    6  C   UNL     1       7.809  30.078  58.847  1.00  0.00     0.153 C 
BRANCH   6   7
HETATM    7  C   UNL     1       8.007  29.383  57.585  1.00  0.00     0.018 A 
HETATM    8  C   UNL     1       9.167  29.481  56.825  1.00  0.00     0.018 A 
HETATM    9  C   UNL     1      10.420  30.248  57.055  1.00  0.00     0.069 C 
HETATM   10  N   UNL     1       9.005  28.699  55.710  1.00  0.00    -0.358 N 
HETATM   11  H   UNL     1       9.691  28.579  54.978  1.00  0.00     0.166 HD
HETATM   12  C   UNL     1       7.774  28.092  55.718  1.00  0.00     0.043 A 
HETATM   13  C   UNL     1       7.121  28.498  56.883  1.00  0.00     0.004 A 
HETATM   14  C   UNL     1       7.199  27.218  54.787  1.00  0.00     0.030 A 
HETATM   15  C   UNL     1       5.824  27.995  57.124  1.00  0.00     0.014 A 
HETATM   16  C   UNL     1       5.234  27.118  56.205  1.00  0.00     0.001 A 
HETATM   17  C   UNL     1       5.914  26.737  55.052  1.00  0.00     0.002 A 
ENDBRANCH   6   7
ENDBRANCH   1   5
BRANCH   2  18
HETATM   18  C   UNL     1       7.388  33.057  62.124  1.00  0.00     0.033 A 
HETATM   19  C   UNL     1       7.881  32.547  63.330  1.00  0.00     0.020 A 
HETATM   20  C   UNL     1       7.416  33.061  64.548  1.00  0.00     0.038 A 
HETATM   21  C   UNL     1       6.472  34.092  64.584  1.00  0.00     0.075 A 
HETATM   22  C   UNL     1       5.999  34.616  63.383  1.00  0.00     0.038 A 
HETATM   23  C   UNL     1       6.456  34.104  62.163  1.00  0.00     0.020 A 
BRANCH  21  24
HETATM   24  O   UNL     1       6.108  34.482  65.841  1.00  0.00    -0.279 OA
BRANCH  24  25
HETATM   25  C   UNL     1       4.749  34.291  66.248  1.00  0.00     0.418 C 
HETATM   26  F   UNL     1       4.169  33.350  65.461  1.00  0.00    -0.169 F 
HETATM   27  F   UNL     1       4.741  33.827  67.528  1.00  0.00    -0.169 F 
BRANCH  25  28
HETATM   28  C   UNL     1       3.986  35.613  66.180  1.00  0.00     0.455 C 
HETATM   29  F   UNL     1       2.810  35.543  66.860  1.00  0.00    -0.205 F 
HETATM   30  F   UNL     1       4.696  36.623  66.750  1.00  0.00    -0.205 F 
ENDBRANCH  25  28
ENDBRANCH  24  25
ENDBRANCH  21  24
ENDBRANCH   2  18
TORSDOF 6
ENDMDL
MODEL 6
REMARK VINA RESULT:      -8.9      6.958     11.140
REMARK  6 active torsions:
REMARK  status: ('A' for Active; 'I' for Inactive)
REMARK    1  A    between atoms: C_7  and  C_8 
REMARK    2  A    between atoms: N_9  and  N_10 
REMARK       I    between atoms: N_10  and  C_11 
REMARK    3  A    between atoms: C_11  and  C_12 
REMARK    4  A    between atoms: C_15  and  O_16 
REMARK    5  A    between atoms: O_16  and  C_17 
REMARK    6  A    between atoms: C_17  and  C_20 
ROOT
HETATM    1  N   UNL     1       7.309  30.099  58.634  1.00  0.00    -0.243 N 
HETATM    2  C   UNL     1       8.283  30.462  59.558  1.00  0.00     0.271 C 
HETATM    3  O   UNL     1       9.450  30.077  59.554  1.00  0.00    -0.266 OA
HETATM    4  H   UNL     1       6.345  30.371  58.775  1.00  0.00     0.192 HD
ENDROOT
BRANCH   1   5
HETATM    5  N   UNL     1       7.458  29.187  57.617  1.00  0.00    -0.183 NA
HETATM    6  C   UNL     1       6.624  28.200  57.534  1.00  0.00     0.153 C 
BRANCH   6   7
HETATM    7  C   UNL     1       6.736  27.244  56.445  1.00  0.00     0.018 A 
HETATM    8  C   UNL     1       6.092  27.390  55.221  1.00  0.00     0.018 A 
HETATM    9  C   UNL     1       5.189  28.459  54.718  1.00  0.00     0.069 C 
HETATM   10  N   UNL     1       6.421  26.309  54.443  1.00  0.00    -0.358 N 
HETATM   11  H   UNL     1       6.096  26.151  53.500  1.00  0.00     0.166 HD
HETATM   12  C   UNL     1       7.263  25.462  55.119  1.00  0.00     0.043 A 
HETATM   13  C   UNL     1       7.483  26.019  56.380  1.00  0.00     0.004 A 
HETATM   14  C   UNL     1       7.842  24.255  54.707  1.00  0.00     0.030 A 
HETATM   15  C   UNL     1       8.333  25.326  57.269  1.00  0.00     0.014 A 
HETATM   16  C   UNL     1       8.922  24.119  56.875  1.00  0.00     0.001 A 
HETATM   17  C   UNL     1       8.677  23.592  55.610  1.00  0.00     0.002 A 
ENDBRANCH   6   7
ENDBRANCH   1   5
BRANCH   2  18
HETATM   18  C   UNL     1       7.856  31.419  60.623  1.00  0.00     0.033 A 
HETATM   19  C   UNL     1       8.509  31.541  61.855  1.00  0.00     0.020 A 
HETATM   20  C   UNL     1       8.038  32.453  62.808  1.00  0.00     0.038 A 
HETATM   21  C   UNL     1       6.926  33.261  62.548  1.00  0.00     0.075 A 
HETATM   22  C   UNL     1       6.290  33.157  61.313  1.00  0.00     0.038 A 
HETATM   23  C   UNL     1       6.754  32.244  60.358  1.00  0.00     0.020 A 
BRANCH  21  24
HETATM   24  O   UNL     1       6.578  34.093  63.573  1.00  0.00    -0.279 OA
BRANCH  24  25
HETATM   25  C   UNL     1       5.805  33.559  64.653  1.00  0.00     0.418 C 
HETATM   26  F   UNL     1       5.267  32.370  64.280  1.00  0.00    -0.169 F 
HETATM   27  F   UNL     1       6.634  33.329  65.708  1.00  0.00    -0.169 F 
BRANCH  25  28
HETATM   28  C   UNL     1       4.717  34.550  65.065  1.00  0.00     0.455 C 
HETATM   29  F   UNL     1       3.869  34.005  65.979  1.00  0.00    -0.205 F 
HETATM   30  F   UNL     1       5.252  35.654  65.652  1.00  0.00    -0.205 F 
ENDBRANCH  25  28
ENDBRANCH  24  25
ENDBRANCH  21  24
ENDBRANCH   2  18
TORSDOF 6
ENDMDL
MODEL 7
REMARK VINA RESULT:      -8.9      5.731     10.409
REMARK  6 active torsions:
REMARK  status: ('A' for Active; 'I' for Inactive)
REMARK    1  A    between atoms: C_7  and  C_8 
REMARK    2  A    between atoms: N_9  and  N_10 
REMARK       I    between atoms: N_10  and  C_11 
REMARK    3  A    between atoms: C_11  and  C_12 
REMARK    4  A    between atoms: C_15  and  O_16 
REMARK    5  A    between atoms: O_16  and  C_17 
REMARK    6  A    between atoms: C_17  and  C_20 
ROOT
HETATM    1  N   UNL     1       6.750  26.996  56.555  1.00  0.00    -0.243 N 
HETATM    2  C   UNL     1       7.728  27.683  57.265  1.00  0.00     0.271 C 
HETATM    3  O   UNL     1       8.870  27.282  57.477  1.00  0.00    -0.266 OA
HETATM    4  H   UNL     1       5.801  27.347  56.523  1.00  0.00     0.192 HD
ENDROOT
BRANCH   1   5
HETATM    5  N   UNL     1       6.861  25.724  56.046  1.00  0.00    -0.183 NA
HETATM    6  C   UNL     1       7.525  25.546  54.948  1.00  0.00     0.153 C 
BRANCH   6   7
HETATM    7  C   UNL     1       7.691  24.205  54.410  1.00  0.00     0.018 A 
HETATM    8  C   UNL     1       7.658  23.910  53.052  1.00  0.00     0.018 A 
HETATM    9  C   UNL     1       7.462  24.789  51.869  1.00  0.00     0.069 C 
HETATM   10  N   UNL     1       7.847  22.559  52.912  1.00  0.00    -0.358 N 
HETATM   11  H   UNL     1       7.871  22.063  52.032  1.00  0.00     0.166 HD
HETATM   12  C   UNL     1       8.005  21.961  54.137  1.00  0.00     0.043 A 
HETATM   13  C   UNL     1       7.914  22.966  55.101  1.00  0.00     0.004 A 
HETATM   14  C   UNL     1       8.223  20.615  54.458  1.00  0.00     0.030 A 
HETATM   15  C   UNL     1       8.053  22.597  56.457  1.00  0.00     0.014 A 
HETATM   16  C   UNL     1       8.273  21.257  56.796  1.00  0.00     0.001 A 
HETATM   17  C   UNL     1       8.356  20.280  55.808  1.00  0.00     0.002 A 
ENDBRANCH   6   7
ENDBRANCH   1   5
BRANCH   2  18
HETATM   18  C   UNL     1       7.342  29.029  57.786  1.00  0.00     0.033 A 
HETATM   19  C   UNL     1       6.131  29.657  57.470  1.00  0.00     0.020 A 
HETATM   20  C   UNL     1       5.848  30.928  57.987  1.00  0.00     0.038 A 
HETATM   21  C   UNL     1       6.752  31.583  58.830  1.00  0.00     0.075 A 
HETATM   22  C   UNL     1       7.946  30.948  59.163  1.00  0.00     0.038 A 
HETATM   23  C   UNL     1       8.237  29.680  58.646  1.00  0.00     0.020 A 
BRANCH  21  24
HETATM   24  O   UNL     1       6.345  32.818  59.246  1.00  0.00    -0.279 OA
BRANCH  24  25
HETATM   25  C   UNL     1       5.776  32.946  60.553  1.00  0.00     0.418 C 
HETATM   26  F   UNL     1       5.670  31.718  61.122  1.00  0.00    -0.169 F 
HETATM   27  F   UNL     1       6.616  33.691  61.322  1.00  0.00    -0.169 F 
BRANCH  25  28
HETATM   28  C   UNL     1       4.413  33.633  60.471  1.00  0.00     0.455 C 
HETATM   29  F   UNL     1       4.067  33.896  59.182  1.00  0.00    -0.205 F 
HETATM   30  F   UNL     1       3.430  32.840  60.975  1.00  0.00    -0.205 F 
ENDBRANCH  25  28
ENDBRANCH  24  25
ENDBRANCH  21  24
ENDBRANCH   2  18
TORSDOF 6
ENDMDL
MODEL 8
REMARK VINA RESULT:      -8.9      2.865      4.338
REMARK  6 active torsions:
REMARK  status: ('A' for Active; 'I' for Inactive)
REMARK    1  A    between atoms: C_7  and  C_8 
REMARK    2  A    between atoms: N_9  and  N_10 
REMARK       I    between atoms: N_10  and  C_11 
REMARK    3  A    between atoms: C_11  and  C_12 
REMARK    4  A    between atoms: C_15  and  O_16 
REMARK    5  A    between atoms: O_16  and  C_17 
REMARK    6  A    between atoms: C_17  and  C_20 
ROOT
HETATM    1  N   UNL     1       6.525  30.737  58.519  1.00  0.00    -0.243 N 
HETATM    2  C   UNL     1       7.476  29.744  58.309  1.00  0.00     0.271 C 
HETATM    3  O   UNL     1       8.468  29.547  59.006  1.00  0.00    -0.266 OA
HETATM    4  H   UNL     1       5.800  30.902  57.833  1.00  0.00     0.192 HD
ENDROOT
BRANCH   1   5
HETATM    5  N   UNL     1       6.577  31.717  59.481  1.00  0.00    -0.183 NA
HETATM    6  C   UNL     1       5.467  32.199  59.942  1.00  0.00     0.153 C 
BRANCH   6   7
HETATM    7  C   UNL     1       5.493  33.209  60.989  1.00  0.00     0.018 A 
HETATM    8  C   UNL     1       4.748  34.382  60.947  1.00  0.00     0.018 A 
HETATM    9  C   UNL     1       3.802  34.898  59.923  1.00  0.00     0.069 C 
HETATM   10  N   UNL     1       5.019  35.091  62.089  1.00  0.00    -0.358 N 
HETATM   11  H   UNL     1       4.616  35.986  62.328  1.00  0.00     0.166 HD
HETATM   12  C   UNL     1       5.916  34.416  62.879  1.00  0.00     0.043 A 
HETATM   13  C   UNL     1       6.235  33.228  62.218  1.00  0.00     0.004 A 
HETATM   14  C   UNL     1       6.462  34.768  64.120  1.00  0.00     0.030 A 
HETATM   15  C   UNL     1       7.146  32.349  62.842  1.00  0.00     0.014 A 
HETATM   16  C   UNL     1       7.700  32.683  64.083  1.00  0.00     0.001 A 
HETATM   17  C   UNL     1       7.362  33.878  64.712  1.00  0.00     0.002 A 
ENDBRANCH   6   7
ENDBRANCH   1   5
BRANCH   2  18
HETATM   18  C   UNL     1       7.237  28.838  57.145  1.00  0.00     0.033 A 
HETATM   19  C   UNL     1       6.190  27.910  57.094  1.00  0.00     0.020 A 
HETATM   20  C   UNL     1       6.041  27.085  55.972  1.00  0.00     0.038 A 
HETATM   21  C   UNL     1       6.916  27.180  54.885  1.00  0.00     0.075 A 
HETATM   22  C   UNL     1       7.943  28.119  54.925  1.00  0.00     0.038 A 
HETATM   23  C   UNL     1       8.100  28.943  56.045  1.00  0.00     0.020 A 
BRANCH  21  24
HETATM   24  O   UNL     1       6.653  26.306  53.869  1.00  0.00    -0.279 OA
BRANCH  24  25
HETATM   25  C   UNL     1       7.139  24.964  53.979  1.00  0.00     0.418 C 
HETATM   26  F   UNL     1       8.123  24.915  54.913  1.00  0.00    -0.169 F 
HETATM   27  F   UNL     1       6.121  24.167  54.403  1.00  0.00    -0.169 F 
BRANCH  25  28
HETATM   28  C   UNL     1       7.642  24.472  52.623  1.00  0.00     0.455 C 
HETATM   29  F   UNL     1       8.484  25.374  52.048  1.00  0.00    -0.205 F 
HETATM   30  F   UNL     1       8.350  23.318  52.748  1.00  0.00    -0.205 F 
ENDBRANCH  25  28
ENDBRANCH  24  25
ENDBRANCH  21  24
ENDBRANCH   2  18
TORSDOF 6
ENDMDL
MODEL 9
REMARK VINA RESULT:      -8.7      3.696      6.040
REMARK  6 active torsions:
REMARK  status: ('A' for Active; 'I' for Inactive)
REMARK    1  A    between atoms: C_7  and  C_8 
REMARK    2  A    between atoms: N_9  and  N_10 
REMARK       I    between atoms: N_10  and  C_11 
REMARK    3  A    between atoms: C_11  and  C_12 
REMARK    4  A    between atoms: C_15  and  O_16 
REMARK    5  A    between atoms: O_16  and  C_17 
REMARK    6  A    between atoms: C_17  and  C_20 
ROOT
HETATM    1  N   UNL     1       6.765  31.673  59.836  1.00  0.00    -0.243 N 
HETATM    2  C   UNL     1       7.857  31.433  59.009  1.00  0.00     0.271 C 
HETATM    3  O   UNL     1       8.846  32.153  58.905  1.00  0.00    -0.266 OA
HETATM    4  H   UNL     1       5.942  31.088  59.778  1.00  0.00     0.192 HD
ENDROOT
BRANCH   1   5
HETATM    5  N   UNL     1       6.566  32.793  60.607  1.00  0.00    -0.183 NA
HETATM    6  C   UNL     1       6.052  32.655  61.788  1.00  0.00     0.153 C 
BRANCH   6   7
HETATM    7  C   UNL     1       5.866  33.820  62.640  1.00  0.00     0.018 A 
HETATM    8  C   UNL     1       6.559  34.025  63.827  1.00  0.00     0.018 A 
HETATM    9  C   UNL     1       7.590  33.197  64.508  1.00  0.00     0.069 C 
HETATM   10  N   UNL     1       6.134  35.214  64.361  1.00  0.00    -0.358 N 
HETATM   11  H   UNL     1       6.468  35.618  65.225  1.00  0.00     0.166 HD
HETATM   12  C   UNL     1       5.184  35.795  63.557  1.00  0.00     0.043 A 
HETATM   13  C   UNL     1       4.993  34.946  62.466  1.00  0.00     0.004 A 
HETATM   14  C   UNL     1       4.490  37.001  63.716  1.00  0.00     0.030 A 
HETATM   15  C   UNL     1       4.057  35.335  61.483  1.00  0.00     0.014 A 
HETATM   16  C   UNL     1       3.355  36.538  61.623  1.00  0.00     0.001 A 
HETATM   17  C   UNL     1       3.570  37.358  62.727  1.00  0.00     0.002 A 
ENDBRANCH   6   7
ENDBRANCH   1   5
BRANCH   2  18
HETATM   18  C   UNL     1       7.809  30.173  58.206  1.00  0.00     0.033 A 
HETATM   19  C   UNL     1       6.617  29.568  57.793  1.00  0.00     0.020 A 
HETATM   20  C   UNL     1       6.656  28.378  57.055  1.00  0.00     0.038 A 
HETATM   21  C   UNL     1       7.874  27.784  56.706  1.00  0.00     0.075 A 
HETATM   22  C   UNL     1       9.061  28.398  57.098  1.00  0.00     0.038 A 
HETATM   23  C   UNL     1       9.028  29.585  57.840  1.00  0.00     0.020 A 
BRANCH  21  24
HETATM   24  O   UNL     1       7.754  26.624  55.996  1.00  0.00    -0.279 OA
BRANCH  24  25
HETATM   25  C   UNL     1       7.680  25.388  56.713  1.00  0.00     0.418 C 
HETATM   26  F   UNL     1       8.657  24.552  56.276  1.00  0.00    -0.169 F 
HETATM   27  F   UNL     1       7.905  25.637  58.032  1.00  0.00    -0.169 F 
BRANCH  25  28
HETATM   28  C   UNL     1       6.299  24.758  56.540  1.00  0.00     0.455 C 
HETATM   29  F   UNL     1       5.450  25.143  57.532  1.00  0.00    -0.205 F 
HETATM   30  F   UNL     1       5.721  25.149  55.372  1.00  0.00    -0.205 F 
ENDBRANCH  25  28
ENDBRANCH  24  25
ENDBRANCH  21  24
ENDBRANCH   2  18
TORSDOF 6
ENDMDL
MODEL 10
REMARK VINA RESULT:      -8.6      1.314      3.303
REMARK  6 active torsions:
REMARK  status: ('A' for Active; 'I' for Inactive)
REMARK    1  A    between atoms: C_7  and  C_8 
REMARK    2  A    between atoms: N_9  and  N_10 
REMARK       I    between atoms: N_10  and  C_11 
REMARK    3  A    between atoms: C_11  and  C_12 
REMARK    4  A    between atoms: C_15  and  O_16 
REMARK    5  A    between atoms: O_16  and  C_17 
REMARK    6  A    between atoms: C_17  and  C_20 
ROOT
HETATM    1  N   UNL     1       6.976  27.749  57.186  1.00  0.00    -0.243 N 
HETATM    2  C   UNL     1       6.413  26.856  56.280  1.00  0.00     0.271 C 
HETATM    3  O   UNL     1       5.334  27.002  55.711  1.00  0.00    -0.266 OA
HETATM    4  H   UNL     1       7.814  27.500  57.695  1.00  0.00     0.192 HD
ENDROOT
BRANCH   1   5
HETATM    5  N   UNL     1       6.387  28.895  57.665  1.00  0.00    -0.183 NA
HETATM    6  C   UNL     1       7.132  29.927  57.904  1.00  0.00     0.153 C 
BRANCH   6   7
HETATM    7  C   UNL     1       6.529  31.164  58.374  1.00  0.00     0.018 A 
HETATM    8  C   UNL     1       6.852  31.768  59.584  1.00  0.00     0.018 A 
HETATM    9  C   UNL     1       7.812  31.367  60.646  1.00  0.00     0.069 C 
HETATM   10  N   UNL     1       6.096  32.907  59.699  1.00  0.00    -0.358 N 
HETATM   11  H   UNL     1       6.123  33.547  60.480  1.00  0.00     0.166 HD
HETATM   12  C   UNL     1       5.289  33.067  58.600  1.00  0.00     0.043 A 
HETATM   13  C   UNL     1       5.536  31.991  57.747  1.00  0.00     0.004 A 
HETATM   14  C   UNL     1       4.369  34.080  58.303  1.00  0.00     0.030 A 
HETATM   15  C   UNL     1       4.823  31.935  56.529  1.00  0.00     0.014 A 
HETATM   16  C   UNL     1       3.900  32.939  56.214  1.00  0.00     0.001 A 
HETATM   17  C   UNL     1       3.677  33.997  57.091  1.00  0.00     0.002 A 
ENDBRANCH   6   7
ENDBRANCH   1   5
BRANCH   2  18
HETATM   18  C   UNL     1       7.219  25.636  55.971  1.00  0.00     0.033 A 
HETATM   19  C   UNL     1       7.248  25.033  54.709  1.00  0.00     0.020 A 
HETATM   20  C   UNL     1       8.018  23.881  54.502  1.00  0.00     0.038 A 
HETATM   21  C   UNL     1       8.776  23.324  55.537  1.00  0.00     0.075 A 
HETATM   22  C   UNL     1       8.766  23.938  56.787  1.00  0.00     0.038 A 
HETATM   23  C   UNL     1       7.995  25.087  57.000  1.00  0.00     0.020 A 
BRANCH  21  24
HETATM   24  O   UNL     1       9.466  22.198  55.190  1.00  0.00    -0.279 OA
BRANCH  24  25
HETATM   25  C   UNL     1       8.832  20.927  55.363  1.00  0.00     0.418 C 
HETATM   26  F   UNL     1       9.596  20.145  56.167  1.00  0.00    -0.169 F 
HETATM   27  F   UNL     1       7.636  21.119  55.983  1.00  0.00    -0.169 F 
BRANCH  25  28
HETATM   28  C   UNL     1       8.602  20.262  54.007  1.00  0.00     0.455 C 
HETATM   29  F   UNL     1       7.311  20.397  53.599  1.00  0.00    -0.205 F 
HETATM   30  F   UNL     1       9.368  20.835  53.040  1.00  0.00    -0.205 F 
ENDBRANCH  25  28
ENDBRANCH  24  25
ENDBRANCH  21  24
ENDBRANCH   2  18
TORSDOF 6
ENDMDL
