MODEL 1
REMARK VINA RESULT:     -10.0      0.000      0.000
REMARK  9 active torsions:
REMARK  status: ('A' for Active; 'I' for Inactive)
REMARK    1  A    between atoms: N_4  and  C_5 
REMARK    2  A    between atoms: C_13  and  C_14 
REMARK    3  A    between atoms: C_15  and  C_16 
REMARK       I    between atoms: C_16  and  N_17 
REMARK    4  A    between atoms: N_17  and  C_18 
REMARK    5  A    between atoms: C_18  and  C_19 
REMARK    6  A    between atoms: C_19  and  N_20 
REMARK    7  A    between atoms: C_21  and  O_22 
REMARK    8  A    between atoms: C_21  and  C_23 
REMARK    9  A    between atoms: C_28  and  O_29 
ROOT
HETATM    1  C   UNL     1       7.319  29.598  58.327  1.00  0.00     0.241 C 
HETATM    2  N   UNL     1       6.495  30.685  58.446  1.00  0.00    -0.356 N 
HETATM    3  O   UNL     1       8.343  29.439  58.981  1.00  0.00    -0.269 OA
HETATM    4  H   UNL     1       5.581  30.704  58.012  1.00  0.00     0.162 HD
ENDROOT
BRANCH   1   5
HETATM    5  C   UNL     1       6.861  28.616  57.313  1.00  0.00     0.075 C 
HETATM    6  C   UNL     1       7.576  27.493  57.138  1.00  0.00     0.021 C 
BRANCH   6   7
HETATM    7  C   UNL     1       7.336  26.459  56.182  1.00  0.00     0.014 C 
HETATM    8  C   UNL     1       6.453  26.400  55.082  1.00  0.00     0.063 C 
HETATM    9  C   UNL     1       5.478  27.409  54.596  1.00  0.00     0.073 C 
HETATM   10  N   UNL     1       6.572  25.246  54.423  1.00  0.00    -0.171 NA
HETATM   11  N   UNL     1       7.430  24.488  55.161  1.00  0.00    -0.237 N 
HETATM   12  C   UNL     1       8.009  25.247  56.175  1.00  0.00     0.045 C 
HETATM   13  C   UNL     1       9.174  24.824  57.003  1.00  0.00     0.071 C 
BRANCH  11  14
HETATM   14  C   UNL     1       7.601  23.110  54.816  1.00  0.00     0.058 A 
HETATM   15  C   UNL     1       7.811  22.767  53.469  1.00  0.00     0.031 A 
HETATM   16  C   UNL     1       7.982  21.432  53.091  1.00  0.00     0.002 A 
HETATM   17  C   UNL     1       7.930  20.424  54.050  1.00  0.00     0.000 A 
HETATM   18  C   UNL     1       7.695  20.748  55.383  1.00  0.00     0.002 A 
HETATM   19  C   UNL     1       7.525  22.084  55.766  1.00  0.00     0.031 A 
ENDBRANCH  11  14
ENDBRANCH   6   7
ENDBRANCH   1   5
BRANCH   2  20
HETATM   20  C   UNL     1       6.734  31.700  59.454  1.00  0.00     0.144 C 
BRANCH  20  21
HETATM   21  C   UNL     1       5.461  32.028  60.237  1.00  0.00     0.171 C 
BRANCH  21  22
HETATM   22  N   UNL     1       5.823  32.697  61.484  1.00  0.00    -0.263 NA
HETATM   23  C   UNL     1       5.432  32.231  62.616  1.00  0.00     0.189 C 
BRANCH  23  24
HETATM   24  O   UNL     1       4.730  31.083  62.738  1.00  0.00    -0.343 OA
HETATM   25  H   UNL     1       3.895  31.205  63.203  1.00  0.00     0.219 HD
ENDBRANCH  23  24
BRANCH  23  26
HETATM   26  C   UNL     1       5.674  32.867  63.955  1.00  0.00     0.141 A 
HETATM   27  N   UNL     1       4.552  33.133  64.689  1.00  0.00    -0.254 NA
HETATM   28  C   UNL     1       4.713  33.729  65.887  1.00  0.00     0.117 A 
HETATM   29  C   UNL     1       5.944  34.083  66.408  1.00  0.00     0.022 A 
HETATM   30  C   UNL     1       7.083  33.807  65.657  1.00  0.00     0.040 A 
HETATM   31  C   UNL     1       6.956  33.189  64.412  1.00  0.00     0.098 A 
BRANCH  31  32
HETATM   32  O   UNL     1       8.087  32.931  63.690  1.00  0.00    -0.358 OA
HETATM   33  H   UNL     1       8.458  33.760  63.349  1.00  0.00     0.218 HD
ENDBRANCH  31  32
ENDBRANCH  23  26
ENDBRANCH  21  22
ENDBRANCH  20  21
ENDBRANCH   2  20
TORSDOF 9
ENDMDL
MODEL 2
REMARK VINA RESULT:      -9.8      1.558      2.234
REMARK  9 active torsions:
REMARK  status: ('A' for Active; 'I' for Inactive)
REMARK    1  A    between atoms: N_4  and  C_5 
REMARK    2  A    between atoms: C_13  and  C_14 
REMARK    3  A    between atoms: C_15  and  C_16 
REMARK       I    between atoms: C_16  and  N_17 
REMARK    4  A    between atoms: N_17  and  C_18 
REMARK    5  A    between atoms: C_18  and  C_19 
REMARK    6  A    between atoms: C_19  and  N_20 
REMARK    7  A    between atoms: C_21  and  O_22 
REMARK    8  A    between atoms: C_21  and  C_23 
REMARK    9  A    between atoms: C_28  and  O_29 
ROOT
HETATM    1  C   UNL     1       7.080  29.142  57.129  1.00  0.00     0.241 C 
HETATM    2  N   UNL     1       8.236  29.760  57.526  1.00  0.00    -0.356 N 
HETATM    3  O   UNL     1       5.968  29.425  57.559  1.00  0.00    -0.269 OA
HETATM    4  H   UNL     1       9.108  29.615  57.033  1.00  0.00     0.162 HD
ENDROOT
BRANCH   1   5
HETATM    5  C   UNL     1       7.296  28.075  56.120  1.00  0.00     0.075 C 
HETATM    6  C   UNL     1       6.577  26.945  56.217  1.00  0.00     0.021 C 
BRANCH   6   7
HETATM    7  C   UNL     1       6.675  25.788  55.385  1.00  0.00     0.014 C 
HETATM    8  C   UNL     1       5.990  25.435  54.202  1.00  0.00     0.063 C 
HETATM    9  C   UNL     1       4.927  26.168  53.470  1.00  0.00     0.073 C 
HETATM   10  N   UNL     1       6.416  24.265  53.724  1.00  0.00    -0.171 NA
HETATM   11  N   UNL     1       7.282  23.778  54.655  1.00  0.00    -0.237 N 
HETATM   12  C   UNL     1       7.555  24.743  55.623  1.00  0.00     0.045 C 
HETATM   13  C   UNL     1       8.643  24.654  56.637  1.00  0.00     0.071 C 
BRANCH  11  14
HETATM   14  C   UNL     1       7.754  22.435  54.521  1.00  0.00     0.058 A 
HETATM   15  C   UNL     1       7.793  21.611  55.660  1.00  0.00     0.031 A 
HETATM   16  C   UNL     1       8.248  20.292  55.570  1.00  0.00     0.002 A 
HETATM   17  C   UNL     1       8.684  19.786  54.349  1.00  0.00     0.000 A 
HETATM   18  C   UNL     1       8.677  20.601  53.220  1.00  0.00     0.002 A 
HETATM   19  C   UNL     1       8.220  21.922  53.305  1.00  0.00     0.031 A 
ENDBRANCH  11  14
ENDBRANCH   6   7
ENDBRANCH   1   5
BRANCH   2  20
HETATM   20  C   UNL     1       8.207  30.891  58.435  1.00  0.00     0.144 C 
BRANCH  20  21
HETATM   21  C   UNL     1       8.424  30.453  59.885  1.00  0.00     0.171 C 
BRANCH  21  22
HETATM   22  N   UNL     1       7.748  31.394  60.776  1.00  0.00    -0.263 NA
HETATM   23  C   UNL     1       7.815  31.254  62.051  1.00  0.00     0.189 C 
BRANCH  23  24
HETATM   24  O   UNL     1       8.549  30.289  62.649  1.00  0.00    -0.343 OA
HETATM   25  H   UNL     1       8.217  30.058  63.524  1.00  0.00     0.219 HD
ENDBRANCH  23  24
BRANCH  23  26
HETATM   26  C   UNL     1       7.105  32.105  63.064  1.00  0.00     0.141 A 
HETATM   27  N   UNL     1       7.916  32.782  63.933  1.00  0.00    -0.254 NA
HETATM   28  C   UNL     1       7.327  33.539  64.879  1.00  0.00     0.117 A 
HETATM   29  C   UNL     1       5.957  33.667  65.015  1.00  0.00     0.022 A 
HETATM   30  C   UNL     1       5.137  32.980  64.125  1.00  0.00     0.040 A 
HETATM   31  C   UNL     1       5.711  32.185  63.132  1.00  0.00     0.098 A 
BRANCH  31  32
HETATM   32  O   UNL     1       4.887  31.516  62.271  1.00  0.00    -0.358 OA
HETATM   33  H   UNL     1       4.258  30.972  62.771  1.00  0.00     0.218 HD
ENDBRANCH  31  32
ENDBRANCH  23  26
ENDBRANCH  21  22
ENDBRANCH  20  21
ENDBRANCH   2  20
TORSDOF 9
ENDMDL
MODEL 3
REMARK VINA RESULT:      -9.7      2.142      2.737
REMARK  9 active torsions:
REMARK  status: ('A' for Active; 'I' for Inactive)
REMARK    1  A    between atoms: N_4  and  C_5 
REMARK    2  A    between atoms: C_13  and  C_14 
REMARK    3  A    between atoms: C_15  and  C_16 
REMARK       I    between atoms: C_16  and  N_17 
REMARK    4  A    between atoms: N_17  and  C_18 
REMARK    5  A    between atoms: C_18  and  C_19 
REMARK    6  A    between atoms: C_19  and  N_20 
REMARK    7  A    between atoms: C_21  and  O_22 
REMARK    8  A    between atoms: C_21  and  C_23 
REMARK    9  A    between atoms: C_28  and  O_29 
ROOT
HETATM    1  C   UNL     1       5.871  29.071  56.771  1.00  0.00     0.241 C 
HETATM    2  N   UNL     1       4.945  29.978  56.329  1.00  0.00    -0.356 N 
HETATM    3  O   UNL     1       6.367  29.088  57.892  1.00  0.00    -0.269 OA
HETATM    4  H   UNL     1       4.441  29.837  55.464  1.00  0.00     0.162 HD
ENDROOT
BRANCH   1   5
HETATM    5  C   UNL     1       6.235  28.052  55.755  1.00  0.00     0.075 C 
HETATM    6  C   UNL     1       5.888  26.774  55.974  1.00  0.00     0.021 C 
BRANCH   6   7
HETATM    7  C   UNL     1       6.191  25.646  55.152  1.00  0.00     0.014 C 
HETATM    8  C   UNL     1       5.712  25.272  53.878  1.00  0.00     0.063 C 
HETATM    9  C   UNL     1       4.714  25.942  53.007  1.00  0.00     0.073 C 
HETATM   10  N   UNL     1       6.289  24.146  53.453  1.00  0.00    -0.171 NA
HETATM   11  N   UNL     1       7.045  23.703  54.495  1.00  0.00    -0.237 N 
HETATM   12  C   UNL     1       7.103  24.662  55.503  1.00  0.00     0.045 C 
HETATM   13  C   UNL     1       8.037  24.630  56.663  1.00  0.00     0.071 C 
BRANCH  11  14
HETATM   14  C   UNL     1       7.631  22.400  54.415  1.00  0.00     0.058 A 
HETATM   15  C   UNL     1       8.033  21.912  53.160  1.00  0.00     0.031 A 
HETATM   16  C   UNL     1       8.610  20.644  53.040  1.00  0.00     0.002 A 
HETATM   17  C   UNL     1       8.775  19.843  54.167  1.00  0.00     0.000 A 
HETATM   18  C   UNL     1       8.354  20.304  55.411  1.00  0.00     0.002 A 
HETATM   19  C   UNL     1       7.779  21.574  55.536  1.00  0.00     0.031 A 
ENDBRANCH  11  14
ENDBRANCH   6   7
ENDBRANCH   1   5
BRANCH   2  20
HETATM   20  C   UNL     1       4.401  30.987  57.218  1.00  0.00     0.144 C 
BRANCH  20  21
HETATM   21  C   UNL     1       5.361  32.167  57.386  1.00  0.00     0.171 C 
BRANCH  21  22
HETATM   22  N   UNL     1       5.655  32.347  58.806  1.00  0.00    -0.263 NA
HETATM   23  C   UNL     1       6.812  32.053  59.280  1.00  0.00     0.189 C 
BRANCH  23  24
HETATM   24  O   UNL     1       7.837  31.627  58.509  1.00  0.00    -0.343 OA
HETATM   25  H   UNL     1       8.387  30.970  58.951  1.00  0.00     0.219 HD
ENDBRANCH  23  24
BRANCH  23  26
HETATM   26  C   UNL     1       7.210  32.123  60.726  1.00  0.00     0.141 A 
HETATM   27  N   UNL     1       6.719  33.195  61.418  1.00  0.00    -0.254 NA
HETATM   28  C   UNL     1       7.070  33.318  62.714  1.00  0.00     0.117 A 
HETATM   29  C   UNL     1       7.892  32.424  63.374  1.00  0.00     0.022 A 
HETATM   30  C   UNL     1       8.385  31.332  62.665  1.00  0.00     0.040 A 
HETATM   31  C   UNL     1       8.043  31.171  61.321  1.00  0.00     0.098 A 
BRANCH  31  32
HETATM   32  O   UNL     1       8.541  30.093  60.644  1.00  0.00    -0.358 OA
HETATM   33  H   UNL     1       8.330  30.170  59.700  1.00  0.00     0.218 HD
ENDBRANCH  31  32
ENDBRANCH  23  26
ENDBRANCH  21  22
ENDBRANCH  20  21
ENDBRANCH   2  20
TORSDOF 9
ENDMDL
MODEL 4
REMARK VINA RESULT:      -9.5      2.748      3.819
REMARK  9 active torsions:
REMARK  status: ('A' for Active; 'I' for Inactive)
REMARK    1  A    between atoms: N_4  and  C_5 
REMARK    2  A    between atoms: C_13  and  C_14 
REMARK    3  A    between atoms: C_15  and  C_16 
REMARK       I    between atoms: C_16  and  N_17 
REMARK    4  A    between atoms: N_17  and  C_18 
REMARK    5  A    between atoms: C_18  and  C_19 
REMARK    6  A    between atoms: C_19  and  N_20 
REMARK    7  A    between atoms: C_21  and  O_22 
REMARK    8  A    between atoms: C_21  and  C_23 
REMARK    9  A    between atoms: C_28  and  O_29 
ROOT
HETATM    1  C   UNL     1       4.826  29.711  55.290  1.00  0.00     0.241 C 
HETATM    2  N   UNL     1       4.980  30.716  56.208  1.00  0.00    -0.356 N 
HETATM    3  O   UNL     1       4.328  29.866  54.181  1.00  0.00    -0.269 OA
HETATM    4  H   UNL     1       5.540  30.587  57.041  1.00  0.00     0.162 HD
ENDROOT
BRANCH   1   5
HETATM    5  C   UNL     1       5.318  28.394  55.765  1.00  0.00     0.075 C 
HETATM    6  C   UNL     1       6.260  27.763  55.046  1.00  0.00     0.021 C 
BRANCH   6   7
HETATM    7  C   UNL     1       6.819  26.474  55.301  1.00  0.00     0.014 C 
HETATM    8  C   UNL     1       7.722  26.035  56.294  1.00  0.00     0.063 C 
HETATM    9  C   UNL     1       8.388  26.805  57.374  1.00  0.00     0.073 C 
HETATM   10  N   UNL     1       7.960  24.726  56.191  1.00  0.00    -0.171 NA
HETATM   11  N   UNL     1       7.327  24.325  55.054  1.00  0.00    -0.237 N 
HETATM   12  C   UNL     1       6.519  25.344  54.556  1.00  0.00     0.045 C 
HETATM   13  C   UNL     1       5.493  25.179  53.488  1.00  0.00     0.071 C 
BRANCH  11  14
HETATM   14  C   UNL     1       7.567  23.003  54.563  1.00  0.00     0.058 A 
HETATM   15  C   UNL     1       7.599  21.934  55.475  1.00  0.00     0.031 A 
HETATM   16  C   UNL     1       7.830  20.627  55.035  1.00  0.00     0.002 A 
HETATM   17  C   UNL     1       8.049  20.375  53.683  1.00  0.00     0.000 A 
HETATM   18  C   UNL     1       8.048  21.429  52.774  1.00  0.00     0.002 A 
HETATM   19  C   UNL     1       7.814  22.739  53.210  1.00  0.00     0.031 A 
ENDBRANCH  11  14
ENDBRANCH   6   7
ENDBRANCH   1   5
BRANCH   2  20
HETATM   20  C   UNL     1       4.643  32.089  55.882  1.00  0.00     0.144 C 
BRANCH  20  21
HETATM   21  C   UNL     1       4.543  32.958  57.137  1.00  0.00     0.171 C 
BRANCH  21  22
HETATM   22  N   UNL     1       5.812  32.903  57.860  1.00  0.00    -0.263 NA
HETATM   23  C   UNL     1       5.947  32.150  58.892  1.00  0.00     0.189 C 
BRANCH  23  24
HETATM   24  O   UNL     1       4.972  31.326  59.336  1.00  0.00    -0.343 OA
HETATM   25  H   UNL     1       4.802  30.593  58.734  1.00  0.00     0.219 HD
ENDBRANCH  23  24
BRANCH  23  26
HETATM   26  C   UNL     1       7.169  32.065  59.760  1.00  0.00     0.141 A 
HETATM   27  N   UNL     1       8.364  32.145  59.099  1.00  0.00    -0.254 NA
HETATM   28  C   UNL     1       9.492  32.047  59.830  1.00  0.00     0.117 A 
HETATM   29  C   UNL     1       9.504  31.870  61.202  1.00  0.00     0.022 A 
HETATM   30  C   UNL     1       8.285  31.793  61.869  1.00  0.00     0.040 A 
HETATM   31  C   UNL     1       7.095  31.891  61.146  1.00  0.00     0.098 A 
BRANCH  31  32
HETATM   32  O   UNL     1       5.910  31.809  61.821  1.00  0.00    -0.358 OA
HETATM   33  H   UNL     1       6.077  31.663  62.765  1.00  0.00     0.218 HD
ENDBRANCH  31  32
ENDBRANCH  23  26
ENDBRANCH  21  22
ENDBRANCH  20  21
ENDBRANCH   2  20
TORSDOF 9
ENDMDL
MODEL 5
REMARK VINA RESULT:      -9.4      2.620      3.644
REMARK  9 active torsions:
REMARK  status: ('A' for Active; 'I' for Inactive)
REMARK    1  A    between atoms: N_4  and  C_5 
REMARK    2  A    between atoms: C_13  and  C_14 
REMARK    3  A    between atoms: C_15  and  C_16 
REMARK       I    between atoms: C_16  and  N_17 
REMARK    4  A    between atoms: N_17  and  C_18 
REMARK    5  A    between atoms: C_18  and  C_19 
REMARK    6  A    between atoms: C_19  and  N_20 
REMARK    7  A    between atoms: C_21  and  O_22 
REMARK    8  A    between atoms: C_21  and  C_23 
REMARK    9  A    between atoms: C_28  and  O_29 
ROOT
HETATM    1  C   UNL     1       4.045  30.185  57.139  1.00  0.00     0.241 C 
HETATM    2  N   UNL     1       4.015  30.297  58.503  1.00  0.00    -0.356 N 
HETATM    3  O   UNL     1       3.287  30.784  56.385  1.00  0.00    -0.269 OA
HETATM    4  H   UNL     1       4.756  29.919  59.080  1.00  0.00     0.162 HD
ENDROOT
BRANCH   1   5
HETATM    5  C   UNL     1       5.088  29.252  56.644  1.00  0.00     0.075 C 
HETATM    6  C   UNL     1       5.454  28.224  57.427  1.00  0.00     0.021 C 
BRANCH   6   7
HETATM    7  C   UNL     1       6.469  27.256  57.159  1.00  0.00     0.014 C 
HETATM    8  C   UNL     1       7.875  27.380  57.101  1.00  0.00     0.063 C 
HETATM    9  C   UNL     1       8.728  28.581  57.282  1.00  0.00     0.073 C 
HETATM   10  N   UNL     1       8.456  26.205  56.850  1.00  0.00    -0.171 NA
HETATM   11  N   UNL     1       7.438  25.334  56.609  1.00  0.00    -0.237 N 
HETATM   12  C   UNL     1       6.210  25.917  56.912  1.00  0.00     0.045 C 
HETATM   13  C   UNL     1       4.916  25.185  57.016  1.00  0.00     0.071 C 
BRANCH  11  14
HETATM   14  C   UNL     1       7.751  24.031  56.109  1.00  0.00     0.058 A 
HETATM   15  C   UNL     1       7.473  23.734  54.763  1.00  0.00     0.031 A 
HETATM   16  C   UNL     1       7.764  22.473  54.236  1.00  0.00     0.002 A 
HETATM   17  C   UNL     1       8.320  21.488  55.049  1.00  0.00     0.000 A 
HETATM   18  C   UNL     1       8.574  21.761  56.390  1.00  0.00     0.002 A 
HETATM   19  C   UNL     1       8.286  23.024  56.922  1.00  0.00     0.031 A 
ENDBRANCH  11  14
ENDBRANCH   6   7
ENDBRANCH   1   5
BRANCH   2  20
HETATM   20  C   UNL     1       3.125  31.237  59.159  1.00  0.00     0.144 C 
BRANCH  20  21
HETATM   21  C   UNL     1       3.794  32.598  59.364  1.00  0.00     0.171 C 
BRANCH  21  22
HETATM   22  N   UNL     1       4.996  32.424  60.176  1.00  0.00    -0.263 NA
HETATM   23  C   UNL     1       6.158  32.382  59.629  1.00  0.00     0.189 C 
BRANCH  23  24
HETATM   24  O   UNL     1       6.355  32.555  58.304  1.00  0.00    -0.343 OA
HETATM   25  H   UNL     1       5.581  32.916  57.856  1.00  0.00     0.219 HD
ENDBRANCH  23  24
BRANCH  23  26
HETATM   26  C   UNL     1       7.454  32.133  60.345  1.00  0.00     0.141 A 
HETATM   27  N   UNL     1       8.583  32.438  59.637  1.00  0.00    -0.254 NA
HETATM   28  C   UNL     1       9.773  32.206  60.225  1.00  0.00     0.117 A 
HETATM   29  C   UNL     1       9.911  31.681  61.497  1.00  0.00     0.022 A 
HETATM   30  C   UNL     1       8.758  31.376  62.214  1.00  0.00     0.040 A 
HETATM   31  C   UNL     1       7.507  31.602  61.638  1.00  0.00     0.098 A 
BRANCH  31  32
HETATM   32  O   UNL     1       6.388  31.292  62.359  1.00  0.00    -0.358 OA
HETATM   33  H   UNL     1       6.401  31.763  63.207  1.00  0.00     0.218 HD
ENDBRANCH  31  32
ENDBRANCH  23  26
ENDBRANCH  21  22
ENDBRANCH  20  21
ENDBRANCH   2  20
TORSDOF 9
ENDMDL
MODEL 6
REMARK VINA RESULT:      -9.2      6.327     10.108
REMARK  9 active torsions:
REMARK  status: ('A' for Active; 'I' for Inactive)
REMARK    1  A    between atoms: N_4  and  C_5 
REMARK    2  A    between atoms: C_13  and  C_14 
REMARK    3  A    between atoms: C_15  and  C_16 
REMARK       I    between atoms: C_16  and  N_17 
REMARK    4  A    between atoms: N_17  and  C_18 
REMARK    5  A    between atoms: C_18  and  C_19 
REMARK    6  A    between atoms: C_19  and  N_20 
REMARK    7  A    between atoms: C_21  and  O_22 
REMARK    8  A    between atoms: C_21  and  C_23 
REMARK    9  A    between atoms: C_28  and  O_29 
ROOT
HETATM    1  C   UNL     1       4.779  29.596  53.764  1.00  0.00     0.241 C 
HETATM    2  N   UNL     1       4.879  30.254  52.568  1.00  0.00    -0.356 N 
HETATM    3  O   UNL     1       4.071  29.966  54.694  1.00  0.00    -0.269 OA
HETATM    4  H   UNL     1       5.341  29.834  51.772  1.00  0.00     0.162 HD
ENDROOT
BRANCH   1   5
HETATM    5  C   UNL     1       5.623  28.378  53.842  1.00  0.00     0.075 C 
HETATM    6  C   UNL     1       5.487  27.570  54.906  1.00  0.00     0.021 C 
BRANCH   6   7
HETATM    7  C   UNL     1       6.240  26.390  55.193  1.00  0.00     0.014 C 
HETATM    8  C   UNL     1       7.249  26.144  56.149  1.00  0.00     0.063 C 
HETATM    9  C   UNL     1       7.855  27.064  57.144  1.00  0.00     0.073 C 
HETATM   10  N   UNL     1       7.667  24.878  56.100  1.00  0.00    -0.171 NA
HETATM   11  N   UNL     1       7.037  24.322  55.028  1.00  0.00    -0.237 N 
HETATM   12  C   UNL     1       6.065  25.186  54.528  1.00  0.00     0.045 C 
HETATM   13  C   UNL     1       5.017  24.813  53.537  1.00  0.00     0.071 C 
BRANCH  11  14
HETATM   14  C   UNL     1       7.438  23.020  54.593  1.00  0.00     0.058 A 
HETATM   15  C   UNL     1       7.519  21.982  55.537  1.00  0.00     0.031 A 
HETATM   16  C   UNL     1       7.907  20.696  55.152  1.00  0.00     0.002 A 
HETATM   17  C   UNL     1       8.234  20.435  53.824  1.00  0.00     0.000 A 
HETATM   18  C   UNL     1       8.185  21.461  52.885  1.00  0.00     0.002 A 
HETATM   19  C   UNL     1       7.795  22.750  53.266  1.00  0.00     0.031 A 
ENDBRANCH  11  14
ENDBRANCH   6   7
ENDBRANCH   1   5
BRANCH   2  20
HETATM   20  C   UNL     1       4.052  31.411  52.277  1.00  0.00     0.144 C 
BRANCH  20  21
HETATM   21  C   UNL     1       2.785  31.021  51.514  1.00  0.00     0.171 C 
BRANCH  21  22
HETATM   22  N   UNL     1       3.137  30.088  50.446  1.00  0.00    -0.263 NA
HETATM   23  C   UNL     1       2.448  29.020  50.254  1.00  0.00     0.189 C 
BRANCH  23  24
HETATM   24  O   UNL     1       1.338  28.721  50.965  1.00  0.00    -0.343 OA
HETATM   25  H   UNL     1       1.212  27.773  51.076  1.00  0.00     0.219 HD
ENDBRANCH  23  24
BRANCH  23  26
HETATM   26  C   UNL     1       2.753  27.952  49.244  1.00  0.00     0.141 A 
HETATM   27  N   UNL     1       1.690  27.535  48.491  1.00  0.00    -0.254 NA
HETATM   28  C   UNL     1       1.905  26.557  47.589  1.00  0.00     0.117 A 
HETATM   29  C   UNL     1       3.135  25.959  47.387  1.00  0.00     0.022 A 
HETATM   30  C   UNL     1       4.214  26.389  48.153  1.00  0.00     0.040 A 
HETATM   31  C   UNL     1       4.030  27.400  49.098  1.00  0.00     0.098 A 
BRANCH  31  32
HETATM   32  O   UNL     1       5.102  27.805  49.842  1.00  0.00    -0.358 OA
HETATM   33  H   UNL     1       4.941  28.693  50.198  1.00  0.00     0.218 HD
ENDBRANCH  31  32
ENDBRANCH  23  26
ENDBRANCH  21  22
ENDBRANCH  20  21
ENDBRANCH   2  20
TORSDOF 9
ENDMDL
MODEL 7
REMARK VINA RESULT:      -9.1      2.144      2.452
REMARK  9 active torsions:
REMARK  status: ('A' for Active; 'I' for Inactive)
REMARK    1  A    between atoms: N_4  and  C_5 
REMARK    2  A    between atoms: C_13  and  C_14 
REMARK    3  A    between atoms: C_15  and  C_16 
REMARK       I    between atoms: C_16  and  N_17 
REMARK    4  A    between atoms: N_17  and  C_18 
REMARK    5  A    between atoms: C_18  and  C_19 
REMARK    6  A    between atoms: C_19  and  N_20 
REMARK    7  A    between atoms: C_21  and  O_22 
REMARK    8  A    between atoms: C_21  and  C_23 
REMARK    9  A    between atoms: C_28  and  O_29 
ROOT
HETATM    1  C   UNL     1       5.421  29.056  57.312  1.00  0.00     0.241 C 
HETATM    2  N   UNL     1       4.169  29.602  57.216  1.00  0.00    -0.356 N 
HETATM    3  O   UNL     1       6.398  29.653  57.748  1.00  0.00    -0.269 OA
HETATM    4  H   UNL     1       3.359  29.032  57.008  1.00  0.00     0.162 HD
ENDROOT
BRANCH   1   5
HETATM    5  C   UNL     1       5.495  27.656  56.825  1.00  0.00     0.075 C 
HETATM    6  C   UNL     1       6.185  27.401  55.702  1.00  0.00     0.021 C 
BRANCH   6   7
HETATM    7  C   UNL     1       6.328  26.141  55.045  1.00  0.00     0.014 C 
HETATM    8  C   UNL     1       5.686  25.613  53.904  1.00  0.00     0.063 C 
HETATM    9  C   UNL     1       4.635  26.216  53.045  1.00  0.00     0.073 C 
HETATM   10  N   UNL     1       6.145  24.396  53.607  1.00  0.00    -0.171 NA
HETATM   11  N   UNL     1       6.988  24.062  54.623  1.00  0.00    -0.237 N 
HETATM   12  C   UNL     1       7.215  25.157  55.452  1.00  0.00     0.045 C 
HETATM   13  C   UNL     1       8.272  25.233  56.500  1.00  0.00     0.071 C 
BRANCH  11  14
HETATM   14  C   UNL     1       7.484  22.722  54.692  1.00  0.00     0.058 A 
HETATM   15  C   UNL     1       7.915  22.095  53.511  1.00  0.00     0.031 A 
HETATM   16  C   UNL     1       8.407  20.786  53.537  1.00  0.00     0.002 A 
HETATM   17  C   UNL     1       8.458  20.084  54.738  1.00  0.00     0.000 A 
HETATM   18  C   UNL     1       8.008  20.685  55.910  1.00  0.00     0.002 A 
HETATM   19  C   UNL     1       7.517  21.996  55.889  1.00  0.00     0.031 A 
ENDBRANCH  11  14
ENDBRANCH   6   7
ENDBRANCH   1   5
BRANCH   2  20
HETATM   20  C   UNL     1       3.888  30.929  57.733  1.00  0.00     0.144 C 
BRANCH  20  21
HETATM   21  C   UNL     1       3.398  30.877  59.181  1.00  0.00     0.171 C 
BRANCH  21  22
HETATM   22  N   UNL     1       3.912  32.038  59.904  1.00  0.00    -0.263 NA
HETATM   23  C   UNL     1       3.801  32.119  61.181  1.00  0.00     0.189 C 
BRANCH  23  24
HETATM   24  O   UNL     1       3.272  31.133  61.939  1.00  0.00    -0.343 OA
HETATM   25  H   UNL     1       2.856  31.464  62.742  1.00  0.00     0.219 HD
ENDBRANCH  23  24
BRANCH  23  26
HETATM   26  C   UNL     1       4.219  33.289  62.024  1.00  0.00     0.141 A 
HETATM   27  N   UNL     1       5.458  33.798  61.747  1.00  0.00    -0.254 NA
HETATM   28  C   UNL     1       5.892  34.832  62.495  1.00  0.00     0.117 A 
HETATM   29  C   UNL     1       5.156  35.401  63.518  1.00  0.00     0.022 A 
HETATM   30  C   UNL     1       3.894  34.881  63.792  1.00  0.00     0.040 A 
HETATM   31  C   UNL     1       3.411  33.810  63.039  1.00  0.00     0.098 A 
BRANCH  31  32
HETATM   32  O   UNL     1       2.171  33.313  63.328  1.00  0.00    -0.358 OA
HETATM   33  H   UNL     1       1.530  33.619  62.667  1.00  0.00     0.218 HD
ENDBRANCH  31  32
ENDBRANCH  23  26
ENDBRANCH  21  22
ENDBRANCH  20  21
ENDBRANCH   2  20
TORSDOF 9
ENDMDL
MODEL 8
REMARK VINA RESULT:      -9.1      1.744      2.354
REMARK  9 active torsions:
REMARK  status: ('A' for Active; 'I' for Inactive)
REMARK    1  A    between atoms: N_4  and  C_5 
REMARK    2  A    between atoms: C_13  and  C_14 
REMARK    3  A    between atoms: C_15  and  C_16 
REMARK       I    between atoms: C_16  and  N_17 
REMARK    4  A    between atoms: N_17  and  C_18 
REMARK    5  A    between atoms: C_18  and  C_19 
REMARK    6  A    between atoms: C_19  and  N_20 
REMARK    7  A    between atoms: C_21  and  O_22 
REMARK    8  A    between atoms: C_21  and  C_23 
REMARK    9  A    between atoms: C_28  and  O_29 
ROOT
HETATM    1  C   UNL     1       4.385  30.822  56.904  1.00  0.00     0.241 C 
HETATM    2  N   UNL     1       4.654  30.850  58.247  1.00  0.00    -0.356 N 
HETATM    3  O   UNL     1       4.122  31.815  56.236  1.00  0.00    -0.269 OA
HETATM    4  H   UNL     1       5.025  30.040  58.727  1.00  0.00     0.162 HD
ENDROOT
BRANCH   1   5
HETATM    5  C   UNL     1       4.434  29.458  56.319  1.00  0.00     0.075 C 
HETATM    6  C   UNL     1       5.335  29.205  55.356  1.00  0.00     0.021 C 
BRANCH   6   7
HETATM    7  C   UNL     1       5.502  27.985  54.633  1.00  0.00     0.014 C 
HETATM    8  C   UNL     1       4.786  27.449  53.541  1.00  0.00     0.063 C 
HETATM    9  C   UNL     1       3.608  27.996  52.821  1.00  0.00     0.073 C 
HETATM   10  N   UNL     1       5.302  26.283  53.145  1.00  0.00    -0.171 NA
HETATM   11  N   UNL     1       6.270  25.981  54.054  1.00  0.00    -0.237 N 
HETATM   12  C   UNL     1       6.500  27.061  54.903  1.00  0.00     0.045 C 
HETATM   13  C   UNL     1       7.652  27.183  55.840  1.00  0.00     0.071 C 
BRANCH  11  14
HETATM   14  C   UNL     1       6.871  24.684  54.013  1.00  0.00     0.058 A 
HETATM   15  C   UNL     1       6.872  23.899  55.179  1.00  0.00     0.031 A 
HETATM   16  C   UNL     1       7.450  22.625  55.181  1.00  0.00     0.002 A 
HETATM   17  C   UNL     1       8.047  22.129  54.025  1.00  0.00     0.000 A 
HETATM   18  C   UNL     1       8.077  22.909  52.872  1.00  0.00     0.002 A 
HETATM   19  C   UNL     1       7.498  24.183  52.866  1.00  0.00     0.031 A 
ENDBRANCH  11  14
ENDBRANCH   6   7
ENDBRANCH   1   5
BRANCH   2  20
HETATM   20  C   UNL     1       4.745  32.106  58.967  1.00  0.00     0.144 C 
BRANCH  20  21
HETATM   21  C   UNL     1       3.899  32.087  60.242  1.00  0.00     0.171 C 
BRANCH  21  22
HETATM   22  N   UNL     1       4.638  32.744  61.317  1.00  0.00    -0.263 NA
HETATM   23  C   UNL     1       4.742  32.194  62.474  1.00  0.00     0.189 C 
BRANCH  23  24
HETATM   24  O   UNL     1       4.244  30.970  62.755  1.00  0.00    -0.343 OA
HETATM   25  H   UNL     1       3.538  30.997  63.411  1.00  0.00     0.219 HD
ENDBRANCH  23  24
BRANCH  23  26
HETATM   26  C   UNL     1       5.407  32.802  63.675  1.00  0.00     0.141 A 
HETATM   27  N   UNL     1       4.577  33.083  64.725  1.00  0.00    -0.254 NA
HETATM   28  C   UNL     1       5.121  33.655  65.818  1.00  0.00     0.117 A 
HETATM   29  C   UNL     1       6.462  33.969  65.932  1.00  0.00     0.022 A 
HETATM   30  C   UNL     1       7.303  33.677  64.861  1.00  0.00     0.040 A 
HETATM   31  C   UNL     1       6.776  33.084  63.712  1.00  0.00     0.098 A 
BRANCH  31  32
HETATM   32  O   UNL     1       7.619  32.809  62.672  1.00  0.00    -0.358 OA
HETATM   33  H   UNL     1       7.631  33.555  62.052  1.00  0.00     0.218 HD
ENDBRANCH  31  32
ENDBRANCH  23  26
ENDBRANCH  21  22
ENDBRANCH  20  21
ENDBRANCH   2  20
TORSDOF 9
ENDMDL
MODEL 9
REMARK VINA RESULT:      -8.9      2.093      2.690
REMARK  9 active torsions:
REMARK  status: ('A' for Active; 'I' for Inactive)
REMARK    1  A    between atoms: N_4  and  C_5 
REMARK    2  A    between atoms: C_13  and  C_14 
REMARK    3  A    between atoms: C_15  and  C_16 
REMARK       I    between atoms: C_16  and  N_17 
REMARK    4  A    between atoms: N_17  and  C_18 
REMARK    5  A    between atoms: C_18  and  C_19 
REMARK    6  A    between atoms: C_19  and  N_20 
REMARK    7  A    between atoms: C_21  and  O_22 
REMARK    8  A    between atoms: C_21  and  C_23 
REMARK    9  A    between atoms: C_28  and  O_29 
ROOT
HETATM    1  C   UNL     1       3.596  30.527  57.511  1.00  0.00     0.241 C 
HETATM    2  N   UNL     1       3.732  30.327  58.859  1.00  0.00    -0.356 N 
HETATM    3  O   UNL     1       2.883  31.390  57.014  1.00  0.00    -0.269 OA
HETATM    4  H   UNL     1       4.449  29.719  59.233  1.00  0.00     0.162 HD
ENDROOT
BRANCH   1   5
HETATM    5  C   UNL     1       4.395  29.583  56.690  1.00  0.00     0.075 C 
HETATM    6  C   UNL     1       5.360  28.868  57.289  1.00  0.00     0.021 C 
BRANCH   6   7
HETATM    7  C   UNL     1       6.268  27.957  56.670  1.00  0.00     0.014 C 
HETATM    8  C   UNL     1       7.572  28.148  56.163  1.00  0.00     0.063 C 
HETATM    9  C   UNL     1       8.392  29.384  56.104  1.00  0.00     0.073 C 
HETATM   10  N   UNL     1       8.083  27.009  55.692  1.00  0.00    -0.171 NA
HETATM   11  N   UNL     1       7.075  26.096  55.761  1.00  0.00    -0.237 N 
HETATM   12  C   UNL     1       5.992  26.613  56.468  1.00  0.00     0.045 C 
HETATM   13  C   UNL     1       4.831  25.818  56.959  1.00  0.00     0.071 C 
BRANCH  11  14
HETATM   14  C   UNL     1       7.256  24.822  55.136  1.00  0.00     0.058 A 
HETATM   15  C   UNL     1       7.631  23.724  55.929  1.00  0.00     0.031 A 
HETATM   16  C   UNL     1       7.818  22.462  55.356  1.00  0.00     0.002 A 
HETATM   17  C   UNL     1       7.650  22.287  53.985  1.00  0.00     0.000 A 
HETATM   18  C   UNL     1       7.306  23.373  53.186  1.00  0.00     0.002 A 
HETATM   19  C   UNL     1       7.115  24.638  53.755  1.00  0.00     0.031 A 
ENDBRANCH  11  14
ENDBRANCH   6   7
ENDBRANCH   1   5
BRANCH   2  20
HETATM   20  C   UNL     1       3.100  31.217  59.816  1.00  0.00     0.144 C 
BRANCH  20  21
HETATM   21  C   UNL     1       3.848  32.547  59.928  1.00  0.00     0.171 C 
BRANCH  21  22
HETATM   22  N   UNL     1       4.702  32.519  61.113  1.00  0.00    -0.263 NA
HETATM   23  C   UNL     1       4.455  33.281  62.118  1.00  0.00     0.189 C 
BRANCH  23  24
HETATM   24  O   UNL     1       3.380  34.097  62.177  1.00  0.00    -0.343 OA
HETATM   25  H   UNL     1       2.771  33.964  61.443  1.00  0.00     0.219 HD
ENDBRANCH  23  24
BRANCH  23  26
HETATM   26  C   UNL     1       5.298  33.398  63.355  1.00  0.00     0.141 A 
HETATM   27  N   UNL     1       4.605  33.542  64.525  1.00  0.00    -0.254 NA
HETATM   28  C   UNL     1       5.316  33.679  65.662  1.00  0.00     0.117 A 
HETATM   29  C   UNL     1       6.698  33.681  65.706  1.00  0.00     0.022 A 
HETATM   30  C   UNL     1       7.398  33.530  64.512  1.00  0.00     0.040 A 
HETATM   31  C   UNL     1       6.696  33.385  63.314  1.00  0.00     0.098 A 
BRANCH  31  32
HETATM   32  O   UNL     1       7.403  33.242  62.154  1.00  0.00    -0.358 OA
HETATM   33  H   UNL     1       8.295  32.913  62.350  1.00  0.00     0.218 HD
ENDBRANCH  31  32
ENDBRANCH  23  26
ENDBRANCH  21  22
ENDBRANCH  20  21
ENDBRANCH   2  20
TORSDOF 9
ENDMDL
MODEL 10
REMARK VINA RESULT:      -8.6      6.381     10.228
REMARK  9 active torsions:
REMARK  status: ('A' for Active; 'I' for Inactive)
REMARK    1  A    between atoms: N_4  and  C_5 
REMARK    2  A    between atoms: C_13  and  C_14 
REMARK    3  A    between atoms: C_15  and  C_16 
REMARK       I    between atoms: C_16  and  N_17 
REMARK    4  A    between atoms: N_17  and  C_18 
REMARK    5  A    between atoms: C_18  and  C_19 
REMARK    6  A    between atoms: C_19  and  N_20 
REMARK    7  A    between atoms: C_21  and  O_22 
REMARK    8  A    between atoms: C_21  and  C_23 
REMARK    9  A    between atoms: C_28  and  O_29 
ROOT
HETATM    1  C   UNL     1       5.909  25.675  56.569  1.00  0.00     0.241 C 
HETATM    2  N   UNL     1       7.245  25.948  56.701  1.00  0.00    -0.356 N 
HETATM    3  O   UNL     1       5.215  25.203  57.461  1.00  0.00    -0.269 OA
HETATM    4  H   UNL     1       7.744  26.486  56.004  1.00  0.00     0.162 HD
ENDROOT
BRANCH   1   5
HETATM    5  C   UNL     1       5.368  25.999  55.226  1.00  0.00     0.075 C 
HETATM    6  C   UNL     1       5.820  27.097  54.599  1.00  0.00     0.021 C 
BRANCH   6   7
HETATM    7  C   UNL     1       5.388  27.609  53.338  1.00  0.00     0.014 C 
HETATM    8  C   UNL     1       4.641  28.761  53.011  1.00  0.00     0.063 C 
HETATM    9  C   UNL     1       4.052  29.792  53.903  1.00  0.00     0.073 C 
HETATM   10  N   UNL     1       4.487  28.883  51.691  1.00  0.00    -0.171 NA
HETATM   11  N   UNL     1       5.011  27.748  51.152  1.00  0.00    -0.237 N 
HETATM   12  C   UNL     1       5.680  27.007  52.123  1.00  0.00     0.045 C 
HETATM   13  C   UNL     1       6.584  25.855  51.849  1.00  0.00     0.071 C 
BRANCH  11  14
HETATM   14  C   UNL     1       4.811  27.492  49.759  1.00  0.00     0.058 A 
HETATM   15  C   UNL     1       4.057  26.369  49.376  1.00  0.00     0.031 A 
HETATM   16  C   UNL     1       3.839  26.084  48.025  1.00  0.00     0.002 A 
HETATM   17  C   UNL     1       4.384  26.905  47.042  1.00  0.00     0.000 A 
HETATM   18  C   UNL     1       5.156  28.004  47.408  1.00  0.00     0.002 A 
HETATM   19  C   UNL     1       5.375  28.295  48.760  1.00  0.00     0.031 A 
ENDBRANCH  11  14
ENDBRANCH   6   7
ENDBRANCH   1   5
BRANCH   2  20
HETATM   20  C   UNL     1       7.921  25.784  57.974  1.00  0.00     0.144 C 
BRANCH  20  21
HETATM   21  C   UNL     1       8.877  24.589  57.954  1.00  0.00     0.171 C 
BRANCH  21  22
HETATM   22  N   UNL     1       8.805  23.940  56.647  1.00  0.00    -0.263 NA
HETATM   23  C   UNL     1       8.498  22.696  56.548  1.00  0.00     0.189 C 
BRANCH  23  24
HETATM   24  O   UNL     1       8.165  21.932  57.612  1.00  0.00    -0.343 OA
HETATM   25  H   UNL     1       8.841  21.279  57.827  1.00  0.00     0.219 HD
ENDBRANCH  23  24
BRANCH  23  26
HETATM   26  C   UNL     1       8.466  21.901  55.274  1.00  0.00     0.141 A 
HETATM   27  N   UNL     1       7.853  22.513  54.216  1.00  0.00    -0.254 NA
HETATM   28  C   UNL     1       7.773  21.830  53.057  1.00  0.00     0.117 A 
HETATM   29  C   UNL     1       8.276  20.553  52.884  1.00  0.00     0.022 A 
HETATM   30  C   UNL     1       8.902  19.937  53.963  1.00  0.00     0.040 A 
HETATM   31  C   UNL     1       9.004  20.613  55.180  1.00  0.00     0.098 A 
BRANCH  31  32
HETATM   32  O   UNL     1       9.619  19.988  56.227  1.00  0.00    -0.358 OA
HETATM   33  H   UNL     1      10.100  19.208  55.909  1.00  0.00     0.218 HD
ENDBRANCH  31  32
ENDBRANCH  23  26
ENDBRANCH  21  22
ENDBRANCH  20  21
ENDBRANCH   2  20
TORSDOF 9
ENDMDL
