MODEL 1
REMARK VINA RESULT:     -10.5      0.000      0.000
REMARK  5 active torsions:
REMARK  status: ('A' for Active; 'I' for Inactive)
REMARK    1  A    between atoms: C_6  and  C_7 
REMARK    2  A    between atoms: C_7  and  N_8 
REMARK       I    between atoms: N_8  and  C_9 
REMARK       I    between atoms: C_9  and  N_10 
REMARK    3  A    between atoms: N_10  and  C_11 
REMARK    4  A    between atoms: C_13  and  C_14 
REMARK       I    between atoms: C_14  and  N_15 
REMARK    5  A    between atoms: N_15  and  C_16 
ROOT
HETATM    1  C   UNL     1       7.460  31.665  61.645  1.00  0.00     0.036 A 
HETATM    2  C   UNL     1       6.125  32.054  61.777  1.00  0.00     0.052 A 
HETATM    3  C   UNL     1       5.700  32.759  62.911  1.00  0.00     0.046 A 
HETATM    4  C   UNL     1       4.329  33.152  63.042  1.00  0.00     0.099 C 
HETATM    5  N   UNL     1       3.222  33.480  63.167  1.00  0.00    -0.191 NA
HETATM    6  C   UNL     1       6.615  33.080  63.920  1.00  0.00     0.023 A 
HETATM    7  C   UNL     1       7.949  32.699  63.794  1.00  0.00     0.004 A 
HETATM    8  C   UNL     1       8.367  31.995  62.663  1.00  0.00     0.029 A 
ENDROOT
BRANCH   1   9
HETATM    9  N   UNL     1       7.972  30.952  60.541  1.00  0.00    -0.323 N 
HETATM   10  C   UNL     1       8.758  31.442  59.512  1.00  0.00     0.256 C 
HETATM   11  O   UNL     1       9.109  32.606  59.354  1.00  0.00    -0.267 OA
HETATM   12  H   UNL     1       7.688  29.982  60.482  1.00  0.00     0.169 HD
BRANCH  10  13
HETATM   13  C   UNL     1       9.158  30.438  58.482  1.00  0.00     0.034 A 
HETATM   14  C   UNL     1       8.321  29.370  58.129  1.00  0.00     0.046 A 
HETATM   15  C   UNL     1       8.699  28.480  57.120  1.00  0.00     0.037 A 
HETATM   16  C   UNL     1       9.949  28.632  56.510  1.00  0.00     0.029 A 
HETATM   17  C   UNL     1      10.804  29.670  56.884  1.00  0.00     0.003 A 
HETATM   18  C   UNL     1      10.407  30.575  57.867  1.00  0.00     0.017 A 
BRANCH  15  19
HETATM   19  N   UNL     1       7.886  27.418  56.674  1.00  0.00    -0.309 N 
HETATM   20  C   UNL     1       7.589  26.262  57.341  1.00  0.00     0.321 C 
HETATM   21  N   UNL     1       6.819  25.362  56.666  1.00  0.00    -0.337 N 
HETATM   22  O   UNL     1       7.944  25.967  58.480  1.00  0.00    -0.247 OA
HETATM   23  H   UNL     1       6.660  24.518  57.199  1.00  0.00     0.164 HD
HETATM   24  H   UNL     1       7.300  27.626  55.871  1.00  0.00     0.170 HD
BRANCH  21  25
HETATM   25  C   UNL     1       6.454  25.357  55.264  1.00  0.00     0.186 C 
BRANCH  25  26
HETATM   26  C   UNL     1       7.102  24.206  54.581  1.00  0.00     0.083 A 
HETATM   27  C   UNL     1       7.689  24.133  53.334  1.00  0.00     0.076 A 
HETATM   28  C   UNL     1       7.902  25.083  52.229  1.00  0.00     0.079 C 
HETATM   29  O   UNL     1       8.169  22.863  53.172  1.00  0.00    -0.307 OA
HETATM   30  C   UNL     1       7.855  22.239  54.338  1.00  0.00     0.258 A 
HETATM   31  N   UNL     1       7.225  22.984  55.219  1.00  0.00    -0.237 NA
ENDBRANCH  25  26
ENDBRANCH  21  25
ENDBRANCH  15  19
ENDBRANCH  10  13
ENDBRANCH   1   9
TORSDOF 5
ENDMDL
MODEL 2
REMARK VINA RESULT:      -9.6      2.162     10.365
REMARK  5 active torsions:
REMARK  status: ('A' for Active; 'I' for Inactive)
REMARK    1  A    between atoms: C_6  and  C_7 
REMARK    2  A    between atoms: C_7  and  N_8 
REMARK       I    between atoms: N_8  and  C_9 
REMARK       I    between atoms: C_9  and  N_10 
REMARK    3  A    between atoms: N_10  and  C_11 
REMARK    4  A    between atoms: C_13  and  C_14 
REMARK       I    between atoms: C_14  and  N_15 
REMARK    5  A    between atoms: N_15  and  C_16 
ROOT
HETATM    1  C   UNL     1       7.040  26.331  54.691  1.00  0.00     0.036 A 
HETATM    2  C   UNL     1       7.630  25.104  54.377  1.00  0.00     0.052 A 
HETATM    3  C   UNL     1       6.948  24.173  53.582  1.00  0.00     0.046 A 
HETATM    4  C   UNL     1       7.556  22.915  53.267  1.00  0.00     0.099 C 
HETATM    5  N   UNL     1       8.030  21.889  53.000  1.00  0.00    -0.191 NA
HETATM    6  C   UNL     1       5.670  24.470  53.095  1.00  0.00     0.023 A 
HETATM    7  C   UNL     1       5.078  25.693  53.401  1.00  0.00     0.004 A 
HETATM    8  C   UNL     1       5.761  26.617  54.195  1.00  0.00     0.029 A 
ENDROOT
BRANCH   1   9
HETATM    9  N   UNL     1       7.653  27.323  55.485  1.00  0.00    -0.323 N 
HETATM   10  C   UNL     1       7.685  27.397  56.867  1.00  0.00     0.256 C 
HETATM   11  O   UNL     1       7.138  26.629  57.650  1.00  0.00    -0.267 OA
HETATM   12  H   UNL     1       8.077  28.088  54.973  1.00  0.00     0.169 HD
BRANCH  10  13
HETATM   13  C   UNL     1       8.426  28.567  57.426  1.00  0.00     0.034 A 
HETATM   14  C   UNL     1       7.949  29.281  58.534  1.00  0.00     0.046 A 
HETATM   15  C   UNL     1       8.695  30.334  59.069  1.00  0.00     0.037 A 
HETATM   16  C   UNL     1       9.892  30.707  58.449  1.00  0.00     0.029 A 
HETATM   17  C   UNL     1      10.353  30.025  57.321  1.00  0.00     0.003 A 
HETATM   18  C   UNL     1       9.623  28.953  56.812  1.00  0.00     0.017 A 
BRANCH  15  19
HETATM   19  N   UNL     1       8.306  31.060  60.214  1.00  0.00    -0.309 N 
HETATM   20  C   UNL     1       8.692  30.841  61.507  1.00  0.00     0.321 C 
HETATM   21  N   UNL     1       8.128  31.653  62.446  1.00  0.00    -0.337 N 
HETATM   22  O   UNL     1       9.493  29.992  61.895  1.00  0.00    -0.247 OA
HETATM   23  H   UNL     1       8.430  31.422  63.383  1.00  0.00     0.164 HD
HETATM   24  H   UNL     1       7.864  31.956  60.033  1.00  0.00     0.170 HD
BRANCH  21  25
HETATM   25  C   UNL     1       7.015  32.568  62.298  1.00  0.00     0.186 C 
BRANCH  25  26
HETATM   26  C   UNL     1       6.655  33.138  63.623  1.00  0.00     0.083 A 
HETATM   27  C   UNL     1       5.445  33.622  64.079  1.00  0.00     0.076 A 
HETATM   28  C   UNL     1       4.102  33.778  63.496  1.00  0.00     0.079 C 
HETATM   29  O   UNL     1       5.615  34.011  65.379  1.00  0.00    -0.307 OA
HETATM   30  C   UNL     1       6.919  33.730  65.642  1.00  0.00     0.258 A 
HETATM   31  N   UNL     1       7.590  33.204  64.641  1.00  0.00    -0.237 NA
ENDBRANCH  25  26
ENDBRANCH  21  25
ENDBRANCH  15  19
ENDBRANCH  10  13
ENDBRANCH   1   9
TORSDOF 5
ENDMDL
MODEL 3
REMARK VINA RESULT:      -9.4      2.397      9.851
REMARK  5 active torsions:
REMARK  status: ('A' for Active; 'I' for Inactive)
REMARK    1  A    between atoms: C_6  and  C_7 
REMARK    2  A    between atoms: C_7  and  N_8 
REMARK       I    between atoms: N_8  and  C_9 
REMARK       I    between atoms: C_9  and  N_10 
REMARK    3  A    between atoms: N_10  and  C_11 
REMARK    4  A    between atoms: C_13  and  C_14 
REMARK       I    between atoms: C_14  and  N_15 
REMARK    5  A    between atoms: N_15  and  C_16 
ROOT
HETATM    1  C   UNL     1       7.747  26.357  56.726  1.00  0.00     0.036 A 
HETATM    2  C   UNL     1       6.820  26.266  55.686  1.00  0.00     0.052 A 
HETATM    3  C   UNL     1       6.566  25.035  55.067  1.00  0.00     0.046 A 
HETATM    4  C   UNL     1       5.617  24.949  53.997  1.00  0.00     0.099 C 
HETATM    5  N   UNL     1       4.852  24.858  53.129  1.00  0.00    -0.191 NA
HETATM    6  C   UNL     1       7.241  23.885  55.492  1.00  0.00     0.023 A 
HETATM    7  C   UNL     1       8.163  23.966  56.532  1.00  0.00     0.004 A 
HETATM    8  C   UNL     1       8.414  25.196  57.144  1.00  0.00     0.029 A 
ENDROOT
BRANCH   1   9
HETATM    9  N   UNL     1       8.065  27.554  57.402  1.00  0.00    -0.323 N 
HETATM   10  C   UNL     1       8.552  28.728  56.853  1.00  0.00     0.256 C 
HETATM   11  O   UNL     1       8.842  28.917  55.678  1.00  0.00    -0.267 OA
HETATM   12  H   UNL     1       7.962  27.524  58.409  1.00  0.00     0.169 HD
BRANCH  10  13
HETATM   13  C   UNL     1       8.783  29.837  57.826  1.00  0.00     0.034 A 
HETATM   14  C   UNL     1       7.823  30.190  58.784  1.00  0.00     0.046 A 
HETATM   15  C   UNL     1       8.093  31.193  59.718  1.00  0.00     0.037 A 
HETATM   16  C   UNL     1       9.309  31.883  59.647  1.00  0.00     0.029 A 
HETATM   17  C   UNL     1      10.253  31.562  58.670  1.00  0.00     0.003 A 
HETATM   18  C   UNL     1       9.993  30.537  57.763  1.00  0.00     0.017 A 
BRANCH  15  19
HETATM   19  N   UNL     1       7.199  31.563  60.744  1.00  0.00    -0.309 N 
HETATM   20  C   UNL     1       7.319  31.311  62.082  1.00  0.00     0.321 C 
HETATM   21  N   UNL     1       6.285  31.728  62.866  1.00  0.00    -0.337 N 
HETATM   22  O   UNL     1       8.265  30.753  62.636  1.00  0.00    -0.247 OA
HETATM   23  H   UNL     1       6.419  31.487  63.838  1.00  0.00     0.164 HD
HETATM   24  H   UNL     1       6.507  32.262  60.488  1.00  0.00     0.170 HD
BRANCH  21  25
HETATM   25  C   UNL     1       4.978  32.202  62.460  1.00  0.00     0.186 C 
BRANCH  25  26
HETATM   26  C   UNL     1       4.423  33.101  63.506  1.00  0.00     0.083 A 
HETATM   27  C   UNL     1       3.374  33.995  63.439  1.00  0.00     0.076 A 
HETATM   28  C   UNL     1       2.433  34.415  62.387  1.00  0.00     0.079 C 
HETATM   29  O   UNL     1       3.233  34.566  64.673  1.00  0.00    -0.307 OA
HETATM   30  C   UNL     1       4.200  33.976  65.425  1.00  0.00     0.258 A 
HETATM   31  N   UNL     1       4.939  33.092  64.790  1.00  0.00    -0.237 NA
ENDBRANCH  25  26
ENDBRANCH  21  25
ENDBRANCH  15  19
ENDBRANCH  10  13
ENDBRANCH   1   9
TORSDOF 5
ENDMDL
MODEL 4
REMARK VINA RESULT:      -9.3      1.931     10.459
REMARK  5 active torsions:
REMARK  status: ('A' for Active; 'I' for Inactive)
REMARK    1  A    between atoms: C_6  and  C_7 
REMARK    2  A    between atoms: C_7  and  N_8 
REMARK       I    between atoms: N_8  and  C_9 
REMARK       I    between atoms: C_9  and  N_10 
REMARK    3  A    between atoms: N_10  and  C_11 
REMARK    4  A    between atoms: C_13  and  C_14 
REMARK       I    between atoms: C_14  and  N_15 
REMARK    5  A    between atoms: N_15  and  C_16 
ROOT
HETATM    1  C   UNL     1       7.918  25.062  54.999  1.00  0.00     0.036 A 
HETATM    2  C   UNL     1       7.930  23.797  55.590  1.00  0.00     0.052 A 
HETATM    3  C   UNL     1       7.613  22.659  54.836  1.00  0.00     0.046 A 
HETATM    4  C   UNL     1       7.623  21.364  55.449  1.00  0.00     0.099 C 
HETATM    5  N   UNL     1       7.625  20.306  55.926  1.00  0.00    -0.191 NA
HETATM    6  C   UNL     1       7.284  22.785  53.482  1.00  0.00     0.023 A 
HETATM    7  C   UNL     1       7.274  24.043  52.884  1.00  0.00     0.004 A 
HETATM    8  C   UNL     1       7.589  25.174  53.640  1.00  0.00     0.029 A 
ENDROOT
BRANCH   1   9
HETATM    9  N   UNL     1       8.221  26.259  55.683  1.00  0.00    -0.323 N 
HETATM   10  C   UNL     1       7.432  26.927  56.603  1.00  0.00     0.256 C 
HETATM   11  O   UNL     1       6.298  26.618  56.950  1.00  0.00    -0.267 OA
HETATM   12  H   UNL     1       9.101  26.691  55.430  1.00  0.00     0.169 HD
BRANCH  10  13
HETATM   13  C   UNL     1       8.031  28.171  57.171  1.00  0.00     0.034 A 
HETATM   14  C   UNL     1       7.368  28.932  58.145  1.00  0.00     0.046 A 
HETATM   15  C   UNL     1       7.981  30.058  58.699  1.00  0.00     0.037 A 
HETATM   16  C   UNL     1       9.238  30.453  58.227  1.00  0.00     0.029 A 
HETATM   17  C   UNL     1       9.886  29.722  57.229  1.00  0.00     0.003 A 
HETATM   18  C   UNL     1       9.285  28.580  56.705  1.00  0.00     0.017 A 
BRANCH  15  19
HETATM   19  N   UNL     1       7.399  30.837  59.720  1.00  0.00    -0.309 N 
HETATM   20  C   UNL     1       6.721  32.016  59.581  1.00  0.00     0.321 C 
HETATM   21  N   UNL     1       6.303  32.606  60.737  1.00  0.00    -0.337 N 
HETATM   22  O   UNL     1       6.455  32.583  58.523  1.00  0.00    -0.247 OA
HETATM   23  H   UNL     1       5.835  33.486  60.570  1.00  0.00     0.164 HD
HETATM   24  H   UNL     1       7.295  30.373  60.617  1.00  0.00     0.170 HD
BRANCH  21  25
HETATM   25  C   UNL     1       6.663  32.277  62.101  1.00  0.00     0.186 C 
BRANCH  25  26
HETATM   26  C   UNL     1       5.743  32.968  63.043  1.00  0.00     0.083 A 
HETATM   27  C   UNL     1       5.981  33.466  64.307  1.00  0.00     0.076 A 
HETATM   28  C   UNL     1       7.152  33.519  65.199  1.00  0.00     0.079 C 
HETATM   29  O   UNL     1       4.823  34.037  64.757  1.00  0.00    -0.307 OA
HETATM   30  C   UNL     1       3.947  33.862  63.731  1.00  0.00     0.258 A 
HETATM   31  N   UNL     1       4.434  33.237  62.681  1.00  0.00    -0.237 NA
ENDBRANCH  25  26
ENDBRANCH  21  25
ENDBRANCH  15  19
ENDBRANCH  10  13
ENDBRANCH   1   9
TORSDOF 5
ENDMDL
MODEL 5
REMARK VINA RESULT:      -9.2      2.585     10.019
REMARK  5 active torsions:
REMARK  status: ('A' for Active; 'I' for Inactive)
REMARK    1  A    between atoms: C_6  and  C_7 
REMARK    2  A    between atoms: C_7  and  N_8 
REMARK       I    between atoms: N_8  and  C_9 
REMARK       I    between atoms: C_9  and  N_10 
REMARK    3  A    between atoms: N_10  and  C_11 
REMARK    4  A    between atoms: C_13  and  C_14 
REMARK       I    between atoms: C_14  and  N_15 
REMARK    5  A    between atoms: N_15  and  C_16 
ROOT
HETATM    1  C   UNL     1       6.699  25.489  54.150  1.00  0.00     0.036 A 
HETATM    2  C   UNL     1       6.850  24.246  54.769  1.00  0.00     0.052 A 
HETATM    3  C   UNL     1       7.516  23.203  54.111  1.00  0.00     0.046 A 
HETATM    4  C   UNL     1       7.666  21.929  54.750  1.00  0.00     0.099 C 
HETATM    5  N   UNL     1       7.797  20.889  55.250  1.00  0.00    -0.191 NA
HETATM    6  C   UNL     1       8.036  23.402  52.828  1.00  0.00     0.023 A 
HETATM    7  C   UNL     1       7.893  24.640  52.206  1.00  0.00     0.004 A 
HETATM    8  C   UNL     1       7.227  25.676  52.865  1.00  0.00     0.029 A 
ENDROOT
BRANCH   1   9
HETATM    9  N   UNL     1       6.041  26.591  54.737  1.00  0.00    -0.323 N 
HETATM   10  C   UNL     1       6.586  27.549  55.574  1.00  0.00     0.256 C 
HETATM   11  O   UNL     1       7.737  27.580  55.994  1.00  0.00    -0.267 OA
HETATM   12  H   UNL     1       5.047  26.651  54.552  1.00  0.00     0.169 HD
BRANCH  10  13
HETATM   13  C   UNL     1       5.638  28.608  56.031  1.00  0.00     0.034 A 
HETATM   14  C   UNL     1       5.848  29.325  57.218  1.00  0.00     0.046 A 
HETATM   15  C   UNL     1       4.974  30.350  57.588  1.00  0.00     0.037 A 
HETATM   16  C   UNL     1       3.853  30.612  56.791  1.00  0.00     0.029 A 
HETATM   17  C   UNL     1       3.617  29.876  55.629  1.00  0.00     0.003 A 
HETATM   18  C   UNL     1       4.511  28.878  55.246  1.00  0.00     0.017 A 
BRANCH  15  19
HETATM   19  N   UNL     1       5.152  31.148  58.736  1.00  0.00    -0.309 N 
HETATM   20  C   UNL     1       5.495  32.471  58.784  1.00  0.00     0.321 C 
HETATM   21  N   UNL     1       5.660  33.002  60.029  1.00  0.00    -0.337 N 
HETATM   22  O   UNL     1       5.660  33.215  57.820  1.00  0.00    -0.247 OA
HETATM   23  H   UNL     1       5.941  33.973  59.996  1.00  0.00     0.164 HD
HETATM   24  H   UNL     1       4.789  30.756  59.600  1.00  0.00     0.170 HD
BRANCH  21  25
HETATM   25  C   UNL     1       5.742  32.315  61.301  1.00  0.00     0.186 C 
BRANCH  25  26
HETATM   26  C   UNL     1       7.138  31.866  61.541  1.00  0.00     0.083 A 
HETATM   27  C   UNL     1       7.973  32.106  62.614  1.00  0.00     0.076 A 
HETATM   28  C   UNL     1       7.852  32.853  63.877  1.00  0.00     0.079 C 
HETATM   29  O   UNL     1       9.152  31.455  62.379  1.00  0.00    -0.307 OA
HETATM   30  C   UNL     1       8.962  30.845  61.178  1.00  0.00     0.258 A 
HETATM   31  N   UNL     1       7.783  31.047  60.630  1.00  0.00    -0.237 NA
ENDBRANCH  25  26
ENDBRANCH  21  25
ENDBRANCH  15  19
ENDBRANCH  10  13
ENDBRANCH   1   9
TORSDOF 5
ENDMDL
MODEL 6
REMARK VINA RESULT:      -9.2      5.509      9.941
REMARK  5 active torsions:
REMARK  status: ('A' for Active; 'I' for Inactive)
REMARK    1  A    between atoms: C_6  and  C_7 
REMARK    2  A    between atoms: C_7  and  N_8 
REMARK       I    between atoms: N_8  and  C_9 
REMARK       I    between atoms: C_9  and  N_10 
REMARK    3  A    between atoms: N_10  and  C_11 
REMARK    4  A    between atoms: C_13  and  C_14 
REMARK       I    between atoms: C_14  and  N_15 
REMARK    5  A    between atoms: N_15  and  C_16 
ROOT
HETATM    1  C   UNL     1       6.435  33.423  70.414  1.00  0.00     0.036 A 
HETATM    2  C   UNL     1       6.879  32.174  70.854  1.00  0.00     0.052 A 
HETATM    3  C   UNL     1       7.504  32.043  72.102  1.00  0.00     0.046 A 
HETATM    4  C   UNL     1       7.961  30.760  72.546  1.00  0.00     0.099 C 
HETATM    5  N   UNL     1       8.339  29.729  72.925  1.00  0.00    -0.191 NA
HETATM    6  C   UNL     1       7.686  33.166  72.916  1.00  0.00     0.023 A 
HETATM    7  C   UNL     1       7.241  34.414  72.486  1.00  0.00     0.004 A 
HETATM    8  C   UNL     1       6.620  34.540  71.241  1.00  0.00     0.029 A 
ENDROOT
BRANCH   1   9
HETATM    9  N   UNL     1       5.799  33.645  69.175  1.00  0.00    -0.323 N 
HETATM   10  C   UNL     1       6.357  34.174  68.023  1.00  0.00     0.256 C 
HETATM   11  O   UNL     1       7.502  34.592  67.894  1.00  0.00    -0.267 OA
HETATM   12  H   UNL     1       4.809  33.430  69.150  1.00  0.00     0.169 HD
BRANCH  10  13
HETATM   13  C   UNL     1       5.431  34.278  66.857  1.00  0.00     0.034 A 
HETATM   14  C   UNL     1       5.800  33.834  65.579  1.00  0.00     0.046 A 
HETATM   15  C   UNL     1       4.890  33.891  64.521  1.00  0.00     0.037 A 
HETATM   16  C   UNL     1       3.627  34.453  64.737  1.00  0.00     0.029 A 
HETATM   17  C   UNL     1       3.266  34.932  65.998  1.00  0.00     0.003 A 
HETATM   18  C   UNL     1       4.166  34.841  67.058  1.00  0.00     0.017 A 
BRANCH  15  19
HETATM   19  N   UNL     1       5.172  33.413  63.225  1.00  0.00    -0.309 N 
HETATM   20  C   UNL     1       5.060  32.128  62.771  1.00  0.00     0.321 C 
HETATM   21  N   UNL     1       5.449  31.912  61.482  1.00  0.00    -0.337 N 
HETATM   22  O   UNL     1       4.640  31.164  63.409  1.00  0.00    -0.247 OA
HETATM   23  H   UNL     1       5.370  30.940  61.216  1.00  0.00     0.164 HD
HETATM   24  H   UNL     1       5.268  34.126  62.509  1.00  0.00     0.170 HD
BRANCH  21  25
HETATM   25  C   UNL     1       6.172  32.801  60.596  1.00  0.00     0.186 C 
BRANCH  25  26
HETATM   26  C   UNL     1       7.448  32.165  60.177  1.00  0.00     0.083 A 
HETATM   27  C   UNL     1       8.494  31.693  60.944  1.00  0.00     0.076 A 
HETATM   28  C   UNL     1       8.778  31.628  62.387  1.00  0.00     0.079 C 
HETATM   29  O   UNL     1       9.431  31.170  60.096  1.00  0.00    -0.307 OA
HETATM   30  C   UNL     1       8.893  31.345  58.859  1.00  0.00     0.258 A 
HETATM   31  N   UNL     1       7.713  31.926  58.840  1.00  0.00    -0.237 NA
ENDBRANCH  25  26
ENDBRANCH  21  25
ENDBRANCH  15  19
ENDBRANCH  10  13
ENDBRANCH   1   9
TORSDOF 5
ENDMDL
MODEL 7
REMARK VINA RESULT:      -9.0      5.384      9.251
REMARK  5 active torsions:
REMARK  status: ('A' for Active; 'I' for Inactive)
REMARK    1  A    between atoms: C_6  and  C_7 
REMARK    2  A    between atoms: C_7  and  N_8 
REMARK       I    between atoms: N_8  and  C_9 
REMARK       I    between atoms: C_9  and  N_10 
REMARK    3  A    between atoms: N_10  and  C_11 
REMARK    4  A    between atoms: C_13  and  C_14 
REMARK       I    between atoms: C_14  and  N_15 
REMARK    5  A    between atoms: N_15  and  C_16 
ROOT
HETATM    1  C   UNL     1       7.303  34.883  69.511  1.00  0.00     0.036 A 
HETATM    2  C   UNL     1       7.462  33.716  70.262  1.00  0.00     0.052 A 
HETATM    3  C   UNL     1       7.985  33.775  71.561  1.00  0.00     0.046 A 
HETATM    4  C   UNL     1       8.148  32.574  72.326  1.00  0.00     0.099 C 
HETATM    5  N   UNL     1       8.290  31.613  72.962  1.00  0.00    -0.191 NA
HETATM    6  C   UNL     1       8.349  35.007  72.115  1.00  0.00     0.023 A 
HETATM    7  C   UNL     1       8.190  36.175  71.374  1.00  0.00     0.004 A 
HETATM    8  C   UNL     1       7.670  36.111  70.079  1.00  0.00     0.029 A 
ENDROOT
BRANCH   1   9
HETATM    9  N   UNL     1       6.788  34.915  68.198  1.00  0.00    -0.323 N 
HETATM   10  C   UNL     1       5.504  34.603  67.788  1.00  0.00     0.256 C 
HETATM   11  O   UNL     1       4.592  34.192  68.498  1.00  0.00    -0.267 OA
HETATM   12  H   UNL     1       7.458  35.153  67.476  1.00  0.00     0.169 HD
BRANCH  10  13
HETATM   13  C   UNL     1       5.251  34.743  66.324  1.00  0.00     0.034 A 
HETATM   14  C   UNL     1       5.860  33.898  65.385  1.00  0.00     0.046 A 
HETATM   15  C   UNL     1       5.557  34.017  64.027  1.00  0.00     0.037 A 
HETATM   16  C   UNL     1       4.687  35.029  63.607  1.00  0.00     0.029 A 
HETATM   17  C   UNL     1       4.107  35.899  64.532  1.00  0.00     0.003 A 
HETATM   18  C   UNL     1       4.386  35.754  65.890  1.00  0.00     0.017 A 
BRANCH  15  19
HETATM   19  N   UNL     1       6.087  33.167  63.034  1.00  0.00    -0.309 N 
HETATM   20  C   UNL     1       5.751  31.865  62.789  1.00  0.00     0.321 C 
HETATM   21  N   UNL     1       6.454  31.241  61.801  1.00  0.00    -0.337 N 
HETATM   22  O   UNL     1       4.882  31.216  63.368  1.00  0.00    -0.247 OA
HETATM   23  H   UNL     1       6.180  30.274  61.688  1.00  0.00     0.164 HD
HETATM   24  H   UNL     1       6.616  33.630  62.301  1.00  0.00     0.170 HD
BRANCH  21  25
HETATM   25  C   UNL     1       7.653  31.689  61.124  1.00  0.00     0.186 C 
BRANCH  25  26
HETATM   26  C   UNL     1       7.766  31.013  59.805  1.00  0.00     0.083 A 
HETATM   27  C   UNL     1       7.040  31.205  58.646  1.00  0.00     0.076 A 
HETATM   28  C   UNL     1       5.927  32.084  58.253  1.00  0.00     0.079 C 
HETATM   29  O   UNL     1       7.541  30.360  57.695  1.00  0.00    -0.307 OA
HETATM   30  C   UNL     1       8.553  29.709  58.328  1.00  0.00     0.258 A 
HETATM   31  N   UNL     1       8.741  30.056  59.583  1.00  0.00    -0.237 NA
ENDBRANCH  25  26
ENDBRANCH  21  25
ENDBRANCH  15  19
ENDBRANCH  10  13
ENDBRANCH   1   9
TORSDOF 5
ENDMDL
MODEL 8
REMARK VINA RESULT:      -9.0      2.298     10.513
REMARK  5 active torsions:
REMARK  status: ('A' for Active; 'I' for Inactive)
REMARK    1  A    between atoms: C_6  and  C_7 
REMARK    2  A    between atoms: C_7  and  N_8 
REMARK       I    between atoms: N_8  and  C_9 
REMARK       I    between atoms: C_9  and  N_10 
REMARK    3  A    between atoms: N_10  and  C_11 
REMARK    4  A    between atoms: C_13  and  C_14 
REMARK       I    between atoms: C_14  and  N_15 
REMARK    5  A    between atoms: N_15  and  C_16 
ROOT
HETATM    1  C   UNL     1       7.760  23.368  55.947  1.00  0.00     0.036 A 
HETATM    2  C   UNL     1       7.820  22.677  54.735  1.00  0.00     0.052 A 
HETATM    3  C   UNL     1       8.196  21.327  54.707  1.00  0.00     0.046 A 
HETATM    4  C   UNL     1       8.260  20.624  53.460  1.00  0.00     0.099 C 
HETATM    5  N   UNL     1       8.319  20.036  52.461  1.00  0.00    -0.191 NA
HETATM    6  C   UNL     1       8.510  20.662  55.897  1.00  0.00     0.023 A 
HETATM    7  C   UNL     1       8.448  21.344  57.110  1.00  0.00     0.004 A 
HETATM    8  C   UNL     1       8.075  22.689  57.133  1.00  0.00     0.029 A 
ENDROOT
BRANCH   1   9
HETATM    9  N   UNL     1       7.394  24.725  56.067  1.00  0.00    -0.323 N 
HETATM   10  C   UNL     1       7.992  25.693  56.855  1.00  0.00     0.256 C 
HETATM   11  O   UNL     1       8.924  25.525  57.634  1.00  0.00    -0.267 OA
HETATM   12  H   UNL     1       6.572  25.001  55.544  1.00  0.00     0.169 HD
BRANCH  10  13
HETATM   13  C   UNL     1       7.386  27.054  56.762  1.00  0.00     0.034 A 
HETATM   14  C   UNL     1       7.486  27.980  57.810  1.00  0.00     0.046 A 
HETATM   15  C   UNL     1       6.959  29.266  57.669  1.00  0.00     0.037 A 
HETATM   16  C   UNL     1       6.276  29.599  56.494  1.00  0.00     0.029 A 
HETATM   17  C   UNL     1       6.139  28.669  55.462  1.00  0.00     0.003 A 
HETATM   18  C   UNL     1       6.697  27.399  55.594  1.00  0.00     0.017 A 
BRANCH  15  19
HETATM   19  N   UNL     1       7.071  30.266  58.657  1.00  0.00    -0.309 N 
HETATM   20  C   UNL     1       8.156  30.541  59.442  1.00  0.00     0.321 C 
HETATM   21  N   UNL     1       7.991  31.529  60.367  1.00  0.00    -0.337 N 
HETATM   22  O   UNL     1       9.253  29.989  59.387  1.00  0.00    -0.247 OA
HETATM   23  H   UNL     1       8.817  31.664  60.935  1.00  0.00     0.164 HD
HETATM   24  H   UNL     1       6.350  30.981  58.637  1.00  0.00     0.170 HD
BRANCH  21  25
HETATM   25  C   UNL     1       6.766  32.178  60.788  1.00  0.00     0.186 C 
BRANCH  25  26
HETATM   26  C   UNL     1       6.960  32.798  62.125  1.00  0.00     0.083 A 
HETATM   27  C   UNL     1       6.357  33.908  62.682  1.00  0.00     0.076 A 
HETATM   28  C   UNL     1       5.350  34.881  62.226  1.00  0.00     0.079 C 
HETATM   29  O   UNL     1       6.851  34.060  63.947  1.00  0.00    -0.307 OA
HETATM   30  C   UNL     1       7.719  33.023  64.092  1.00  0.00     0.258 A 
HETATM   31  N   UNL     1       7.826  32.234  63.045  1.00  0.00    -0.237 NA
ENDBRANCH  25  26
ENDBRANCH  21  25
ENDBRANCH  15  19
ENDBRANCH  10  13
ENDBRANCH   1   9
TORSDOF 5
ENDMDL
MODEL 9
REMARK VINA RESULT:      -8.9      2.516      9.913
REMARK  5 active torsions:
REMARK  status: ('A' for Active; 'I' for Inactive)
REMARK    1  A    between atoms: C_6  and  C_7 
REMARK    2  A    between atoms: C_7  and  N_8 
REMARK       I    between atoms: N_8  and  C_9 
REMARK       I    between atoms: C_9  and  N_10 
REMARK    3  A    between atoms: N_10  and  C_11 
REMARK    4  A    between atoms: C_13  and  C_14 
REMARK       I    between atoms: C_14  and  N_15 
REMARK    5  A    between atoms: N_15  and  C_16 
ROOT
HETATM    1  C   UNL     1       7.205  25.296  54.400  1.00  0.00     0.036 A 
HETATM    2  C   UNL     1       7.228  24.107  55.132  1.00  0.00     0.052 A 
HETATM    3  C   UNL     1       7.616  22.906  54.523  1.00  0.00     0.046 A 
HETATM    4  C   UNL     1       7.634  21.689  55.280  1.00  0.00     0.099 C 
HETATM    5  N   UNL     1       7.655  20.692  55.874  1.00  0.00    -0.191 NA
HETATM    6  C   UNL     1       7.986  22.892  53.174  1.00  0.00     0.023 A 
HETATM    7  C   UNL     1       7.970  24.075  52.438  1.00  0.00     0.004 A 
HETATM    8  C   UNL     1       7.581  25.269  53.049  1.00  0.00     0.029 A 
ENDROOT
BRANCH   1   9
HETATM    9  N   UNL     1       6.826  26.547  54.932  1.00  0.00    -0.323 N 
HETATM   10  C   UNL     1       5.654  27.244  54.694  1.00  0.00     0.256 C 
HETATM   11  O   UNL     1       4.751  26.914  53.933  1.00  0.00    -0.267 OA
HETATM   12  H   UNL     1       7.519  26.996  55.518  1.00  0.00     0.169 HD
BRANCH  10  13
HETATM   13  C   UNL     1       5.530  28.546  55.414  1.00  0.00     0.034 A 
HETATM   14  C   UNL     1       6.476  28.956  56.366  1.00  0.00     0.046 A 
HETATM   15  C   UNL     1       6.364  30.206  56.979  1.00  0.00     0.037 A 
HETATM   16  C   UNL     1       5.265  31.018  56.678  1.00  0.00     0.029 A 
HETATM   17  C   UNL     1       4.299  30.599  55.761  1.00  0.00     0.003 A 
HETATM   18  C   UNL     1       4.434  29.366  55.126  1.00  0.00     0.017 A 
BRANCH  15  19
HETATM   19  N   UNL     1       7.305  30.707  57.901  1.00  0.00    -0.309 N 
HETATM   20  C   UNL     1       8.142  29.988  58.709  1.00  0.00     0.321 C 
HETATM   21  N   UNL     1       8.923  30.713  59.559  1.00  0.00    -0.337 N 
HETATM   22  O   UNL     1       8.254  28.764  58.735  1.00  0.00    -0.247 OA
HETATM   23  H   UNL     1       9.496  30.124  60.148  1.00  0.00     0.164 HD
HETATM   24  H   UNL     1       7.527  31.693  57.805  1.00  0.00     0.170 HD
BRANCH  21  25
HETATM   25  C   UNL     1       8.838  32.121  59.886  1.00  0.00     0.186 C 
BRANCH  25  26
HETATM   26  C   UNL     1       8.075  32.297  61.149  1.00  0.00     0.083 A 
HETATM   27  C   UNL     1       6.730  32.538  61.345  1.00  0.00     0.076 A 
HETATM   28  C   UNL     1       5.567  32.716  60.459  1.00  0.00     0.079 C 
HETATM   29  O   UNL     1       6.507  32.594  62.692  1.00  0.00    -0.307 OA
HETATM   30  C   UNL     1       7.732  32.373  63.240  1.00  0.00     0.258 A 
HETATM   31  N   UNL     1       8.705  32.184  62.376  1.00  0.00    -0.237 NA
ENDBRANCH  25  26
ENDBRANCH  21  25
ENDBRANCH  15  19
ENDBRANCH  10  13
ENDBRANCH   1   9
TORSDOF 5
ENDMDL
MODEL 10
REMARK VINA RESULT:      -8.8      2.698      9.772
REMARK  5 active torsions:
REMARK  status: ('A' for Active; 'I' for Inactive)
REMARK    1  A    between atoms: C_6  and  C_7 
REMARK    2  A    between atoms: C_7  and  N_8 
REMARK       I    between atoms: N_8  and  C_9 
REMARK       I    between atoms: C_9  and  N_10 
REMARK    3  A    between atoms: N_10  and  C_11 
REMARK    4  A    between atoms: C_13  and  C_14 
REMARK       I    between atoms: C_14  and  N_15 
REMARK    5  A    between atoms: N_15  and  C_16 
ROOT
HETATM    1  C   UNL     1       7.472  23.868  55.712  1.00  0.00     0.036 A 
HETATM    2  C   UNL     1       7.514  23.037  54.590  1.00  0.00     0.052 A 
HETATM    3  C   UNL     1       8.041  21.742  54.686  1.00  0.00     0.046 A 
HETATM    4  C   UNL     1       8.085  20.896  53.530  1.00  0.00     0.099 C 
HETATM    5  N   UNL     1       8.130  20.194  52.606  1.00  0.00    -0.191 NA
HETATM    6  C   UNL     1       8.528  21.272  55.911  1.00  0.00     0.023 A 
HETATM    7  C   UNL     1       8.485  22.093  57.035  1.00  0.00     0.004 A 
HETATM    8  C   UNL     1       7.960  23.384  56.934  1.00  0.00     0.029 A 
ENDROOT
BRANCH   1   9
HETATM    9  N   UNL     1       6.962  25.183  55.704  1.00  0.00    -0.323 N 
HETATM   10  C   UNL     1       5.768  25.628  56.246  1.00  0.00     0.256 C 
HETATM   11  O   UNL     1       4.914  24.938  56.789  1.00  0.00    -0.267 OA
HETATM   12  H   UNL     1       7.523  25.862  55.204  1.00  0.00     0.169 HD
BRANCH  10  13
HETATM   13  C   UNL     1       5.504  27.089  56.090  1.00  0.00     0.034 A 
HETATM   14  C   UNL     1       5.708  27.992  57.143  1.00  0.00     0.046 A 
HETATM   15  C   UNL     1       5.507  29.361  56.948  1.00  0.00     0.037 A 
HETATM   16  C   UNL     1       5.042  29.813  55.708  1.00  0.00     0.029 A 
HETATM   17  C   UNL     1       4.799  28.914  54.667  1.00  0.00     0.003 A 
HETATM   18  C   UNL     1       5.034  27.554  54.856  1.00  0.00     0.017 A 
BRANCH  15  19
HETATM   19  N   UNL     1       5.746  30.332  57.942  1.00  0.00    -0.309 N 
HETATM   20  C   UNL     1       4.817  31.000  58.691  1.00  0.00     0.321 C 
HETATM   21  N   UNL     1       5.304  31.937  59.552  1.00  0.00    -0.337 N 
HETATM   22  O   UNL     1       3.600  30.831  58.661  1.00  0.00    -0.247 OA
HETATM   23  H   UNL     1       4.568  32.416  60.054  1.00  0.00     0.164 HD
HETATM   24  H   UNL     1       6.703  30.387  58.276  1.00  0.00     0.170 HD
BRANCH  21  25
HETATM   25  C   UNL     1       6.644  32.483  59.631  1.00  0.00     0.186 C 
BRANCH  25  26
HETATM   26  C   UNL     1       7.481  31.631  60.515  1.00  0.00     0.083 A 
HETATM   27  C   UNL     1       8.510  30.767  60.196  1.00  0.00     0.076 A 
HETATM   28  C   UNL     1       9.161  30.346  58.944  1.00  0.00     0.079 C 
HETATM   29  O   UNL     1       8.985  30.235  61.362  1.00  0.00    -0.307 OA
HETATM   30  C   UNL     1       8.224  30.817  62.327  1.00  0.00     0.258 A 
HETATM   31  N   UNL     1       7.315  31.660  61.889  1.00  0.00    -0.237 NA
ENDBRANCH  25  26
ENDBRANCH  21  25
ENDBRANCH  15  19
ENDBRANCH  10  13
ENDBRANCH   1   9
TORSDOF 5
ENDMDL
