MODEL 1
REMARK VINA RESULT:      -8.6      0.000      0.000
REMARK  8 active torsions:
REMARK  status: ('A' for Active; 'I' for Inactive)
REMARK    1  A    between atoms: O_2  and  C_3 
REMARK    2  A    between atoms: C_4  and  O_5 
REMARK    3  A    between atoms: O_5  and  C_6 
REMARK    4  A    between atoms: C_6  and  C_7 
REMARK       I    between atoms: C_7  and  N_8 
REMARK    5  A    between atoms: N_8  and  C_9 
REMARK    6  A    between atoms: C_9  and  N_10 
REMARK    7  A    between atoms: N_10  and  N_11 
REMARK       I    between atoms: N_11  and  C_12 
REMARK       I    between atoms: C_12  and  N_13 
REMARK    8  A    between atoms: N_13  and  C_14 
ROOT
HETATM    1  C   UNL     1       6.793  28.934  57.281  1.00  0.00     0.189 C 
HETATM    2  S   UNL     1       5.838  30.224  56.833  1.00  0.00    -0.039 SA
ENDROOT
BRANCH   1   3
HETATM    3  N   UNL     1       6.771  27.651  56.762  1.00  0.00    -0.301 N 
HETATM    4  C   UNL     1       7.066  26.439  57.396  1.00  0.00     0.248 C 
HETATM    5  O   UNL     1       7.928  26.288  58.255  1.00  0.00    -0.271 OA
HETATM    6  H   UNL     1       6.325  27.586  55.863  1.00  0.00     0.171 HD
BRANCH   4   7
HETATM    7  C   UNL     1       6.227  25.284  56.831  1.00  0.00     0.278 C 
BRANCH   7   8
HETATM    8  O   UNL     1       6.985  24.092  56.721  1.00  0.00    -0.339 OA
BRANCH   8   9
HETATM    9  C   UNL     1       7.219  23.576  55.477  1.00  0.00     0.102 A 
HETATM   10  C   UNL     1       7.766  22.283  55.382  1.00  0.00     0.101 A 
HETATM   11  C   UNL     1       8.055  21.745  54.118  1.00  0.00     0.039 A 
HETATM   12  C   UNL     1       7.796  22.463  52.952  1.00  0.00     0.003 A 
HETATM   13  C   UNL     1       7.253  23.738  53.041  1.00  0.00     0.003 A 
HETATM   14  C   UNL     1       6.976  24.293  54.294  1.00  0.00     0.039 A 
BRANCH  10  15
HETATM   15  O   UNL     1       8.096  21.420  56.397  1.00  0.00    -0.353 OA
HETATM   16  C   UNL     1       9.106  20.448  56.163  1.00  0.00     0.210 C 
ENDBRANCH  10  15
ENDBRANCH   8   9
ENDBRANCH   7   8
ENDBRANCH   4   7
ENDBRANCH   1   3
BRANCH   1  17
HETATM   17  N   UNL     1       7.759  29.151  58.242  1.00  0.00    -0.289 N 
HETATM   18  H   UNL     1       7.483  29.029  59.218  1.00  0.00     0.183 HD
BRANCH  17  19
HETATM   19  N   UNL     1       9.141  29.173  57.961  1.00  0.00    -0.153 NA
HETATM   20  C   UNL     1       9.814  30.363  57.960  1.00  0.00     0.317 C 
HETATM   21  N   UNL     1       9.481  31.378  58.791  1.00  0.00    -0.312 N 
HETATM   22  O   UNL     1      10.680  30.538  57.100  1.00  0.00    -0.252 OA
HETATM   23  H   UNL     1       9.872  32.256  58.464  1.00  0.00     0.170 HD
HETATM   24  H   UNL     1       9.410  28.688  57.110  1.00  0.00     0.157 HD
BRANCH  21  25
HETATM   25  C   UNL     1       8.888  31.430  60.063  1.00  0.00     0.035 A 
HETATM   26  C   UNL     1       9.326  30.693  61.163  1.00  0.00     0.029 A 
HETATM   27  C   UNL     1       8.679  30.815  62.396  1.00  0.00     0.002 A 
HETATM   28  C   UNL     1       7.601  31.688  62.542  1.00  0.00     0.000 A 
HETATM   29  C   UNL     1       7.178  32.451  61.459  1.00  0.00     0.002 A 
HETATM   30  C   UNL     1       7.825  32.329  60.228  1.00  0.00     0.029 A 
ENDBRANCH  21  25
ENDBRANCH  17  19
ENDBRANCH   1  17
TORSDOF 8
ENDMDL
MODEL 2
REMARK VINA RESULT:      -8.4      1.485      2.431
REMARK  8 active torsions:
REMARK  status: ('A' for Active; 'I' for Inactive)
REMARK    1  A    between atoms: O_2  and  C_3 
REMARK    2  A    between atoms: C_4  and  O_5 
REMARK    3  A    between atoms: O_5  and  C_6 
REMARK    4  A    between atoms: C_6  and  C_7 
REMARK       I    between atoms: C_7  and  N_8 
REMARK    5  A    between atoms: N_8  and  C_9 
REMARK    6  A    between atoms: C_9  and  N_10 
REMARK    7  A    between atoms: N_10  and  N_11 
REMARK       I    between atoms: N_11  and  C_12 
REMARK       I    between atoms: C_12  and  N_13 
REMARK    8  A    between atoms: N_13  and  C_14 
ROOT
HETATM    1  C   UNL     1       7.125  29.665  57.970  1.00  0.00     0.189 C 
HETATM    2  S   UNL     1       5.801  30.667  57.823  1.00  0.00    -0.039 SA
ENDROOT
BRANCH   1   3
HETATM    3  N   UNL     1       7.569  28.719  57.062  1.00  0.00    -0.301 N 
HETATM    4  C   UNL     1       7.612  27.327  57.191  1.00  0.00     0.248 C 
HETATM    5  O   UNL     1       7.852  26.726  58.233  1.00  0.00    -0.271 OA
HETATM    6  H   UNL     1       7.720  29.086  56.138  1.00  0.00     0.171 HD
BRANCH   4   7
HETATM    7  C   UNL     1       7.398  26.625  55.842  1.00  0.00     0.278 C 
BRANCH   7   8
HETATM    8  O   UNL     1       6.963  25.288  56.013  1.00  0.00    -0.339 OA
BRANCH   8   9
HETATM    9  C   UNL     1       7.530  24.310  55.243  1.00  0.00     0.102 A 
HETATM   10  C   UNL     1       7.005  24.083  53.957  1.00  0.00     0.101 A 
HETATM   11  C   UNL     1       7.542  23.057  53.163  1.00  0.00     0.039 A 
HETATM   12  C   UNL     1       8.597  22.269  53.618  1.00  0.00     0.003 A 
HETATM   13  C   UNL     1       9.120  22.492  54.885  1.00  0.00     0.003 A 
HETATM   14  C   UNL     1       8.585  23.499  55.694  1.00  0.00     0.039 A 
BRANCH  10  15
HETATM   15  O   UNL     1       5.976  24.737  53.329  1.00  0.00    -0.353 OA
HETATM   16  C   UNL     1       6.243  25.407  52.105  1.00  0.00     0.210 C 
ENDBRANCH  10  15
ENDBRANCH   8   9
ENDBRANCH   7   8
ENDBRANCH   4   7
ENDBRANCH   1   3
BRANCH   1  17
HETATM   17  N   UNL     1       7.917  29.805  59.091  1.00  0.00    -0.289 N 
HETATM   18  H   UNL     1       7.577  29.388  59.958  1.00  0.00     0.183 HD
BRANCH  17  19
HETATM   19  N   UNL     1       9.282  30.158  59.037  1.00  0.00    -0.153 NA
HETATM   20  C   UNL     1       9.642  31.476  59.013  1.00  0.00     0.317 C 
HETATM   21  N   UNL     1       8.931  32.428  59.662  1.00  0.00    -0.312 N 
HETATM   22  O   UNL     1      10.585  31.806  58.291  1.00  0.00    -0.252 OA
HETATM   23  H   UNL     1       9.156  33.351  59.307  1.00  0.00     0.170 HD
HETATM   24  H   UNL     1       9.810  29.700  58.300  1.00  0.00     0.157 HD
BRANCH  21  25
HETATM   25  C   UNL     1       8.117  32.413  60.807  1.00  0.00     0.035 A 
HETATM   26  C   UNL     1       6.738  32.622  60.791  1.00  0.00     0.029 A 
HETATM   27  C   UNL     1       6.006  32.580  61.981  1.00  0.00     0.002 A 
HETATM   28  C   UNL     1       6.643  32.311  63.192  1.00  0.00     0.000 A 
HETATM   29  C   UNL     1       8.013  32.069  63.212  1.00  0.00     0.002 A 
HETATM   30  C   UNL     1       8.744  32.111  62.024  1.00  0.00     0.029 A 
ENDBRANCH  21  25
ENDBRANCH  17  19
ENDBRANCH   1  17
TORSDOF 8
ENDMDL
MODEL 3
REMARK VINA RESULT:      -8.2      1.707      2.098
REMARK  8 active torsions:
REMARK  status: ('A' for Active; 'I' for Inactive)
REMARK    1  A    between atoms: O_2  and  C_3 
REMARK    2  A    between atoms: C_4  and  O_5 
REMARK    3  A    between atoms: O_5  and  C_6 
REMARK    4  A    between atoms: C_6  and  C_7 
REMARK       I    between atoms: C_7  and  N_8 
REMARK    5  A    between atoms: N_8  and  C_9 
REMARK    6  A    between atoms: C_9  and  N_10 
REMARK    7  A    between atoms: N_10  and  N_11 
REMARK       I    between atoms: N_11  and  C_12 
REMARK       I    between atoms: C_12  and  N_13 
REMARK    8  A    between atoms: N_13  and  C_14 
ROOT
HETATM    1  C   UNL     1       6.910  30.138  57.806  1.00  0.00     0.189 C 
HETATM    2  S   UNL     1       5.419  30.849  58.022  1.00  0.00    -0.039 SA
ENDROOT
BRANCH   1   3
HETATM    3  N   UNL     1       7.450  29.658  56.625  1.00  0.00    -0.301 N 
HETATM    4  C   UNL     1       7.985  28.395  56.349  1.00  0.00     0.248 C 
HETATM    5  O   UNL     1       8.620  27.714  57.147  1.00  0.00    -0.271 OA
HETATM    6  H   UNL     1       7.276  30.250  55.831  1.00  0.00     0.171 HD
BRANCH   4   7
HETATM    7  C   UNL     1       7.747  27.984  54.890  1.00  0.00     0.278 C 
BRANCH   7   8
HETATM    8  O   UNL     1       6.818  26.920  54.791  1.00  0.00    -0.339 OA
BRANCH   8   9
HETATM    9  C   UNL     1       7.194  25.778  54.138  1.00  0.00     0.102 A 
HETATM   10  C   UNL     1       7.455  24.626  54.903  1.00  0.00     0.101 A 
HETATM   11  C   UNL     1       7.883  23.453  54.261  1.00  0.00     0.039 A 
HETATM   12  C   UNL     1       8.039  23.403  52.878  1.00  0.00     0.003 A 
HETATM   13  C   UNL     1       7.779  24.537  52.119  1.00  0.00     0.003 A 
HETATM   14  C   UNL     1       7.368  25.718  52.745  1.00  0.00     0.039 A 
BRANCH  10  15
HETATM   15  O   UNL     1       7.367  24.468  56.263  1.00  0.00    -0.353 OA
HETATM   16  C   UNL     1       8.549  24.166  56.991  1.00  0.00     0.210 C 
ENDBRANCH  10  15
ENDBRANCH   8   9
ENDBRANCH   7   8
ENDBRANCH   4   7
ENDBRANCH   1   3
BRANCH   1  17
HETATM   17  N   UNL     1       7.744  30.047  58.900  1.00  0.00    -0.289 N 
HETATM   18  H   UNL     1       7.395  29.537  59.713  1.00  0.00     0.183 HD
BRANCH  17  19
HETATM   19  N   UNL     1       9.133  30.289  58.840  1.00  0.00    -0.153 NA
HETATM   20  C   UNL     1       9.604  31.566  58.959  1.00  0.00     0.317 C 
HETATM   21  N   UNL     1       8.995  32.488  59.740  1.00  0.00    -0.312 N 
HETATM   22  O   UNL     1      10.554  31.902  58.247  1.00  0.00    -0.252 OA
HETATM   23  H   UNL     1       9.290  33.426  59.489  1.00  0.00     0.170 HD
HETATM   24  H   UNL     1       9.601  29.882  58.035  1.00  0.00     0.157 HD
BRANCH  21  25
HETATM   25  C   UNL     1       8.213  32.403  60.904  1.00  0.00     0.035 A 
HETATM   26  C   UNL     1       8.696  31.987  62.144  1.00  0.00     0.029 A 
HETATM   27  C   UNL     1       7.846  31.941  63.253  1.00  0.00     0.002 A 
HETATM   28  C   UNL     1       6.512  32.330  63.133  1.00  0.00     0.000 A 
HETATM   29  C   UNL     1       6.029  32.777  61.908  1.00  0.00     0.002 A 
HETATM   30  C   UNL     1       6.879  32.822  60.801  1.00  0.00     0.029 A 
ENDBRANCH  21  25
ENDBRANCH  17  19
ENDBRANCH   1  17
TORSDOF 8
ENDMDL
MODEL 4
REMARK VINA RESULT:      -8.2      2.526      3.643
REMARK  8 active torsions:
REMARK  status: ('A' for Active; 'I' for Inactive)
REMARK    1  A    between atoms: O_2  and  C_3 
REMARK    2  A    between atoms: C_4  and  O_5 
REMARK    3  A    between atoms: O_5  and  C_6 
REMARK    4  A    between atoms: C_6  and  C_7 
REMARK       I    between atoms: C_7  and  N_8 
REMARK    5  A    between atoms: N_8  and  C_9 
REMARK    6  A    between atoms: C_9  and  N_10 
REMARK    7  A    between atoms: N_10  and  N_11 
REMARK       I    between atoms: N_11  and  C_12 
REMARK       I    between atoms: C_12  and  N_13 
REMARK    8  A    between atoms: N_13  and  C_14 
ROOT
HETATM    1  C   UNL     1       6.693  27.632  54.611  1.00  0.00     0.189 C 
HETATM    2  S   UNL     1       5.722  27.646  53.257  1.00  0.00    -0.039 SA
ENDROOT
BRANCH   1   3
HETATM    3  N   UNL     1       7.280  26.532  55.213  1.00  0.00    -0.301 N 
HETATM    4  C   UNL     1       7.044  25.992  56.482  1.00  0.00     0.248 C 
HETATM    5  O   UNL     1       6.778  26.647  57.484  1.00  0.00    -0.271 OA
HETATM    6  H   UNL     1       7.820  25.965  54.582  1.00  0.00     0.171 HD
BRANCH   4   7
HETATM    7  C   UNL     1       7.232  24.469  56.495  1.00  0.00     0.278 C 
BRANCH   7   8
HETATM    8  O   UNL     1       8.419  24.083  55.825  1.00  0.00    -0.339 OA
BRANCH   8   9
HETATM    9  C   UNL     1       8.390  22.974  55.025  1.00  0.00     0.102 A 
HETATM   10  C   UNL     1       7.812  23.086  53.747  1.00  0.00     0.101 A 
HETATM   11  C   UNL     1       7.732  21.952  52.923  1.00  0.00     0.039 A 
HETATM   12  C   UNL     1       8.230  20.720  53.340  1.00  0.00     0.003 A 
HETATM   13  C   UNL     1       8.805  20.606  54.600  1.00  0.00     0.003 A 
HETATM   14  C   UNL     1       8.876  21.722  55.439  1.00  0.00     0.039 A 
BRANCH  10  15
HETATM   15  O   UNL     1       7.265  24.195  53.153  1.00  0.00    -0.353 OA
HETATM   16  C   UNL     1       7.946  24.784  52.054  1.00  0.00     0.210 C 
ENDBRANCH  10  15
ENDBRANCH   8   9
ENDBRANCH   7   8
ENDBRANCH   4   7
ENDBRANCH   1   3
BRANCH   1  17
HETATM   17  N   UNL     1       7.009  28.843  55.191  1.00  0.00    -0.289 N 
HETATM   18  H   UNL     1       7.904  29.264  54.936  1.00  0.00     0.183 HD
BRANCH  17  19
HETATM   19  N   UNL     1       6.055  29.680  55.807  1.00  0.00    -0.153 NA
HETATM   20  C   UNL     1       5.954  29.706  57.170  1.00  0.00     0.317 C 
HETATM   21  N   UNL     1       7.030  29.539  57.974  1.00  0.00    -0.312 N 
HETATM   22  O   UNL     1       4.828  29.781  57.666  1.00  0.00    -0.252 OA
HETATM   23  H   UNL     1       6.742  29.297  58.916  1.00  0.00     0.170 HD
HETATM   24  H   UNL     1       5.110  29.583  55.448  1.00  0.00     0.157 HD
BRANCH  21  25
HETATM   25  C   UNL     1       8.401  29.807  57.821  1.00  0.00     0.035 A 
HETATM   26  C   UNL     1       9.292  28.972  57.147  1.00  0.00     0.029 A 
HETATM   27  C   UNL     1      10.640  29.323  57.037  1.00  0.00     0.002 A 
HETATM   28  C   UNL     1      11.103  30.520  57.583  1.00  0.00     0.000 A 
HETATM   29  C   UNL     1      10.215  31.374  58.228  1.00  0.00     0.002 A 
HETATM   30  C   UNL     1       8.868  31.023  58.338  1.00  0.00     0.029 A 
ENDBRANCH  21  25
ENDBRANCH  17  19
ENDBRANCH   1  17
TORSDOF 8
ENDMDL
MODEL 5
REMARK VINA RESULT:      -8.2      5.668      8.605
REMARK  8 active torsions:
REMARK  status: ('A' for Active; 'I' for Inactive)
REMARK    1  A    between atoms: O_2  and  C_3 
REMARK    2  A    between atoms: C_4  and  O_5 
REMARK    3  A    between atoms: O_5  and  C_6 
REMARK    4  A    between atoms: C_6  and  C_7 
REMARK       I    between atoms: C_7  and  N_8 
REMARK    5  A    between atoms: N_8  and  C_9 
REMARK    6  A    between atoms: C_9  and  N_10 
REMARK    7  A    between atoms: N_10  and  N_11 
REMARK       I    between atoms: N_11  and  C_12 
REMARK       I    between atoms: C_12  and  N_13 
REMARK    8  A    between atoms: N_13  and  C_14 
ROOT
HETATM    1  C   UNL     1       3.988  27.823  52.944  1.00  0.00     0.189 C 
HETATM    2  S   UNL     1       3.912  28.826  54.272  1.00  0.00    -0.039 SA
ENDROOT
BRANCH   1   3
HETATM    3  N   UNL     1       4.293  26.473  52.926  1.00  0.00    -0.301 N 
HETATM    4  C   UNL     1       5.499  25.847  52.591  1.00  0.00     0.248 C 
HETATM    5  O   UNL     1       6.273  26.235  51.724  1.00  0.00    -0.271 OA
HETATM    6  H   UNL     1       3.601  25.896  53.371  1.00  0.00     0.171 HD
BRANCH   4   7
HETATM    7  C   UNL     1       5.710  24.556  53.394  1.00  0.00     0.278 C 
BRANCH   7   8
HETATM    8  O   UNL     1       7.086  24.271  53.573  1.00  0.00    -0.339 OA
BRANCH   8   9
HETATM    9  C   UNL     1       7.454  22.996  53.905  1.00  0.00     0.102 A 
HETATM   10  C   UNL     1       7.590  22.672  55.267  1.00  0.00     0.101 A 
HETATM   11  C   UNL     1       8.008  21.383  55.633  1.00  0.00     0.039 A 
HETATM   12  C   UNL     1       8.275  20.411  54.672  1.00  0.00     0.003 A 
HETATM   13  C   UNL     1       8.140  20.725  53.326  1.00  0.00     0.003 A 
HETATM   14  C   UNL     1       7.741  22.010  52.945  1.00  0.00     0.039 A 
BRANCH  10  15
HETATM   15  O   UNL     1       7.381  23.476  56.359  1.00  0.00    -0.353 OA
HETATM   16  C   UNL     1       8.429  24.339  56.780  1.00  0.00     0.210 C 
ENDBRANCH  10  15
ENDBRANCH   8   9
ENDBRANCH   7   8
ENDBRANCH   4   7
ENDBRANCH   1   3
BRANCH   1  17
HETATM   17  N   UNL     1       3.667  28.358  51.714  1.00  0.00    -0.289 N 
HETATM   18  H   UNL     1       2.787  28.060  51.290  1.00  0.00     0.183 HD
BRANCH  17  19
HETATM   19  N   UNL     1       4.274  29.519  51.190  1.00  0.00    -0.153 NA
HETATM   20  C   UNL     1       5.315  29.403  50.311  1.00  0.00     0.317 C 
HETATM   21  N   UNL     1       5.399  28.383  49.426  1.00  0.00    -0.312 N 
HETATM   22  O   UNL     1       6.248  30.203  50.410  1.00  0.00    -0.252 OA
HETATM   23  H   UNL     1       6.344  28.290  49.071  1.00  0.00     0.170 HD
HETATM   24  H   UNL     1       4.558  30.201  51.887  1.00  0.00     0.157 HD
BRANCH  21  25
HETATM   25  C   UNL     1       4.441  27.579  48.784  1.00  0.00     0.035 A 
HETATM   26  C   UNL     1       4.283  26.213  49.016  1.00  0.00     0.029 A 
HETATM   27  C   UNL     1       3.295  25.494  48.336  1.00  0.00     0.002 A 
HETATM   28  C   UNL     1       2.448  26.139  47.436  1.00  0.00     0.000 A 
HETATM   29  C   UNL     1       2.578  27.506  47.223  1.00  0.00     0.002 A 
HETATM   30  C   UNL     1       3.564  28.225  47.902  1.00  0.00     0.029 A 
ENDBRANCH  21  25
ENDBRANCH  17  19
ENDBRANCH   1  17
TORSDOF 8
ENDMDL
MODEL 6
REMARK VINA RESULT:      -7.9      2.138      9.233
REMARK  8 active torsions:
REMARK  status: ('A' for Active; 'I' for Inactive)
REMARK    1  A    between atoms: O_2  and  C_3 
REMARK    2  A    between atoms: C_4  and  O_5 
REMARK    3  A    between atoms: O_5  and  C_6 
REMARK    4  A    between atoms: C_6  and  C_7 
REMARK       I    between atoms: C_7  and  N_8 
REMARK    5  A    between atoms: N_8  and  C_9 
REMARK    6  A    between atoms: C_9  and  N_10 
REMARK    7  A    between atoms: N_10  and  N_11 
REMARK       I    between atoms: N_11  and  C_12 
REMARK       I    between atoms: C_12  and  N_13 
REMARK    8  A    between atoms: N_13  and  C_14 
ROOT
HETATM    1  C   UNL     1       7.592  27.931  55.440  1.00  0.00     0.189 C 
HETATM    2  S   UNL     1       7.210  27.892  53.819  1.00  0.00    -0.039 SA
ENDROOT
BRANCH   1   3
HETATM    3  N   UNL     1       7.733  29.049  56.245  1.00  0.00    -0.301 N 
HETATM    4  C   UNL     1       8.253  29.142  57.540  1.00  0.00     0.248 C 
HETATM    5  O   UNL     1       8.123  28.289  58.411  1.00  0.00    -0.271 OA
HETATM    6  H   UNL     1       7.592  29.918  55.758  1.00  0.00     0.171 HD
BRANCH   4   7
HETATM    7  C   UNL     1       8.951  30.489  57.776  1.00  0.00     0.278 C 
BRANCH   7   8
HETATM    8  O   UNL     1       8.080  31.431  58.376  1.00  0.00    -0.339 OA
BRANCH   8   9
HETATM    9  C   UNL     1       8.177  31.651  59.722  1.00  0.00     0.102 A 
HETATM   10  C   UNL     1       7.011  31.997  60.429  1.00  0.00     0.101 A 
HETATM   11  C   UNL     1       7.091  32.268  61.804  1.00  0.00     0.039 A 
HETATM   12  C   UNL     1       8.302  32.186  62.487  1.00  0.00     0.003 A 
HETATM   13  C   UNL     1       9.456  31.842  61.793  1.00  0.00     0.003 A 
HETATM   14  C   UNL     1       9.395  31.585  60.420  1.00  0.00     0.039 A 
BRANCH  10  15
HETATM   15  O   UNL     1       5.733  32.134  59.949  1.00  0.00    -0.353 OA
HETATM   16  C   UNL     1       5.059  33.368  60.152  1.00  0.00     0.210 C 
ENDBRANCH  10  15
ENDBRANCH   8   9
ENDBRANCH   7   8
ENDBRANCH   4   7
ENDBRANCH   1   3
BRANCH   1  17
HETATM   17  N   UNL     1       7.743  26.727  56.096  1.00  0.00    -0.289 N 
HETATM   18  H   UNL     1       8.677  26.313  56.104  1.00  0.00     0.183 HD
BRANCH  17  19
HETATM   19  N   UNL     1       6.809  26.228  57.029  1.00  0.00    -0.153 NA
HETATM   20  C   UNL     1       5.670  25.615  56.587  1.00  0.00     0.317 C 
HETATM   21  N   UNL     1       5.642  24.883  55.449  1.00  0.00    -0.312 N 
HETATM   22  O   UNL     1       4.622  25.831  57.199  1.00  0.00    -0.252 OA
HETATM   23  H   UNL     1       4.689  24.754  55.125  1.00  0.00     0.170 HD
HETATM   24  H   UNL     1       6.522  26.894  57.740  1.00  0.00     0.157 HD
BRANCH  21  25
HETATM   25  C   UNL     1       6.611  24.136  54.757  1.00  0.00     0.035 A 
HETATM   26  C   UNL     1       6.919  24.312  53.408  1.00  0.00     0.029 A 
HETATM   27  C   UNL     1       7.906  23.528  52.804  1.00  0.00     0.002 A 
HETATM   28  C   UNL     1       8.603  22.576  53.547  1.00  0.00     0.000 A 
HETATM   29  C   UNL     1       8.324  22.416  54.900  1.00  0.00     0.002 A 
HETATM   30  C   UNL     1       7.338  23.199  55.504  1.00  0.00     0.029 A 
ENDBRANCH  21  25
ENDBRANCH  17  19
ENDBRANCH   1  17
TORSDOF 8
ENDMDL
MODEL 7
REMARK VINA RESULT:      -7.9      2.799      8.530
REMARK  8 active torsions:
REMARK  status: ('A' for Active; 'I' for Inactive)
REMARK    1  A    between atoms: O_2  and  C_3 
REMARK    2  A    between atoms: C_4  and  O_5 
REMARK    3  A    between atoms: O_5  and  C_6 
REMARK    4  A    between atoms: C_6  and  C_7 
REMARK       I    between atoms: C_7  and  N_8 
REMARK    5  A    between atoms: N_8  and  C_9 
REMARK    6  A    between atoms: C_9  and  N_10 
REMARK    7  A    between atoms: N_10  and  N_11 
REMARK       I    between atoms: N_11  and  C_12 
REMARK       I    between atoms: C_12  and  N_13 
REMARK    8  A    between atoms: N_13  and  C_14 
ROOT
HETATM    1  C   UNL     1       5.732  25.990  54.508  1.00  0.00     0.189 C 
HETATM    2  S   UNL     1       5.077  25.251  53.166  1.00  0.00    -0.039 SA
ENDROOT
BRANCH   1   3
HETATM    3  N   UNL     1       5.675  27.333  54.841  1.00  0.00    -0.301 N 
HETATM    4  C   UNL     1       5.670  27.927  56.108  1.00  0.00     0.248 C 
HETATM    5  O   UNL     1       5.129  27.454  57.102  1.00  0.00    -0.271 OA
HETATM    6  H   UNL     1       5.823  27.950  54.061  1.00  0.00     0.171 HD
BRANCH   4   7
HETATM    7  C   UNL     1       6.365  29.295  56.096  1.00  0.00     0.278 C 
BRANCH   7   8
HETATM    8  O   UNL     1       6.954  29.593  57.350  1.00  0.00    -0.339 OA
BRANCH   8   9
HETATM    9  C   UNL     1       8.303  29.807  57.407  1.00  0.00     0.102 A 
HETATM   10  C   UNL     1       8.774  30.912  58.140  1.00  0.00     0.101 A 
HETATM   11  C   UNL     1      10.152  31.178  58.181  1.00  0.00     0.039 A 
HETATM   12  C   UNL     1      11.065  30.359  57.520  1.00  0.00     0.003 A 
HETATM   13  C   UNL     1      10.605  29.266  56.798  1.00  0.00     0.003 A 
HETATM   14  C   UNL     1       9.234  28.997  56.735  1.00  0.00     0.039 A 
BRANCH  10  15
HETATM   15  O   UNL     1       8.049  31.834  58.852  1.00  0.00    -0.353 OA
HETATM   16  C   UNL     1       7.789  31.583  60.226  1.00  0.00     0.210 C 
ENDBRANCH  10  15
ENDBRANCH   8   9
ENDBRANCH   7   8
ENDBRANCH   4   7
ENDBRANCH   1   3
BRANCH   1  17
HETATM   17  N   UNL     1       6.368  25.193  55.437  1.00  0.00    -0.289 N 
HETATM   18  H   UNL     1       6.139  24.197  55.433  1.00  0.00     0.183 HD
BRANCH  17  19
HETATM   19  N   UNL     1       7.537  25.582  56.125  1.00  0.00    -0.153 NA
HETATM   20  C   UNL     1       8.182  24.685  56.929  1.00  0.00     0.317 C 
HETATM   21  N   UNL     1       8.215  23.361  56.648  1.00  0.00    -0.312 N 
HETATM   22  O   UNL     1       8.655  25.095  57.992  1.00  0.00    -0.252 OA
HETATM   23  H   UNL     1       8.468  22.824  57.471  1.00  0.00     0.170 HD
HETATM   24  H   UNL     1       7.448  26.440  56.661  1.00  0.00     0.157 HD
BRANCH  21  25
HETATM   25  C   UNL     1       8.157  22.626  55.452  1.00  0.00     0.035 A 
HETATM   26  C   UNL     1       8.399  23.164  54.189  1.00  0.00     0.029 A 
HETATM   27  C   UNL     1       8.327  22.353  53.052  1.00  0.00     0.002 A 
HETATM   28  C   UNL     1       8.032  20.996  53.173  1.00  0.00     0.000 A 
HETATM   29  C   UNL     1       7.821  20.444  54.432  1.00  0.00     0.002 A 
HETATM   30  C   UNL     1       7.892  21.254  55.567  1.00  0.00     0.029 A 
ENDBRANCH  21  25
ENDBRANCH  17  19
ENDBRANCH   1  17
TORSDOF 8
ENDMDL
MODEL 8
REMARK VINA RESULT:      -7.9      3.740      4.716
REMARK  8 active torsions:
REMARK  status: ('A' for Active; 'I' for Inactive)
REMARK    1  A    between atoms: O_2  and  C_3 
REMARK    2  A    between atoms: C_4  and  O_5 
REMARK    3  A    between atoms: O_5  and  C_6 
REMARK    4  A    between atoms: C_6  and  C_7 
REMARK       I    between atoms: C_7  and  N_8 
REMARK    5  A    between atoms: N_8  and  C_9 
REMARK    6  A    between atoms: C_9  and  N_10 
REMARK    7  A    between atoms: N_10  and  N_11 
REMARK       I    between atoms: N_11  and  C_12 
REMARK       I    between atoms: C_12  and  N_13 
REMARK    8  A    between atoms: N_13  and  C_14 
ROOT
HETATM    1  C   UNL     1       6.016  28.066  52.677  1.00  0.00     0.189 C 
HETATM    2  S   UNL     1       5.457  29.006  51.419  1.00  0.00    -0.039 SA
ENDROOT
BRANCH   1   3
HETATM    3  N   UNL     1       5.945  26.689  52.794  1.00  0.00    -0.301 N 
HETATM    4  C   UNL     1       6.984  25.762  52.936  1.00  0.00     0.248 C 
HETATM    5  O   UNL     1       8.085  25.858  52.406  1.00  0.00    -0.271 OA
HETATM    6  H   UNL     1       5.016  26.345  52.963  1.00  0.00     0.171 HD
BRANCH   4   7
HETATM    7  C   UNL     1       6.555  24.555  53.781  1.00  0.00     0.278 C 
BRANCH   7   8
HETATM    8  O   UNL     1       7.655  23.980  54.465  1.00  0.00    -0.339 OA
BRANCH   8   9
HETATM    9  C   UNL     1       7.932  22.655  54.266  1.00  0.00     0.102 A 
HETATM   10  C   UNL     1       8.184  21.849  55.392  1.00  0.00     0.101 A 
HETATM   11  C   UNL     1       8.512  20.496  55.213  1.00  0.00     0.039 A 
HETATM   12  C   UNL     1       8.578  19.931  53.941  1.00  0.00     0.003 A 
HETATM   13  C   UNL     1       8.327  20.723  52.828  1.00  0.00     0.003 A 
HETATM   14  C   UNL     1       8.015  22.076  52.989  1.00  0.00     0.039 A 
BRANCH  10  15
HETATM   15  O   UNL     1       8.174  22.207  56.716  1.00  0.00    -0.353 OA
HETATM   16  C   UNL     1       8.442  21.210  57.692  1.00  0.00     0.210 C 
ENDBRANCH  10  15
ENDBRANCH   8   9
ENDBRANCH   7   8
ENDBRANCH   4   7
ENDBRANCH   1   3
BRANCH   1  17
HETATM   17  N   UNL     1       6.673  28.700  53.711  1.00  0.00    -0.289 N 
HETATM   18  H   UNL     1       6.111  28.994  54.511  1.00  0.00     0.183 HD
BRANCH  17  19
HETATM   19  N   UNL     1       8.071  28.645  53.892  1.00  0.00    -0.153 NA
HETATM   20  C   UNL     1       8.607  28.888  55.125  1.00  0.00     0.317 C 
HETATM   21  N   UNL     1       7.967  28.546  56.268  1.00  0.00    -0.312 N 
HETATM   22  O   UNL     1       9.656  29.533  55.184  1.00  0.00    -0.252 OA
HETATM   23  H   UNL     1       8.350  29.048  57.061  1.00  0.00     0.170 HD
HETATM   24  H   UNL     1       8.607  29.198  53.229  1.00  0.00     0.157 HD
BRANCH  21  25
HETATM   25  C   UNL     1       7.043  27.538  56.593  1.00  0.00     0.035 A 
HETATM   26  C   UNL     1       5.662  27.665  56.447  1.00  0.00     0.029 A 
HETATM   27  C   UNL     1       4.817  26.604  56.788  1.00  0.00     0.002 A 
HETATM   28  C   UNL     1       5.349  25.404  57.258  1.00  0.00     0.000 A 
HETATM   29  C   UNL     1       6.727  25.257  57.375  1.00  0.00     0.002 A 
HETATM   30  C   UNL     1       7.570  26.317  57.035  1.00  0.00     0.029 A 
ENDBRANCH  21  25
ENDBRANCH  17  19
ENDBRANCH   1  17
TORSDOF 8
ENDMDL
MODEL 9
REMARK VINA RESULT:      -7.8      2.986      4.412
REMARK  8 active torsions:
REMARK  status: ('A' for Active; 'I' for Inactive)
REMARK    1  A    between atoms: O_2  and  C_3 
REMARK    2  A    between atoms: C_4  and  O_5 
REMARK    3  A    between atoms: O_5  and  C_6 
REMARK    4  A    between atoms: C_6  and  C_7 
REMARK       I    between atoms: C_7  and  N_8 
REMARK    5  A    between atoms: N_8  and  C_9 
REMARK    6  A    between atoms: C_9  and  N_10 
REMARK    7  A    between atoms: N_10  and  N_11 
REMARK       I    between atoms: N_11  and  C_12 
REMARK       I    between atoms: C_12  and  N_13 
REMARK    8  A    between atoms: N_13  and  C_14 
ROOT
HETATM    1  C   UNL     1       4.336  29.066  54.479  1.00  0.00     0.189 C 
HETATM    2  S   UNL     1       3.537  30.444  53.993  1.00  0.00    -0.039 SA
ENDROOT
BRANCH   1   3
HETATM    3  N   UNL     1       4.656  27.962  53.706  1.00  0.00    -0.301 N 
HETATM    4  C   UNL     1       5.827  27.699  52.987  1.00  0.00     0.248 C 
HETATM    5  O   UNL     1       6.498  28.546  52.408  1.00  0.00    -0.271 OA
HETATM    6  H   UNL     1       4.023  27.190  53.824  1.00  0.00     0.171 HD
BRANCH   4   7
HETATM    7  C   UNL     1       6.140  26.197  52.942  1.00  0.00     0.278 C 
BRANCH   7   8
HETATM    8  O   UNL     1       7.082  25.830  53.935  1.00  0.00    -0.339 OA
BRANCH   8   9
HETATM    9  C   UNL     1       7.529  24.538  53.969  1.00  0.00     0.102 A 
HETATM   10  C   UNL     1       8.167  24.082  55.137  1.00  0.00     0.101 A 
HETATM   11  C   UNL     1       8.673  22.774  55.183  1.00  0.00     0.039 A 
HETATM   12  C   UNL     1       8.542  21.910  54.097  1.00  0.00     0.003 A 
HETATM   13  C   UNL     1       7.910  22.355  52.943  1.00  0.00     0.003 A 
HETATM   14  C   UNL     1       7.416  23.662  52.877  1.00  0.00     0.039 A 
BRANCH  10  15
HETATM   15  O   UNL     1       8.400  24.766  56.304  1.00  0.00    -0.353 OA
HETATM   16  C   UNL     1       8.763  24.030  57.464  1.00  0.00     0.210 C 
ENDBRANCH  10  15
ENDBRANCH   8   9
ENDBRANCH   7   8
ENDBRANCH   4   7
ENDBRANCH   1   3
BRANCH   1  17
HETATM   17  N   UNL     1       4.789  29.009  55.781  1.00  0.00    -0.289 N 
HETATM   18  H   UNL     1       5.159  29.871  56.184  1.00  0.00     0.183 HD
BRANCH  17  19
HETATM   19  N   UNL     1       4.453  27.971  56.675  1.00  0.00    -0.153 NA
HETATM   20  C   UNL     1       5.283  26.893  56.807  1.00  0.00     0.317 C 
HETATM   21  N   UNL     1       6.627  27.002  56.690  1.00  0.00    -0.312 N 
HETATM   22  O   UNL     1       4.770  25.779  56.934  1.00  0.00    -0.252 OA
HETATM   23  H   UNL     1       7.050  26.095  56.524  1.00  0.00     0.170 HD
HETATM   24  H   UNL     1       3.513  27.601  56.562  1.00  0.00     0.157 HD
BRANCH  21  25
HETATM   25  C   UNL     1       7.536  28.047  56.928  1.00  0.00     0.035 A 
HETATM   26  C   UNL     1       7.699  28.677  58.161  1.00  0.00     0.029 A 
HETATM   27  C   UNL     1       8.636  29.704  58.309  1.00  0.00     0.002 A 
HETATM   28  C   UNL     1       9.430  30.093  57.230  1.00  0.00     0.000 A 
HETATM   29  C   UNL     1       9.297  29.448  56.006  1.00  0.00     0.002 A 
HETATM   30  C   UNL     1       8.360  28.422  55.859  1.00  0.00     0.029 A 
ENDBRANCH  21  25
ENDBRANCH  17  19
ENDBRANCH   1  17
TORSDOF 8
ENDMDL
MODEL 10
REMARK VINA RESULT:      -7.7      2.503      3.606
REMARK  8 active torsions:
REMARK  status: ('A' for Active; 'I' for Inactive)
REMARK    1  A    between atoms: O_2  and  C_3 
REMARK    2  A    between atoms: C_4  and  O_5 
REMARK    3  A    between atoms: O_5  and  C_6 
REMARK    4  A    between atoms: C_6  and  C_7 
REMARK       I    between atoms: C_7  and  N_8 
REMARK    5  A    between atoms: N_8  and  C_9 
REMARK    6  A    between atoms: C_9  and  N_10 
REMARK    7  A    between atoms: N_10  and  N_11 
REMARK       I    between atoms: N_11  and  C_12 
REMARK       I    between atoms: C_12  and  N_13 
REMARK    8  A    between atoms: N_13  and  C_14 
ROOT
HETATM    1  C   UNL     1       4.638  30.353  56.760  1.00  0.00     0.189 C 
HETATM    2  S   UNL     1       3.300  31.262  56.360  1.00  0.00    -0.039 SA
ENDROOT
BRANCH   1   3
HETATM    3  N   UNL     1       4.726  28.973  56.833  1.00  0.00    -0.301 N 
HETATM    4  C   UNL     1       4.796  28.039  55.794  1.00  0.00     0.248 C 
HETATM    5  O   UNL     1       4.217  28.142  54.718  1.00  0.00    -0.271 OA
HETATM    6  H   UNL     1       4.931  28.630  57.755  1.00  0.00     0.171 HD
BRANCH   4   7
HETATM    7  C   UNL     1       5.633  26.814  56.188  1.00  0.00     0.278 C 
BRANCH   7   8
HETATM    8  O   UNL     1       6.918  26.846  55.594  1.00  0.00    -0.339 OA
BRANCH   8   9
HETATM    9  C   UNL     1       7.237  25.892  54.667  1.00  0.00     0.102 A 
HETATM   10  C   UNL     1       7.621  24.618  55.124  1.00  0.00     0.101 A 
HETATM   11  C   UNL     1       7.993  23.634  54.195  1.00  0.00     0.039 A 
HETATM   12  C   UNL     1       7.974  23.890  52.825  1.00  0.00     0.003 A 
HETATM   13  C   UNL     1       7.593  25.146  52.370  1.00  0.00     0.003 A 
HETATM   14  C   UNL     1       7.236  26.141  53.284  1.00  0.00     0.039 A 
BRANCH  10  15
HETATM   15  O   UNL     1       7.709  24.166  56.417  1.00  0.00    -0.353 OA
HETATM   16  C   UNL     1       8.912  24.397  57.137  1.00  0.00     0.210 C 
ENDBRANCH  10  15
ENDBRANCH   8   9
ENDBRANCH   7   8
ENDBRANCH   4   7
ENDBRANCH   1   3
BRANCH   1  17
HETATM   17  N   UNL     1       5.821  31.020  57.002  1.00  0.00    -0.289 N 
HETATM   18  H   UNL     1       6.546  30.958  56.286  1.00  0.00     0.183 HD
BRANCH  17  19
HETATM   19  N   UNL     1       5.954  32.038  57.969  1.00  0.00    -0.153 NA
HETATM   20  C   UNL     1       6.469  31.742  59.200  1.00  0.00     0.317 C 
HETATM   21  N   UNL     1       7.422  30.796  59.372  1.00  0.00    -0.312 N 
HETATM   22  O   UNL     1       5.968  32.289  60.185  1.00  0.00    -0.252 OA
HETATM   23  H   UNL     1       7.472  30.507  60.343  1.00  0.00     0.170 HD
HETATM   24  H   UNL     1       5.112  32.583  58.131  1.00  0.00     0.157 HD
BRANCH  21  25
HETATM   25  C   UNL     1       8.441  30.290  58.548  1.00  0.00     0.035 A 
HETATM   26  C   UNL     1       8.369  29.072  57.872  1.00  0.00     0.029 A 
HETATM   27  C   UNL     1       9.430  28.651  57.065  1.00  0.00     0.002 A 
HETATM   28  C   UNL     1      10.560  29.453  56.912  1.00  0.00     0.000 A 
HETATM   29  C   UNL     1      10.626  30.683  57.556  1.00  0.00     0.002 A 
HETATM   30  C   UNL     1       9.567  31.104  58.363  1.00  0.00     0.029 A 
ENDBRANCH  21  25
ENDBRANCH  17  19
ENDBRANCH   1  17
TORSDOF 8
ENDMDL
