MODEL 1
REMARK VINA RESULT:      -8.8      0.000      0.000
REMARK  5 active torsions:
REMARK  status: ('A' for Active; 'I' for Inactive)
REMARK    1  A    between atoms: C_8  and  C_9 
REMARK    2  A    between atoms: C_9  and  N_10 
REMARK    3  A    between atoms: N_10  and  C_13 
REMARK    4  A    between atoms: C_13  and  C_14 
REMARK    5  A    between atoms: C_13  and  C_19 
ROOT
HETATM    1  N   UNL     1       7.909  26.775  57.042  1.00  0.00    -0.056 N 
HETATM    2  H   UNL     1       8.811  26.920  56.574  1.00  0.00     0.278 HD
HETATM    3  H   UNL     1       8.054  26.062  57.768  1.00  0.00     0.278 HD
ENDROOT
BRANCH   1   4
HETATM    4  C   UNL     1       7.512  28.048  57.697  1.00  0.00     0.275 C 
BRANCH   4   5
HETATM    5  C   UNL     1       8.629  29.041  57.666  1.00  0.00     0.004 A 
HETATM    6  C   UNL     1       8.546  30.225  58.383  1.00  0.00     0.113 A 
HETATM    7  C   UNL     1       9.551  31.163  58.375  1.00  0.00     0.105 A 
HETATM    8  O   UNL     1       7.505  30.589  59.187  1.00  0.00    -0.322 OA
HETATM    9  C   UNL     1      10.708  30.973  57.654  1.00  0.00     0.040 A 
HETATM   10  O   UNL     1       9.261  32.241  59.147  1.00  0.00    -0.323 OA
HETATM   11  C   UNL     1      10.831  29.790  56.921  1.00  0.00     0.003 A 
HETATM   12  C   UNL     1       9.801  28.830  56.925  1.00  0.00     0.012 A 
HETATM   13  C   UNL     1       7.937  31.913  59.603  1.00  0.00     0.352 A 
ENDBRANCH   4   5
ENDBRANCH   1   4
BRANCH   1  14
HETATM   14  C   UNL     1       6.942  26.251  56.024  1.00  0.00     0.292 C 
BRANCH  14  15
HETATM   15  C   UNL     1       6.718  27.186  54.870  1.00  0.00     0.190 A 
HETATM   16  N   UNL     1       7.707  27.638  54.090  1.00  0.00    -0.109 NA
HETATM   17  O   UNL     1       7.033  28.414  53.142  1.00  0.00    -0.205 OA
HETATM   18  C   UNL     1       5.708  28.309  53.429  1.00  0.00     0.288 A 
HETATM   19  N   UNL     1       5.447  27.537  54.460  1.00  0.00    -0.215 NA
ENDBRANCH  14  15
BRANCH  14  20
HETATM   20  C   UNL     1       7.450  24.952  55.417  1.00  0.00    -0.020 A 
HETATM   21  C   UNL     1       6.826  24.433  54.267  1.00  0.00     0.011 A 
HETATM   22  C   UNL     1       7.257  23.228  53.702  1.00  0.00     0.024 A 
HETATM   23  C   UNL     1       8.313  22.527  54.277  1.00  0.00     0.034 A 
HETATM   24 CL   UNL     1       8.839  21.047  53.582  1.00  0.00    -0.084 Cl
HETATM   25  C   UNL     1       8.945  23.023  55.415  1.00  0.00     0.024 A 
HETATM   26  C   UNL     1       8.517  24.227  55.984  1.00  0.00     0.011 A 
ENDBRANCH  14  20
ENDBRANCH   1  14
TORSDOF 5
ENDMDL
MODEL 2
REMARK VINA RESULT:      -8.6      3.224      4.725
REMARK  5 active torsions:
REMARK  status: ('A' for Active; 'I' for Inactive)
REMARK    1  A    between atoms: C_8  and  C_9 
REMARK    2  A    between atoms: C_9  and  N_10 
REMARK    3  A    between atoms: N_10  and  C_13 
REMARK    4  A    between atoms: C_13  and  C_14 
REMARK    5  A    between atoms: C_13  and  C_19 
ROOT
HETATM    1  N   UNL     1       7.656  24.280  56.500  1.00  0.00    -0.056 N 
HETATM    2  H   UNL     1       7.798  23.511  57.165  1.00  0.00     0.278 HD
HETATM    3  H   UNL     1       6.641  24.402  56.388  1.00  0.00     0.278 HD
ENDROOT
BRANCH   1   4
HETATM    4  C   UNL     1       8.222  25.520  57.092  1.00  0.00     0.275 C 
BRANCH   4   5
HETATM    5  C   UNL     1       7.206  26.617  57.118  1.00  0.00     0.004 A 
HETATM    6  C   UNL     1       7.567  27.908  57.469  1.00  0.00     0.113 A 
HETATM    7  C   UNL     1       6.660  28.941  57.509  1.00  0.00     0.105 A 
HETATM    8  O   UNL     1       8.831  28.318  57.780  1.00  0.00    -0.322 OA
HETATM    9  C   UNL     1       5.334  28.748  57.193  1.00  0.00     0.040 A 
HETATM   10  O   UNL     1       7.229  30.118  57.873  1.00  0.00    -0.323 OA
HETATM   11  C   UNL     1       4.932  27.460  56.831  1.00  0.00     0.003 A 
HETATM   12  C   UNL     1       5.859  26.400  56.794  1.00  0.00     0.012 A 
HETATM   13  C   UNL     1       8.587  29.712  58.116  1.00  0.00     0.352 A 
ENDBRANCH   4   5
ENDBRANCH   1   4
BRANCH   1  14
HETATM   14  C   UNL     1       8.250  23.869  55.187  1.00  0.00     0.292 C 
BRANCH  14  15
HETATM   15  C   UNL     1       8.352  22.381  55.013  1.00  0.00     0.190 A 
HETATM   16  N   UNL     1       9.168  21.801  54.125  1.00  0.00    -0.109 NA
HETATM   17  O   UNL     1       8.968  20.436  54.356  1.00  0.00    -0.205 OA
HETATM   18  C   UNL     1       8.087  20.344  55.387  1.00  0.00     0.288 A 
HETATM   19  N   UNL     1       7.699  21.508  55.860  1.00  0.00    -0.215 NA
ENDBRANCH  14  15
BRANCH  14  20
HETATM   20  C   UNL     1       7.396  24.368  54.032  1.00  0.00    -0.020 A 
HETATM   21  C   UNL     1       8.021  24.862  52.871  1.00  0.00     0.011 A 
HETATM   22  C   UNL     1       7.260  25.350  51.803  1.00  0.00     0.024 A 
HETATM   23  C   UNL     1       5.871  25.353  51.880  1.00  0.00     0.034 A 
HETATM   24 CL   UNL     1       4.940  25.954  50.568  1.00  0.00    -0.084 Cl
HETATM   25  C   UNL     1       5.232  24.867  53.019  1.00  0.00     0.024 A 
HETATM   26  C   UNL     1       5.988  24.380  54.089  1.00  0.00     0.011 A 
ENDBRANCH  14  20
ENDBRANCH   1  14
TORSDOF 5
ENDMDL
MODEL 3
REMARK VINA RESULT:      -8.5      3.292      7.057
REMARK  5 active torsions:
REMARK  status: ('A' for Active; 'I' for Inactive)
REMARK    1  A    between atoms: C_8  and  C_9 
REMARK    2  A    between atoms: C_9  and  N_10 
REMARK    3  A    between atoms: N_10  and  C_13 
REMARK    4  A    between atoms: C_13  and  C_14 
REMARK    5  A    between atoms: C_13  and  C_19 
ROOT
HETATM    1  N   UNL     1       7.964  25.470  56.458  1.00  0.00    -0.056 N 
HETATM    2  H   UNL     1       8.687  25.629  57.170  1.00  0.00     0.278 HD
HETATM    3  H   UNL     1       8.416  25.560  55.539  1.00  0.00     0.278 HD
ENDROOT
BRANCH   1   4
HETATM    4  C   UNL     1       7.460  24.080  56.607  1.00  0.00     0.275 C 
BRANCH   4   5
HETATM    5  C   UNL     1       7.637  23.304  55.341  1.00  0.00     0.004 A 
HETATM    6  C   UNL     1       7.972  21.960  55.375  1.00  0.00     0.113 A 
HETATM    7  C   UNL     1       8.147  21.216  54.232  1.00  0.00     0.105 A 
HETATM    8  O   UNL     1       8.138  21.216  56.506  1.00  0.00    -0.322 OA
HETATM    9  C   UNL     1       7.990  21.769  52.981  1.00  0.00     0.040 A 
HETATM   10  O   UNL     1       8.469  19.924  54.497  1.00  0.00    -0.323 OA
HETATM   11  C   UNL     1       7.648  23.121  52.906  1.00  0.00     0.003 A 
HETATM   12  C   UNL     1       7.473  23.886  54.075  1.00  0.00     0.012 A 
HETATM   13  C   UNL     1       8.535  19.939  55.934  1.00  0.00     0.352 A 
ENDBRANCH   4   5
ENDBRANCH   1   4
BRANCH   1  14
HETATM   14  C   UNL     1       6.930  26.544  56.604  1.00  0.00     0.292 C 
BRANCH  14  15
HETATM   15  C   UNL     1       7.426  27.762  57.329  1.00  0.00     0.190 A 
HETATM   16  N   UNL     1       8.716  27.965  57.623  1.00  0.00    -0.109 NA
HETATM   17  O   UNL     1       8.707  29.223  58.234  1.00  0.00    -0.205 OA
HETATM   18  C   UNL     1       7.420  29.659  58.201  1.00  0.00     0.288 A 
HETATM   19  N   UNL     1       6.590  28.820  57.623  1.00  0.00    -0.215 NA
ENDBRANCH  14  15
BRANCH  14  20
HETATM   20  C   UNL     1       6.463  27.030  55.241  1.00  0.00    -0.020 A 
HETATM   21  C   UNL     1       5.117  26.852  54.865  1.00  0.00     0.011 A 
HETATM   22  C   UNL     1       4.667  27.267  53.607  1.00  0.00     0.024 A 
HETATM   23  C   UNL     1       5.550  27.862  52.711  1.00  0.00     0.034 A 
HETATM   24 CL   UNL     1       4.994  28.369  51.167  1.00  0.00    -0.084 Cl
HETATM   25  C   UNL     1       6.885  28.048  53.063  1.00  0.00     0.024 A 
HETATM   26  C   UNL     1       7.341  27.634  54.319  1.00  0.00     0.011 A 
ENDBRANCH  14  20
ENDBRANCH   1  14
TORSDOF 5
ENDMDL
MODEL 4
REMARK VINA RESULT:      -8.4      3.728      6.891
REMARK  5 active torsions:
REMARK  status: ('A' for Active; 'I' for Inactive)
REMARK    1  A    between atoms: C_8  and  C_9 
REMARK    2  A    between atoms: C_9  and  N_10 
REMARK    3  A    between atoms: N_10  and  C_13 
REMARK    4  A    between atoms: C_13  and  C_14 
REMARK    5  A    between atoms: C_13  and  C_19 
ROOT
HETATM    1  N   UNL     1       7.098  25.273  54.089  1.00  0.00    -0.056 N 
HETATM    2  H   UNL     1       6.126  24.983  53.932  1.00  0.00     0.278 HD
HETATM    3  H   UNL     1       7.316  25.085  55.076  1.00  0.00     0.278 HD
ENDROOT
BRANCH   1   4
HETATM    4  C   UNL     1       7.980  24.434  53.238  1.00  0.00     0.275 C 
BRANCH   4   5
HETATM    5  C   UNL     1       8.010  23.020  53.722  1.00  0.00     0.004 A 
HETATM    6  C   UNL     1       8.158  22.735  55.071  1.00  0.00     0.113 A 
HETATM    7  C   UNL     1       8.195  21.448  55.551  1.00  0.00     0.105 A 
HETATM    8  O   UNL     1       8.254  23.662  56.067  1.00  0.00    -0.322 OA
HETATM    9  C   UNL     1       8.078  20.362  54.713  1.00  0.00     0.040 A 
HETATM   10  O   UNL     1       8.343  21.401  56.900  1.00  0.00    -0.323 OA
HETATM   11  C   UNL     1       7.923  20.608  53.347  1.00  0.00     0.003 A 
HETATM   12  C   UNL     1       7.890  21.926  52.853  1.00  0.00     0.012 A 
HETATM   13  C   UNL     1       8.454  22.799  57.220  1.00  0.00     0.352 A 
ENDBRANCH   4   5
ENDBRANCH   1   4
BRANCH   1  14
HETATM   14  C   UNL     1       7.184  26.749  53.839  1.00  0.00     0.292 C 
BRANCH  14  15
HETATM   15  C   UNL     1       5.911  27.343  53.307  1.00  0.00     0.190 A 
HETATM   16  N   UNL     1       5.758  27.728  52.035  1.00  0.00    -0.109 NA
HETATM   17  O   UNL     1       4.427  28.155  51.991  1.00  0.00    -0.205 OA
HETATM   18  C   UNL     1       3.912  27.940  53.231  1.00  0.00     0.288 A 
HETATM   19  N   UNL     1       4.766  27.406  54.076  1.00  0.00    -0.215 NA
ENDBRANCH  14  15
BRANCH  14  20
HETATM   20  C   UNL     1       7.487  27.495  55.129  1.00  0.00    -0.020 A 
HETATM   21  C   UNL     1       7.191  26.891  56.366  1.00  0.00     0.011 A 
HETATM   22  C   UNL     1       7.437  27.565  57.567  1.00  0.00     0.024 A 
HETATM   23  C   UNL     1       7.978  28.848  57.549  1.00  0.00     0.034 A 
HETATM   24 CL   UNL     1       8.277  29.673  59.025  1.00  0.00    -0.084 Cl
HETATM   25  C   UNL     1       8.279  29.463  56.336  1.00  0.00     0.024 A 
HETATM   26  C   UNL     1       8.034  28.794  55.133  1.00  0.00     0.011 A 
ENDBRANCH  14  20
ENDBRANCH   1  14
TORSDOF 5
ENDMDL
MODEL 5
REMARK VINA RESULT:      -8.3      9.579     12.577
REMARK  5 active torsions:
REMARK  status: ('A' for Active; 'I' for Inactive)
REMARK    1  A    between atoms: C_8  and  C_9 
REMARK    2  A    between atoms: C_9  and  N_10 
REMARK    3  A    between atoms: N_10  and  C_13 
REMARK    4  A    between atoms: C_13  and  C_14 
REMARK    5  A    between atoms: C_13  and  C_19 
ROOT
HETATM    1  N   UNL     1       4.914  34.553  66.374  1.00  0.00    -0.056 N 
HETATM    2  H   UNL     1       4.440  35.459  66.280  1.00  0.00     0.278 HD
HETATM    3  H   UNL     1       5.923  34.726  66.283  1.00  0.00     0.278 HD
ENDROOT
BRANCH   1   4
HETATM    4  C   UNL     1       4.642  34.022  67.735  1.00  0.00     0.275 C 
BRANCH   4   5
HETATM    5  C   UNL     1       5.848  34.139  68.610  1.00  0.00     0.004 A 
HETATM    6  C   UNL     1       5.965  33.376  69.762  1.00  0.00     0.113 A 
HETATM    7  C   UNL     1       7.057  33.461  70.593  1.00  0.00     0.105 A 
HETATM    8  O   UNL     1       5.058  32.452  70.192  1.00  0.00    -0.322 OA
HETATM    9  C   UNL     1       8.106  34.309  70.320  1.00  0.00     0.040 A 
HETATM   10  O   UNL     1       6.964  32.624  71.658  1.00  0.00    -0.323 OA
HETATM   11  C   UNL     1       8.027  35.092  69.166  1.00  0.00     0.003 A 
HETATM   12  C   UNL     1       6.908  35.010  68.316  1.00  0.00     0.012 A 
HETATM   13  C   UNL     1       5.668  32.039  71.445  1.00  0.00     0.352 A 
ENDBRANCH   4   5
ENDBRANCH   1   4
BRANCH   1  14
HETATM   14  C   UNL     1       4.461  33.678  65.244  1.00  0.00     0.292 C 
BRANCH  14  15
HETATM   15  C   UNL     1       3.570  34.381  64.260  1.00  0.00     0.190 A 
HETATM   16  N   UNL     1       3.851  35.583  63.745  1.00  0.00    -0.109 NA
HETATM   17  O   UNL     1       2.793  35.803  62.859  1.00  0.00    -0.205 OA
HETATM   18  C   UNL     1       2.013  34.690  62.904  1.00  0.00     0.288 A 
HETATM   19  N   UNL     1       2.460  33.762  63.721  1.00  0.00    -0.215 NA
ENDBRANCH  14  15
BRANCH  14  20
HETATM   20  C   UNL     1       5.653  33.174  64.444  1.00  0.00    -0.020 A 
HETATM   21  C   UNL     1       5.442  32.286  63.372  1.00  0.00     0.011 A 
HETATM   22  C   UNL     1       6.522  31.787  62.636  1.00  0.00     0.024 A 
HETATM   23  C   UNL     1       7.821  32.167  62.959  1.00  0.00     0.034 A 
HETATM   24 CL   UNL     1       9.145  31.552  62.053  1.00  0.00    -0.084 Cl
HETATM   25  C   UNL     1       8.052  33.045  64.014  1.00  0.00     0.024 A 
HETATM   26  C   UNL     1       6.976  33.546  64.755  1.00  0.00     0.011 A 
ENDBRANCH  14  20
ENDBRANCH   1  14
TORSDOF 5
ENDMDL
MODEL 6
REMARK VINA RESULT:      -8.3      1.528      2.472
REMARK  5 active torsions:
REMARK  status: ('A' for Active; 'I' for Inactive)
REMARK    1  A    between atoms: C_8  and  C_9 
REMARK    2  A    between atoms: C_9  and  N_10 
REMARK    3  A    between atoms: N_10  and  C_13 
REMARK    4  A    between atoms: C_13  and  C_14 
REMARK    5  A    between atoms: C_13  and  C_19 
ROOT
HETATM    1  N   UNL     1       7.685  26.639  55.949  1.00  0.00    -0.056 N 
HETATM    2  H   UNL     1       7.891  27.526  55.476  1.00  0.00     0.278 HD
HETATM    3  H   UNL     1       8.536  26.063  55.900  1.00  0.00     0.278 HD
ENDROOT
BRANCH   1   4
HETATM    4  C   UNL     1       7.388  26.929  57.376  1.00  0.00     0.275 C 
BRANCH   4   5
HETATM    5  C   UNL     1       6.839  28.309  57.543  1.00  0.00     0.004 A 
HETATM    6  C   UNL     1       7.655  29.351  57.957  1.00  0.00     0.113 A 
HETATM    7  C   UNL     1       7.183  30.632  58.125  1.00  0.00     0.105 A 
HETATM    8  O   UNL     1       8.991  29.254  58.213  1.00  0.00    -0.322 OA
HETATM    9  C   UNL     1       5.867  30.953  57.883  1.00  0.00     0.040 A 
HETATM   10  O   UNL     1       8.152  31.492  58.532  1.00  0.00    -0.323 OA
HETATM   11  C   UNL     1       5.015  29.931  57.461  1.00  0.00     0.003 A 
HETATM   12  C   UNL     1       5.494  28.618  57.292  1.00  0.00     0.012 A 
HETATM   13  C   UNL     1       9.279  30.608  58.658  1.00  0.00     0.352 A 
ENDBRANCH   4   5
ENDBRANCH   1   4
BRANCH   1  14
HETATM   14  C   UNL     1       6.586  25.957  55.193  1.00  0.00     0.292 C 
BRANCH  14  15
HETATM   15  C   UNL     1       6.069  26.757  54.032  1.00  0.00     0.190 A 
HETATM   16  N   UNL     1       4.884  26.530  53.454  1.00  0.00    -0.109 NA
HETATM   17  O   UNL     1       4.810  27.529  52.479  1.00  0.00    -0.205 OA
HETATM   18  C   UNL     1       5.939  28.275  52.605  1.00  0.00     0.288 A 
HETATM   19  N   UNL     1       6.738  27.872  53.568  1.00  0.00    -0.215 NA
ENDBRANCH  14  15
BRANCH  14  20
HETATM   20  C   UNL     1       7.071  24.638  54.611  1.00  0.00    -0.020 A 
HETATM   21  C   UNL     1       7.121  23.495  55.431  1.00  0.00     0.011 A 
HETATM   22  C   UNL     1       7.587  22.275  54.929  1.00  0.00     0.024 A 
HETATM   23  C   UNL     1       8.008  22.182  53.606  1.00  0.00     0.034 A 
HETATM   24 CL   UNL     1       8.581  20.683  52.992  1.00  0.00    -0.084 Cl
HETATM   25  C   UNL     1       7.966  23.300  52.777  1.00  0.00     0.024 A 
HETATM   26  C   UNL     1       7.503  24.522  53.275  1.00  0.00     0.011 A 
ENDBRANCH  14  20
ENDBRANCH   1  14
TORSDOF 5
ENDMDL
MODEL 7
REMARK VINA RESULT:      -8.2      3.809      7.661
REMARK  5 active torsions:
REMARK  status: ('A' for Active; 'I' for Inactive)
REMARK    1  A    between atoms: C_8  and  C_9 
REMARK    2  A    between atoms: C_9  and  N_10 
REMARK    3  A    between atoms: N_10  and  C_13 
REMARK    4  A    between atoms: C_13  and  C_14 
REMARK    5  A    between atoms: C_13  and  C_19 
ROOT
HETATM    1  N   UNL     1       5.347  27.082  52.353  1.00  0.00    -0.056 N 
HETATM    2  H   UNL     1       5.197  28.053  52.055  1.00  0.00     0.278 HD
HETATM    3  H   UNL     1       4.711  26.904  53.141  1.00  0.00     0.278 HD
ENDROOT
BRANCH   1   4
HETATM    4  C   UNL     1       4.975  26.185  51.229  1.00  0.00     0.275 C 
BRANCH   4   5
HETATM    5  C   UNL     1       4.845  26.949  49.950  1.00  0.00     0.004 A 
HETATM    6  C   UNL     1       4.162  26.412  48.870  1.00  0.00     0.113 A 
HETATM    7  C   UNL     1       4.027  27.083  47.678  1.00  0.00     0.105 A 
HETATM    8  O   UNL     1       3.530  25.203  48.858  1.00  0.00    -0.322 OA
HETATM    9  C   UNL     1       4.561  28.338  47.492  1.00  0.00     0.040 A 
HETATM   10  O   UNL     1       3.319  26.374  46.760  1.00  0.00    -0.323 OA
HETATM   11  C   UNL     1       5.254  28.914  48.559  1.00  0.00     0.003 A 
HETATM   12  C   UNL     1       5.397  28.227  49.779  1.00  0.00     0.012 A 
HETATM   13  C   UNL     1       3.066  25.155  47.480  1.00  0.00     0.352 A 
ENDBRANCH   4   5
ENDBRANCH   1   4
BRANCH   1  14
HETATM   14  C   UNL     1       6.763  26.959  52.828  1.00  0.00     0.292 C 
BRANCH  14  15
HETATM   15  C   UNL     1       7.078  27.829  54.011  1.00  0.00     0.190 A 
HETATM   16  N   UNL     1       8.311  28.268  54.291  1.00  0.00    -0.109 NA
HETATM   17  O   UNL     1       8.113  29.067  55.421  1.00  0.00    -0.205 OA
HETATM   18  C   UNL     1       6.777  29.058  55.672  1.00  0.00     0.288 A 
HETATM   19  N   UNL     1       6.081  28.343  54.815  1.00  0.00    -0.215 NA
ENDBRANCH  14  15
BRANCH  14  20
HETATM   20  C   UNL     1       7.061  25.534  53.265  1.00  0.00    -0.020 A 
HETATM   21  C   UNL     1       7.812  24.692  52.422  1.00  0.00     0.011 A 
HETATM   22  C   UNL     1       8.080  23.369  52.788  1.00  0.00     0.024 A 
HETATM   23  C   UNL     1       7.603  22.870  53.997  1.00  0.00     0.034 A 
HETATM   24 CL   UNL     1       7.933  21.244  54.443  1.00  0.00    -0.084 Cl
HETATM   25  C   UNL     1       6.860  23.685  54.846  1.00  0.00     0.024 A 
HETATM   26  C   UNL     1       6.588  25.008  54.484  1.00  0.00     0.011 A 
ENDBRANCH  14  20
ENDBRANCH   1  14
TORSDOF 5
ENDMDL
MODEL 8
REMARK VINA RESULT:      -8.2      3.660      7.261
REMARK  5 active torsions:
REMARK  status: ('A' for Active; 'I' for Inactive)
REMARK    1  A    between atoms: C_8  and  C_9 
REMARK    2  A    between atoms: C_9  and  N_10 
REMARK    3  A    between atoms: N_10  and  C_13 
REMARK    4  A    between atoms: C_13  and  C_14 
REMARK    5  A    between atoms: C_13  and  C_19 
ROOT
HETATM    1  N   UNL     1       6.749  25.461  54.308  1.00  0.00    -0.056 N 
HETATM    2  H   UNL     1       5.802  25.247  53.973  1.00  0.00     0.278 HD
HETATM    3  H   UNL     1       6.754  25.310  55.324  1.00  0.00     0.278 HD
ENDROOT
BRANCH   1   4
HETATM    4  C   UNL     1       7.694  24.502  53.679  1.00  0.00     0.275 C 
BRANCH   4   5
HETATM    5  C   UNL     1       7.994  23.361  54.597  1.00  0.00     0.004 A 
HETATM    6  C   UNL     1       8.169  22.079  54.100  1.00  0.00     0.113 A 
HETATM    7  C   UNL     1       8.442  21.005  54.914  1.00  0.00     0.105 A 
HETATM    8  O   UNL     1       8.126  21.730  52.781  1.00  0.00    -0.322 OA
HETATM    9  C   UNL     1       8.564  21.147  56.278  1.00  0.00     0.040 A 
HETATM   10  O   UNL     1       8.578  19.847  54.218  1.00  0.00    -0.323 OA
HETATM   11  C   UNL     1       8.398  22.425  56.816  1.00  0.00     0.003 A 
HETATM   12  C   UNL     1       8.115  23.525  55.985  1.00  0.00     0.012 A 
HETATM   13  C   UNL     1       8.306  20.291  52.877  1.00  0.00     0.352 A 
ENDBRANCH   4   5
ENDBRANCH   1   4
BRANCH   1  14
HETATM   14  C   UNL     1       7.022  26.907  54.023  1.00  0.00     0.292 C 
BRANCH  14  15
HETATM   15  C   UNL     1       5.848  27.635  53.433  1.00  0.00     0.190 A 
HETATM   16  N   UNL     1       5.961  28.525  52.440  1.00  0.00    -0.109 NA
HETATM   17  O   UNL     1       4.635  28.891  52.191  1.00  0.00    -0.205 OA
HETATM   18  C   UNL     1       3.865  28.148  53.030  1.00  0.00     0.288 A 
HETATM   19  N   UNL     1       4.551  27.329  53.795  1.00  0.00    -0.215 NA
ENDBRANCH  14  15
BRANCH  14  20
HETATM   20  C   UNL     1       7.374  27.649  55.303  1.00  0.00    -0.020 A 
HETATM   21  C   UNL     1       8.219  28.774  55.242  1.00  0.00     0.011 A 
HETATM   22  C   UNL     1       8.579  29.461  56.406  1.00  0.00     0.024 A 
HETATM   23  C   UNL     1       8.104  29.034  57.643  1.00  0.00     0.034 A 
HETATM   24 CL   UNL     1       8.550  29.879  59.070  1.00  0.00    -0.084 Cl
HETATM   25  C   UNL     1       7.267  27.925  57.726  1.00  0.00     0.024 A 
HETATM   26  C   UNL     1       6.904  27.234  56.565  1.00  0.00     0.011 A 
ENDBRANCH  14  20
ENDBRANCH   1  14
TORSDOF 5
ENDMDL
MODEL 9
REMARK VINA RESULT:      -8.1      3.616      7.173
REMARK  5 active torsions:
REMARK  status: ('A' for Active; 'I' for Inactive)
REMARK    1  A    between atoms: C_8  and  C_9 
REMARK    2  A    between atoms: C_9  and  N_10 
REMARK    3  A    between atoms: N_10  and  C_13 
REMARK    4  A    between atoms: C_13  and  C_14 
REMARK    5  A    between atoms: C_13  and  C_19 
ROOT
HETATM    1  N   UNL     1       5.875  24.830  54.273  1.00  0.00    -0.056 N 
HETATM    2  H   UNL     1       5.672  24.401  53.363  1.00  0.00     0.278 HD
HETATM    3  H   UNL     1       5.268  24.373  54.967  1.00  0.00     0.278 HD
ENDROOT
BRANCH   1   4
HETATM    4  C   UNL     1       7.291  24.544  54.618  1.00  0.00     0.275 C 
BRANCH   4   5
HETATM    5  C   UNL     1       7.642  23.121  54.325  1.00  0.00     0.004 A 
HETATM    6  C   UNL     1       7.961  22.243  55.349  1.00  0.00     0.113 A 
HETATM    7  C   UNL     1       8.292  20.929  55.116  1.00  0.00     0.105 A 
HETATM    8  O   UNL     1       7.958  22.548  56.679  1.00  0.00    -0.322 OA
HETATM    9  C   UNL     1       8.318  20.407  53.843  1.00  0.00     0.040 A 
HETATM   10  O   UNL     1       8.564  20.251  56.261  1.00  0.00    -0.323 OA
HETATM   11  C   UNL     1       7.999  21.260  52.784  1.00  0.00     0.003 A 
HETATM   12  C   UNL     1       7.664  22.607  53.019  1.00  0.00     0.012 A 
HETATM   13  C   UNL     1       8.425  21.292  57.244  1.00  0.00     0.352 A 
ENDBRANCH   4   5
ENDBRANCH   1   4
BRANCH   1  14
HETATM   14  C   UNL     1       5.518  26.283  54.188  1.00  0.00     0.292 C 
BRANCH  14  15
HETATM   15  C   UNL     1       6.647  27.201  54.559  1.00  0.00     0.190 A 
HETATM   16  N   UNL     1       7.576  27.610  53.687  1.00  0.00    -0.109 NA
HETATM   17  O   UNL     1       8.369  28.473  54.451  1.00  0.00    -0.205 OA
HETATM   18  C   UNL     1       7.804  28.523  55.687  1.00  0.00     0.288 A 
HETATM   19  N   UNL     1       6.720  27.790  55.805  1.00  0.00    -0.215 NA
ENDBRANCH  14  15
BRANCH  14  20
HETATM   20  C   UNL     1       5.123  26.657  52.768  1.00  0.00    -0.020 A 
HETATM   21  C   UNL     1       5.354  25.744  51.721  1.00  0.00     0.011 A 
HETATM   22  C   UNL     1       5.024  26.072  50.402  1.00  0.00     0.024 A 
HETATM   23  C   UNL     1       4.462  27.312  50.111  1.00  0.00     0.034 A 
HETATM   24 CL   UNL     1       4.059  27.712  48.490  1.00  0.00    -0.084 Cl
HETATM   25  C   UNL     1       4.224  28.229  51.132  1.00  0.00     0.024 A 
HETATM   26  C   UNL     1       4.553  27.906  52.452  1.00  0.00     0.011 A 
ENDBRANCH  14  20
ENDBRANCH   1  14
TORSDOF 5
ENDMDL
MODEL 10
REMARK VINA RESULT:      -8.1      2.529      3.988
REMARK  5 active torsions:
REMARK  status: ('A' for Active; 'I' for Inactive)
REMARK    1  A    between atoms: C_8  and  C_9 
REMARK    2  A    between atoms: C_9  and  N_10 
REMARK    3  A    between atoms: N_10  and  C_13 
REMARK    4  A    between atoms: C_13  and  C_14 
REMARK    5  A    between atoms: C_13  and  C_19 
ROOT
HETATM    1  N   UNL     1       5.203  28.672  53.972  1.00  0.00    -0.056 N 
HETATM    2  H   UNL     1       4.858  29.615  53.759  1.00  0.00     0.278 HD
HETATM    3  H   UNL     1       6.219  28.743  54.111  1.00  0.00     0.278 HD
ENDROOT
BRANCH   1   4
HETATM    4  C   UNL     1       4.579  28.222  55.243  1.00  0.00     0.275 C 
BRANCH   4   5
HETATM    5  C   UNL     1       5.546  27.439  56.071  1.00  0.00     0.004 A 
HETATM    6  C   UNL     1       6.732  28.010  56.506  1.00  0.00     0.113 A 
HETATM    7  C   UNL     1       7.647  27.319  57.265  1.00  0.00     0.105 A 
HETATM    8  O   UNL     1       7.121  29.297  56.272  1.00  0.00    -0.322 OA
HETATM    9  C   UNL     1       7.430  26.013  57.644  1.00  0.00     0.040 A 
HETATM   10  O   UNL     1       8.733  28.070  57.581  1.00  0.00    -0.323 OA
HETATM   11  C   UNL     1       6.244  25.404  57.228  1.00  0.00     0.003 A 
HETATM   12  C   UNL     1       5.308  26.109  56.447  1.00  0.00     0.012 A 
HETATM   13  C   UNL     1       8.436  29.298  56.893  1.00  0.00     0.352 A 
ENDBRANCH   4   5
ENDBRANCH   1   4
BRANCH   1  14
HETATM   14  C   UNL     1       4.929  27.801  52.783  1.00  0.00     0.292 C 
BRANCH  14  15
HETATM   15  C   UNL     1       5.264  28.452  51.472  1.00  0.00     0.190 A 
HETATM   16  N   UNL     1       5.888  29.632  51.378  1.00  0.00    -0.109 NA
HETATM   17  O   UNL     1       6.032  29.805  49.997  1.00  0.00    -0.205 OA
HETATM   18  C   UNL     1       5.519  28.690  49.413  1.00  0.00     0.288 A 
HETATM   19  N   UNL     1       5.064  27.803  50.270  1.00  0.00    -0.215 NA
ENDBRANCH  14  15
BRANCH  14  20
HETATM   20  C   UNL     1       5.762  26.530  52.844  1.00  0.00    -0.020 A 
HETATM   21  C   UNL     1       5.118  25.278  52.834  1.00  0.00     0.011 A 
HETATM   22  C   UNL     1       5.858  24.094  52.915  1.00  0.00     0.024 A 
HETATM   23  C   UNL     1       7.246  24.143  53.006  1.00  0.00     0.034 A 
HETATM   24 CL   UNL     1       8.152  22.687  53.105  1.00  0.00    -0.084 Cl
HETATM   25  C   UNL     1       7.903  25.371  53.016  1.00  0.00     0.024 A 
HETATM   26  C   UNL     1       7.168  26.558  52.937  1.00  0.00     0.011 A 
ENDBRANCH  14  20
ENDBRANCH   1  14
TORSDOF 5
ENDMDL
