MODEL 1
REMARK VINA RESULT:      -8.5      0.000      0.000
REMARK  2 active torsions:
REMARK  status: ('A' for Active; 'I' for Inactive)
REMARK    1  A    between atoms: C_5  and  O_6 
REMARK    2  A    between atoms: C_5  and  C_7 
ROOT
HETATM    1  C   UNL     1       3.605  29.954  56.545  1.00  0.00     0.050 C 
HETATM    2  C   UNL     1       5.016  29.461  56.632  1.00  0.00    -0.034 A 
HETATM    3  C   UNL     1       5.328  28.121  56.821  1.00  0.00     0.052 A 
HETATM    4  C   UNL     1       6.645  27.641  56.875  1.00  0.00     0.039 A 
HETATM    5  C   UNL     1       6.626  26.156  57.124  1.00  0.00     0.200 A 
HETATM    6  C   UNL     1       5.084  25.864  57.190  1.00  0.00     0.266 A 
HETATM    7  O   UNL     1       4.516  24.801  57.400  1.00  0.00    -0.269 OA
HETATM    8  N   UNL     1       4.429  27.076  56.988  1.00  0.00    -0.323 N 
HETATM    9  C   UNL     1       7.702  28.529  56.764  1.00  0.00     0.046 A 
HETATM   10 CL   UNL     1       9.341  28.020  56.875  1.00  0.00    -0.084 Cl
HETATM   11  C   UNL     1       7.422  29.884  56.552  1.00  0.00     0.025 A 
HETATM   12  C   UNL     1       6.094  30.342  56.479  1.00  0.00     0.011 A 
HETATM   13  H   UNL     1       3.424  27.150  57.007  1.00  0.00     0.169 HD
ENDROOT
BRANCH   5  14
HETATM   14  O   UNL     1       7.269  25.931  58.375  1.00  0.00    -0.371 OA
HETATM   15  H   UNL     1       6.552  25.893  59.032  1.00  0.00     0.212 HD
ENDBRANCH   5  14
BRANCH   5  16
HETATM   16  C   UNL     1       7.252  25.386  55.971  1.00  0.00     0.025 A 
HETATM   17  C   UNL     1       7.042  25.514  54.541  1.00  0.00     0.003 A 
HETATM   18  C   UNL     1       7.856  24.572  53.910  1.00  0.00     0.043 A 
HETATM   19  C   UNL     1       6.241  26.331  53.708  1.00  0.00     0.014 A 
HETATM   20  C   UNL     1       7.930  24.422  52.518  1.00  0.00     0.030 A 
HETATM   21  N   UNL     1       8.502  23.867  54.891  1.00  0.00    -0.359 N 
HETATM   22  C   UNL     1       7.141  25.259  51.729  1.00  0.00     0.002 A 
HETATM   23  C   UNL     1       6.303  26.199  52.315  1.00  0.00     0.001 A 
HETATM   24  H   UNL     1       9.132  23.098  54.714  1.00  0.00     0.166 HD
HETATM   25  C   UNL     1       8.126  24.307  56.131  1.00  0.00     0.016 A 
HETATM   26  C   UNL     1       8.624  23.620  57.356  1.00  0.00     0.069 C 
ENDBRANCH   5  16
TORSDOF 2
ENDMDL
MODEL 2
REMARK VINA RESULT:      -8.5      2.607      5.625
REMARK  2 active torsions:
REMARK  status: ('A' for Active; 'I' for Inactive)
REMARK    1  A    between atoms: C_5  and  O_6 
REMARK    2  A    between atoms: C_5  and  C_7 
ROOT
HETATM    1  C   UNL     1       8.338  21.361  56.831  1.00  0.00     0.050 C 
HETATM    2  C   UNL     1       8.111  22.186  55.603  1.00  0.00    -0.034 A 
HETATM    3  C   UNL     1       7.278  23.297  55.595  1.00  0.00     0.052 A 
HETATM    4  C   UNL     1       7.078  24.097  54.460  1.00  0.00     0.039 A 
HETATM    5  C   UNL     1       6.095  25.191  54.786  1.00  0.00     0.200 A 
HETATM    6  C   UNL     1       5.775  24.892  56.294  1.00  0.00     0.266 A 
HETATM    7  O   UNL     1       5.004  25.477  57.042  1.00  0.00    -0.269 OA
HETATM    8  N   UNL     1       6.528  23.779  56.660  1.00  0.00    -0.323 N 
HETATM    9  C   UNL     1       7.711  23.770  53.273  1.00  0.00     0.046 A 
HETATM   10 CL   UNL     1       7.470  24.673  51.829  1.00  0.00    -0.084 Cl
HETATM   11  C   UNL     1       8.573  22.669  53.252  1.00  0.00     0.025 A 
HETATM   12  C   UNL     1       8.777  21.891  54.406  1.00  0.00     0.011 A 
HETATM   13  H   UNL     1       6.477  23.380  57.584  1.00  0.00     0.169 HD
ENDROOT
BRANCH   5  14
HETATM   14  O   UNL     1       4.959  24.997  53.948  1.00  0.00    -0.371 OA
HETATM   15  H   UNL     1       5.233  24.338  53.287  1.00  0.00     0.212 HD
ENDBRANCH   5  14
BRANCH   5  16
HETATM   16  C   UNL     1       6.723  26.569  54.650  1.00  0.00     0.025 A 
HETATM   17  C   UNL     1       7.615  27.279  55.547  1.00  0.00     0.003 A 
HETATM   18  C   UNL     1       7.903  28.515  54.964  1.00  0.00     0.043 A 
HETATM   19  C   UNL     1       8.212  27.007  56.801  1.00  0.00     0.014 A 
HETATM   20  C   UNL     1       8.758  29.463  55.543  1.00  0.00     0.030 A 
HETATM   21  N   UNL     1       7.196  28.588  53.793  1.00  0.00    -0.359 N 
HETATM   22  C   UNL     1       9.343  29.150  56.770  1.00  0.00     0.002 A 
HETATM   23  C   UNL     1       9.072  27.940  57.395  1.00  0.00     0.001 A 
HETATM   24  H   UNL     1       7.194  29.393  53.183  1.00  0.00     0.166 HD
HETATM   25  C   UNL     1       6.451  27.456  53.605  1.00  0.00     0.016 A 
HETATM   26  C   UNL     1       5.520  27.352  52.446  1.00  0.00     0.069 C 
ENDBRANCH   5  16
TORSDOF 2
ENDMDL
MODEL 3
REMARK VINA RESULT:      -8.3      2.565      3.325
REMARK  2 active torsions:
REMARK  status: ('A' for Active; 'I' for Inactive)
REMARK    1  A    between atoms: C_5  and  O_6 
REMARK    2  A    between atoms: C_5  and  C_7 
ROOT
HETATM    1  C   UNL     1       5.448  31.303  58.257  1.00  0.00     0.050 C 
HETATM    2  C   UNL     1       5.200  30.342  57.136  1.00  0.00    -0.034 A 
HETATM    3  C   UNL     1       6.231  29.707  56.457  1.00  0.00     0.052 A 
HETATM    4  C   UNL     1       6.014  28.783  55.424  1.00  0.00     0.039 A 
HETATM    5  C   UNL     1       7.340  28.314  54.885  1.00  0.00     0.200 A 
HETATM    6  C   UNL     1       8.349  29.111  55.786  1.00  0.00     0.266 A 
HETATM    7  O   UNL     1       9.572  29.114  55.745  1.00  0.00    -0.269 OA
HETATM    8  N   UNL     1       7.593  29.877  56.669  1.00  0.00    -0.323 N 
HETATM    9  C   UNL     1       4.719  28.493  55.027  1.00  0.00     0.046 A 
HETATM   10 CL   UNL     1       4.379  27.412  53.733  1.00  0.00    -0.084 Cl
HETATM   11  C   UNL     1       3.656  29.100  55.705  1.00  0.00     0.025 A 
HETATM   12  C   UNL     1       3.895  30.008  56.753  1.00  0.00     0.011 A 
HETATM   13  H   UNL     1       8.021  30.496  57.341  1.00  0.00     0.169 HD
ENDROOT
BRANCH   5  14
HETATM   14  O   UNL     1       7.404  28.718  53.520  1.00  0.00    -0.371 OA
HETATM   15  H   UNL     1       6.565  28.428  53.123  1.00  0.00     0.212 HD
ENDBRANCH   5  14
BRANCH   5  16
HETATM   16  C   UNL     1       7.530  26.819  55.087  1.00  0.00     0.025 A 
HETATM   17  C   UNL     1       7.627  25.751  54.109  1.00  0.00     0.003 A 
HETATM   18  C   UNL     1       7.796  24.554  54.808  1.00  0.00     0.043 A 
HETATM   19  C   UNL     1       7.584  25.669  52.697  1.00  0.00     0.014 A 
HETATM   20  C   UNL     1       7.948  23.309  54.183  1.00  0.00     0.030 A 
HETATM   21  N   UNL     1       7.763  24.854  56.144  1.00  0.00    -0.359 N 
HETATM   22  C   UNL     1       7.922  23.270  52.789  1.00  0.00     0.002 A 
HETATM   23  C   UNL     1       7.738  24.434  52.053  1.00  0.00     0.001 A 
HETATM   24  H   UNL     1       7.830  24.165  56.880  1.00  0.00     0.166 HD
HETATM   25  C   UNL     1       7.563  26.193  56.336  1.00  0.00     0.016 A 
HETATM   26  C   UNL     1       7.390  26.739  57.712  1.00  0.00     0.069 C 
ENDBRANCH   5  16
TORSDOF 2
ENDMDL
MODEL 4
REMARK VINA RESULT:      -8.1      1.910      5.255
REMARK  2 active torsions:
REMARK  status: ('A' for Active; 'I' for Inactive)
REMARK    1  A    between atoms: C_5  and  O_6 
REMARK    2  A    between atoms: C_5  and  C_7 
ROOT
HETATM    1  C   UNL     1       7.612  22.321  54.340  1.00  0.00     0.050 C 
HETATM    2  C   UNL     1       7.418  23.785  54.095  1.00  0.00    -0.034 A 
HETATM    3  C   UNL     1       6.683  24.594  54.951  1.00  0.00     0.052 A 
HETATM    4  C   UNL     1       6.518  25.972  54.749  1.00  0.00     0.039 A 
HETATM    5  C   UNL     1       5.640  26.535  55.837  1.00  0.00     0.200 A 
HETATM    6  C   UNL     1       5.342  25.256  56.698  1.00  0.00     0.266 A 
HETATM    7  O   UNL     1       4.645  25.155  57.699  1.00  0.00    -0.269 OA
HETATM    8  N   UNL     1       6.009  24.192  56.096  1.00  0.00    -0.323 N 
HETATM    9  C   UNL     1       7.084  26.574  53.638  1.00  0.00     0.046 A 
HETATM   10 CL   UNL     1       6.878  28.247  53.298  1.00  0.00    -0.084 Cl
HETATM   11  C   UNL     1       7.850  25.791  52.767  1.00  0.00     0.025 A 
HETATM   12  C   UNL     1       8.021  24.414  52.998  1.00  0.00     0.011 A 
HETATM   13  H   UNL     1       5.951  23.252  56.458  1.00  0.00     0.169 HD
ENDROOT
BRANCH   5  14
HETATM   14  O   UNL     1       4.467  27.044  55.208  1.00  0.00    -0.371 OA
HETATM   15  H   UNL     1       4.049  27.622  55.870  1.00  0.00     0.212 HD
ENDBRANCH   5  14
BRANCH   5  16
HETATM   16  C   UNL     1       6.378  27.567  56.676  1.00  0.00     0.025 A 
HETATM   17  C   UNL     1       6.052  28.954  56.946  1.00  0.00     0.003 A 
HETATM   18  C   UNL     1       7.052  29.469  57.773  1.00  0.00     0.043 A 
HETATM   19  C   UNL     1       5.010  29.837  56.573  1.00  0.00     0.014 A 
HETATM   20  C   UNL     1       7.054  30.784  58.258  1.00  0.00     0.030 A 
HETATM   21  N   UNL     1       7.972  28.473  57.970  1.00  0.00    -0.359 N 
HETATM   22  C   UNL     1       6.000  31.619  57.885  1.00  0.00     0.002 A 
HETATM   23  C   UNL     1       4.992  31.155  57.050  1.00  0.00     0.001 A 
HETATM   24  H   UNL     1       8.821  28.584  58.506  1.00  0.00     0.166 HD
HETATM   25  C   UNL     1       7.613  27.341  57.291  1.00  0.00     0.016 A 
HETATM   26  C   UNL     1       8.515  26.155  57.274  1.00  0.00     0.069 C 
ENDBRANCH   5  16
TORSDOF 2
ENDMDL
MODEL 5
REMARK VINA RESULT:      -8.0      2.623      4.042
REMARK  2 active torsions:
REMARK  status: ('A' for Active; 'I' for Inactive)
REMARK    1  A    between atoms: C_5  and  O_6 
REMARK    2  A    between atoms: C_5  and  C_7 
ROOT
HETATM    1  C   UNL     1       9.401  29.697  56.316  1.00  0.00     0.050 C 
HETATM    2  C   UNL     1       8.408  28.593  56.503  1.00  0.00    -0.034 A 
HETATM    3  C   UNL     1       7.646  28.090  55.458  1.00  0.00     0.052 A 
HETATM    4  C   UNL     1       6.733  27.036  55.612  1.00  0.00     0.039 A 
HETATM    5  C   UNL     1       6.054  26.765  54.296  1.00  0.00     0.200 A 
HETATM    6  C   UNL     1       6.736  27.827  53.361  1.00  0.00     0.266 A 
HETATM    7  O   UNL     1       6.524  28.052  52.177  1.00  0.00    -0.269 OA
HETATM    8  N   UNL     1       7.651  28.530  54.141  1.00  0.00    -0.323 N 
HETATM    9  C   UNL     1       6.546  26.471  56.863  1.00  0.00     0.046 A 
HETATM   10 CL   UNL     1       5.406  25.213  57.138  1.00  0.00    -0.084 Cl
HETATM   11  C   UNL     1       7.314  26.940  57.934  1.00  0.00     0.025 A 
HETATM   12  C   UNL     1       8.240  27.984  57.754  1.00  0.00     0.011 A 
HETATM   13  H   UNL     1       8.203  29.286  53.765  1.00  0.00     0.169 HD
ENDROOT
BRANCH   5  14
HETATM   14  O   UNL     1       4.664  27.025  54.478  1.00  0.00    -0.371 OA
HETATM   15  H   UNL     1       4.289  26.197  54.822  1.00  0.00     0.212 HD
ENDBRANCH   5  14
BRANCH   5  16
HETATM   16  C   UNL     1       6.349  25.362  53.790  1.00  0.00     0.025 A 
HETATM   17  C   UNL     1       7.324  24.391  54.251  1.00  0.00     0.003 A 
HETATM   18  C   UNL     1       7.196  23.253  53.452  1.00  0.00     0.043 A 
HETATM   19  C   UNL     1       8.310  24.354  55.265  1.00  0.00     0.014 A 
HETATM   20  C   UNL     1       7.968  22.096  53.624  1.00  0.00     0.030 A 
HETATM   21  N   UNL     1       6.228  23.517  52.519  1.00  0.00    -0.359 N 
HETATM   22  C   UNL     1       8.916  22.091  54.647  1.00  0.00     0.002 A 
HETATM   23  C   UNL     1       9.090  23.206  55.456  1.00  0.00     0.001 A 
HETATM   24  H   UNL     1       5.955  22.873  51.789  1.00  0.00     0.166 HD
HETATM   25  C   UNL     1       5.737  24.784  52.674  1.00  0.00     0.016 A 
HETATM   26  C   UNL     1       4.744  25.330  51.707  1.00  0.00     0.069 C 
ENDBRANCH   5  16
TORSDOF 2
ENDMDL
MODEL 6
REMARK VINA RESULT:      -7.9      9.757     11.659
REMARK  2 active torsions:
REMARK  status: ('A' for Active; 'I' for Inactive)
REMARK    1  A    between atoms: C_5  and  O_6 
REMARK    2  A    between atoms: C_5  and  C_7 
ROOT
HETATM    1  C   UNL     1       2.381  36.451  59.391  1.00  0.00     0.050 C 
HETATM    2  C   UNL     1       3.251  36.787  60.562  1.00  0.00    -0.034 A 
HETATM    3  C   UNL     1       3.260  36.031  61.726  1.00  0.00     0.052 A 
HETATM    4  C   UNL     1       4.091  36.316  62.820  1.00  0.00     0.039 A 
HETATM    5  C   UNL     1       3.824  35.326  63.922  1.00  0.00     0.200 A 
HETATM    6  C   UNL     1       2.715  34.421  63.276  1.00  0.00     0.266 A 
HETATM    7  O   UNL     1       2.125  33.468  63.766  1.00  0.00    -0.269 OA
HETATM    8  N   UNL     1       2.477  34.916  61.997  1.00  0.00    -0.323 N 
HETATM    9  C   UNL     1       4.932  37.415  62.770  1.00  0.00     0.046 A 
HETATM   10 CL   UNL     1       5.938  37.857  64.094  1.00  0.00    -0.084 Cl
HETATM   11  C   UNL     1       4.963  38.187  61.604  1.00  0.00     0.025 A 
HETATM   12  C   UNL     1       4.137  37.871  60.510  1.00  0.00     0.011 A 
HETATM   13  H   UNL     1       1.784  34.510  61.387  1.00  0.00     0.169 HD
ENDROOT
BRANCH   5  14
HETATM   14  O   UNL     1       3.332  36.062  65.039  1.00  0.00    -0.371 OA
HETATM   15  H   UNL     1       2.373  35.902  65.053  1.00  0.00     0.212 HD
ENDBRANCH   5  14
BRANCH   5  16
HETATM   16  C   UNL     1       5.057  34.493  64.238  1.00  0.00     0.025 A 
HETATM   17  C   UNL     1       6.002  33.850  63.344  1.00  0.00     0.003 A 
HETATM   18  C   UNL     1       6.956  33.204  64.133  1.00  0.00     0.043 A 
HETATM   19  C   UNL     1       6.150  33.742  61.941  1.00  0.00     0.014 A 
HETATM   20  C   UNL     1       8.042  32.493  63.606  1.00  0.00     0.030 A 
HETATM   21  N   UNL     1       6.601  33.396  65.442  1.00  0.00    -0.359 N 
HETATM   22  C   UNL     1       8.166  32.426  62.218  1.00  0.00     0.002 A 
HETATM   23  C   UNL     1       7.231  33.038  61.394  1.00  0.00     0.001 A 
HETATM   24  H   UNL     1       7.103  33.007  66.228  1.00  0.00     0.166 HD
HETATM   25  C   UNL     1       5.447  34.127  65.529  1.00  0.00     0.016 A 
HETATM   26  C   UNL     1       4.813  34.376  66.854  1.00  0.00     0.069 C 
ENDBRANCH   5  16
TORSDOF 2
ENDMDL
MODEL 7
REMARK VINA RESULT:      -7.9      9.827     12.033
REMARK  2 active torsions:
REMARK  status: ('A' for Active; 'I' for Inactive)
REMARK    1  A    between atoms: C_5  and  O_6 
REMARK    2  A    between atoms: C_5  and  C_7 
ROOT
HETATM    1  C   UNL     1       4.694  34.136  67.472  1.00  0.00     0.050 C 
HETATM    2  C   UNL     1       5.322  33.963  66.124  1.00  0.00    -0.034 A 
HETATM    3  C   UNL     1       4.585  33.999  64.948  1.00  0.00     0.052 A 
HETATM    4  C   UNL     1       5.163  33.867  63.677  1.00  0.00     0.039 A 
HETATM    5  C   UNL     1       4.083  33.916  62.628  1.00  0.00     0.200 A 
HETATM    6  C   UNL     1       2.796  34.108  63.507  1.00  0.00     0.266 A 
HETATM    7  O   UNL     1       1.629  34.184  63.146  1.00  0.00    -0.269 OA
HETATM    8  N   UNL     1       3.210  34.155  64.835  1.00  0.00    -0.323 N 
HETATM    9  C   UNL     1       6.529  33.666  63.564  1.00  0.00     0.046 A 
HETATM   10 CL   UNL     1       7.299  33.443  62.042  1.00  0.00    -0.084 Cl
HETATM   11  C   UNL     1       7.304  33.647  64.729  1.00  0.00     0.025 A 
HETATM   12  C   UNL     1       6.707  33.801  65.994  1.00  0.00     0.011 A 
HETATM   13  H   UNL     1       2.555  34.253  65.596  1.00  0.00     0.169 HD
ENDROOT
BRANCH   5  14
HETATM   14  O   UNL     1       4.092  32.659  61.958  1.00  0.00    -0.371 OA
HETATM   15  H   UNL     1       4.396  32.849  61.054  1.00  0.00     0.212 HD
ENDBRANCH   5  14
BRANCH   5  16
HETATM   16  C   UNL     1       4.259  35.104  61.695  1.00  0.00     0.025 A 
HETATM   17  C   UNL     1       4.870  36.398  61.939  1.00  0.00     0.003 A 
HETATM   18  C   UNL     1       4.776  37.136  60.758  1.00  0.00     0.043 A 
HETATM   19  C   UNL     1       5.493  37.028  63.042  1.00  0.00     0.014 A 
HETATM   20  C   UNL     1       5.284  38.435  60.615  1.00  0.00     0.030 A 
HETATM   21  N   UNL     1       4.107  36.364  59.845  1.00  0.00    -0.359 N 
HETATM   22  C   UNL     1       5.910  39.015  61.719  1.00  0.00     0.002 A 
HETATM   23  C   UNL     1       6.010  38.324  62.919  1.00  0.00     0.001 A 
HETATM   24  H   UNL     1       3.871  36.669  58.911  1.00  0.00     0.166 HD
HETATM   25  C   UNL     1       3.751  35.163  60.395  1.00  0.00     0.016 A 
HETATM   26  C   UNL     1       2.923  34.197  59.620  1.00  0.00     0.069 C 
ENDBRANCH   5  16
TORSDOF 2
ENDMDL
MODEL 8
REMARK VINA RESULT:      -7.8      8.833     12.102
REMARK  2 active torsions:
REMARK  status: ('A' for Active; 'I' for Inactive)
REMARK    1  A    between atoms: C_5  and  O_6 
REMARK    2  A    between atoms: C_5  and  C_7 
ROOT
HETATM    1  C   UNL     1       6.505  32.283  59.261  1.00  0.00     0.050 C 
HETATM    2  C   UNL     1       5.442  32.731  60.214  1.00  0.00    -0.034 A 
HETATM    3  C   UNL     1       5.702  32.994  61.552  1.00  0.00     0.052 A 
HETATM    4  C   UNL     1       4.721  33.442  62.450  1.00  0.00     0.039 A 
HETATM    5  C   UNL     1       5.329  33.594  63.820  1.00  0.00     0.200 A 
HETATM    6  C   UNL     1       6.818  33.171  63.555  1.00  0.00     0.266 A 
HETATM    7  O   UNL     1       7.744  33.093  64.352  1.00  0.00    -0.269 OA
HETATM    8  N   UNL     1       6.921  32.856  62.203  1.00  0.00    -0.323 N 
HETATM    9  C   UNL     1       3.419  33.614  62.011  1.00  0.00     0.046 A 
HETATM   10 CL   UNL     1       2.155  34.109  63.067  1.00  0.00    -0.084 Cl
HETATM   11  C   UNL     1       3.128  33.378  60.663  1.00  0.00     0.025 A 
HETATM   12  C   UNL     1       4.130  32.948  59.774  1.00  0.00     0.011 A 
HETATM   13  H   UNL     1       7.784  32.534  61.793  1.00  0.00     0.169 HD
ENDROOT
BRANCH   5  14
HETATM   14  O   UNL     1       4.657  32.680  64.681  1.00  0.00    -0.371 OA
HETATM   15  H   UNL     1       4.095  33.229  65.255  1.00  0.00     0.212 HD
ENDBRANCH   5  14
BRANCH   5  16
HETATM   16  C   UNL     1       5.275  35.036  64.301  1.00  0.00     0.025 A 
HETATM   17  C   UNL     1       5.564  36.267  63.590  1.00  0.00     0.003 A 
HETATM   18  C   UNL     1       5.366  37.324  64.481  1.00  0.00     0.043 A 
HETATM   19  C   UNL     1       5.978  36.603  62.279  1.00  0.00     0.014 A 
HETATM   20  C   UNL     1       5.532  38.671  64.132  1.00  0.00     0.030 A 
HETATM   21  N   UNL     1       5.018  36.780  65.689  1.00  0.00    -0.359 N 
HETATM   22  C   UNL     1       5.921  38.963  62.824  1.00  0.00     0.002 A 
HETATM   23  C   UNL     1       6.146  37.943  61.909  1.00  0.00     0.001 A 
HETATM   24  H   UNL     1       4.848  37.321  66.525  1.00  0.00     0.166 HD
HETATM   25  C   UNL     1       4.998  35.414  65.617  1.00  0.00     0.016 A 
HETATM   26  C   UNL     1       4.743  34.600  66.840  1.00  0.00     0.069 C 
ENDBRANCH   5  16
TORSDOF 2
ENDMDL
MODEL 9
REMARK VINA RESULT:      -7.7      2.177      5.586
REMARK  2 active torsions:
REMARK  status: ('A' for Active; 'I' for Inactive)
REMARK    1  A    between atoms: C_5  and  O_6 
REMARK    2  A    between atoms: C_5  and  C_7 
ROOT
HETATM    1  C   UNL     1       8.129  22.219  54.508  1.00  0.00     0.050 C 
HETATM    2  C   UNL     1       7.633  23.464  53.842  1.00  0.00    -0.034 A 
HETATM    3  C   UNL     1       6.839  24.395  54.497  1.00  0.00     0.052 A 
HETATM    4  C   UNL     1       6.391  25.580  53.894  1.00  0.00     0.039 A 
HETATM    5  C   UNL     1       5.527  26.340  54.866  1.00  0.00     0.200 A 
HETATM    6  C   UNL     1       5.564  25.402  56.125  1.00  0.00     0.266 A 
HETATM    7  O   UNL     1       4.998  25.544  57.201  1.00  0.00    -0.269 OA
HETATM    8  N   UNL     1       6.365  24.311  55.799  1.00  0.00    -0.323 N 
HETATM    9  C   UNL     1       6.724  25.845  52.576  1.00  0.00     0.046 A 
HETATM   10 CL   UNL     1       6.166  27.251  51.757  1.00  0.00    -0.084 Cl
HETATM   11  C   UNL     1       7.541  24.938  51.894  1.00  0.00     0.025 A 
HETATM   12  C   UNL     1       7.996  23.764  52.522  1.00  0.00     0.011 A 
HETATM   13  H   UNL     1       6.525  23.554  56.446  1.00  0.00     0.169 HD
ENDROOT
BRANCH   5  14
HETATM   14  O   UNL     1       4.224  26.421  54.296  1.00  0.00    -0.371 OA
HETATM   15  H   UNL     1       3.873  25.515  54.321  1.00  0.00     0.212 HD
ENDBRANCH   5  14
BRANCH   5  16
HETATM   16  C   UNL     1       6.127  27.695  55.209  1.00  0.00     0.025 A 
HETATM   17  C   UNL     1       7.312  28.022  55.979  1.00  0.00     0.003 A 
HETATM   18  C   UNL     1       7.428  29.413  56.004  1.00  0.00     0.043 A 
HETATM   19  C   UNL     1       8.305  27.284  56.666  1.00  0.00     0.014 A 
HETATM   20  C   UNL     1       8.475  30.091  56.644  1.00  0.00     0.030 A 
HETATM   21  N   UNL     1       6.353  29.925  55.326  1.00  0.00    -0.359 N 
HETATM   22  C   UNL     1       9.446  29.328  57.293  1.00  0.00     0.002 A 
HETATM   23  C   UNL     1       9.362  27.942  57.309  1.00  0.00     0.001 A 
HETATM   24  H   UNL     1       6.169  30.912  55.219  1.00  0.00     0.166 HD
HETATM   25  C   UNL     1       5.540  28.920  54.879  1.00  0.00     0.016 A 
HETATM   26  C   UNL     1       4.252  29.240  54.200  1.00  0.00     0.069 C 
ENDBRANCH   5  16
TORSDOF 2
ENDMDL
MODEL 10
REMARK VINA RESULT:      -7.5      8.218     10.586
REMARK  2 active torsions:
REMARK  status: ('A' for Active; 'I' for Inactive)
REMARK    1  A    between atoms: C_5  and  O_6 
REMARK    2  A    between atoms: C_5  and  C_7 
ROOT
HETATM    1  C   UNL     1       5.710  34.423  67.088  1.00  0.00     0.050 C 
HETATM    2  C   UNL     1       6.013  33.915  65.713  1.00  0.00    -0.034 A 
HETATM    3  C   UNL     1       5.034  33.770  64.740  1.00  0.00     0.052 A 
HETATM    4  C   UNL     1       5.307  33.323  63.438  1.00  0.00     0.039 A 
HETATM    5  C   UNL     1       4.023  33.248  62.655  1.00  0.00     0.200 A 
HETATM    6  C   UNL     1       2.974  33.735  63.717  1.00  0.00     0.266 A 
HETATM    7  O   UNL     1       1.760  33.839  63.600  1.00  0.00    -0.269 OA
HETATM    8  N   UNL     1       3.676  34.022  64.884  1.00  0.00    -0.323 N 
HETATM    9  C   UNL     1       6.603  32.981  63.091  1.00  0.00     0.046 A 
HETATM   10 CL   UNL     1       7.003  32.375  61.531  1.00  0.00    -0.084 Cl
HETATM   11  C   UNL     1       7.617  33.136  64.042  1.00  0.00     0.025 A 
HETATM   12  C   UNL     1       7.326  33.605  65.336  1.00  0.00     0.011 A 
HETATM   13  H   UNL     1       3.212  34.336  65.723  1.00  0.00     0.169 HD
ENDROOT
BRANCH   5  14
HETATM   14  O   UNL     1       3.829  31.883  62.297  1.00  0.00    -0.371 OA
HETATM   15  H   UNL     1       4.364  31.371  62.927  1.00  0.00     0.212 HD
ENDBRANCH   5  14
BRANCH   5  16
HETATM   16  C   UNL     1       4.035  34.193  61.464  1.00  0.00     0.025 A 
HETATM   17  C   UNL     1       3.961  33.905  60.044  1.00  0.00     0.003 A 
HETATM   18  C   UNL     1       4.013  35.123  59.363  1.00  0.00     0.043 A 
HETATM   19  C   UNL     1       3.857  32.734  59.256  1.00  0.00     0.014 A 
HETATM   20  C   UNL     1       3.944  35.233  57.967  1.00  0.00     0.030 A 
HETATM   21  N   UNL     1       4.157  36.110  60.302  1.00  0.00    -0.359 N 
HETATM   22  C   UNL     1       3.821  34.058  57.226  1.00  0.00     0.002 A 
HETATM   23  C   UNL     1       3.782  32.822  57.859  1.00  0.00     0.001 A 
HETATM   24  H   UNL     1       4.255  37.091  60.082  1.00  0.00     0.166 HD
HETATM   25  C   UNL     1       4.215  35.576  61.561  1.00  0.00     0.016 A 
HETATM   26  C   UNL     1       4.472  36.452  62.738  1.00  0.00     0.069 C 
ENDBRANCH   5  16
TORSDOF 2
ENDMDL
