MODEL 1
REMARK VINA RESULT:      -9.9      0.000      0.000
REMARK  9 active torsions:
REMARK  status: ('A' for Active; 'I' for Inactive)
REMARK    1  A    between atoms: C_3  and  N_4 
REMARK       I    between atoms: N_4  and  C_5 
REMARK    2  A    between atoms: C_5  and  C_6 
REMARK    3  A    between atoms: C_13  and  C_14 
REMARK    4  A    between atoms: C_14  and  O_15 
REMARK    5  A    between atoms: O_15  and  C_16 
REMARK    6  A    between atoms: C_16  and  C_17 
REMARK       I    between atoms: C_17  and  N_18 
REMARK    7  A    between atoms: N_18  and  C_19 
REMARK    8  A    between atoms: C_19  and  C_20 
REMARK    9  A    between atoms: C_22  and  O_23 
ROOT
HETATM    1  C   UNL     1       8.786  30.131  58.729  1.00  0.00     0.293 C 
HETATM    2  O   UNL     1       9.411  30.623  57.801  1.00  0.00    -0.259 OA
ENDROOT
BRANCH   1   3
HETATM    3  C   UNL     1       8.568  30.824  60.024  1.00  0.00     0.041 A 
HETATM    4  C   UNL     1       7.322  31.431  60.236  1.00  0.00     0.047 A 
HETATM    5  C   UNL     1       7.032  32.100  61.430  1.00  0.00     0.042 A 
HETATM    6  C   UNL     1       8.027  32.177  62.427  1.00  0.00    -0.035 A 
HETATM    7  C   UNL     1       7.814  32.895  63.735  1.00  0.00     0.050 C 
HETATM    8  C   UNL     1       9.281  31.578  62.200  1.00  0.00     0.010 A 
HETATM    9  C   UNL     1       9.549  30.898  61.012  1.00  0.00     0.018 A 
BRANCH   5  10
HETATM   10  N   UNL     1       5.779  32.712  61.656  1.00  0.00    -0.321 N 
HETATM   11  C   UNL     1       4.736  32.255  62.447  1.00  0.00     0.279 C 
HETATM   12  O   UNL     1       4.768  31.251  63.150  1.00  0.00    -0.265 OA
HETATM   13  H   UNL     1       5.616  33.623  61.242  1.00  0.00     0.169 HD
BRANCH  11  14
HETATM   14  C   UNL     1       3.575  33.126  62.410  1.00  0.00     0.142 A 
HETATM   15  O   UNL     1       2.863  33.357  63.561  1.00  0.00    -0.317 OA
HETATM   16  C   UNL     1       1.849  34.200  63.239  1.00  0.00     0.143 A 
HETATM   17  C   UNL     1       1.885  34.513  61.901  1.00  0.00     0.027 A 
HETATM   18  C   UNL     1       2.998  33.822  61.365  1.00  0.00     0.045 A 
ENDBRANCH  11  14
ENDBRANCH   5  10
ENDBRANCH   1   3
BRANCH   1  19
HETATM   19  O   UNL     1       8.158  28.932  58.699  1.00  0.00    -0.308 OA
BRANCH  19  20
HETATM   20  C   UNL     1       8.081  28.315  57.410  1.00  0.00     0.281 C 
BRANCH  20  21
HETATM   21  C   UNL     1       7.634  26.848  57.425  1.00  0.00     0.242 C 
HETATM   22  N   UNL     1       6.877  26.471  56.341  1.00  0.00    -0.355 N 
HETATM   23  H   UNL     1       6.604  27.188  55.669  1.00  0.00     0.162 HD
HETATM   24  O   UNL     1       7.966  26.074  58.321  1.00  0.00    -0.271 OA
BRANCH  22  25
HETATM   25  C   UNL     1       6.256  25.174  56.238  1.00  0.00     0.161 C 
BRANCH  25  26
HETATM   26  C   UNL     1       6.814  24.374  55.086  1.00  0.00    -0.038 A 
HETATM   27  C   UNL     1       7.251  23.049  55.269  1.00  0.00     0.045 A 
HETATM   28  C   UNL     1       7.764  22.316  54.196  1.00  0.00     0.068 A 
HETATM   29  C   UNL     1       7.829  22.906  52.931  1.00  0.00     0.037 A 
HETATM   30  C   UNL     1       7.407  24.220  52.738  1.00  0.00     0.003 A 
HETATM   31  C   UNL     1       6.906  24.952  53.812  1.00  0.00     0.009 A 
BRANCH  28  32
HETATM   32  O   UNL     1       8.222  21.027  54.245  1.00  0.00    -0.356 OA
HETATM   33  C   UNL     1       8.515  20.407  53.000  1.00  0.00     0.210 C 
ENDBRANCH  28  32
ENDBRANCH  25  26
ENDBRANCH  22  25
ENDBRANCH  20  21
ENDBRANCH  19  20
ENDBRANCH   1  19
TORSDOF 9
ENDMDL
MODEL 2
REMARK VINA RESULT:      -9.8      2.673      4.792
REMARK  9 active torsions:
REMARK  status: ('A' for Active; 'I' for Inactive)
REMARK    1  A    between atoms: C_3  and  N_4 
REMARK       I    between atoms: N_4  and  C_5 
REMARK    2  A    between atoms: C_5  and  C_6 
REMARK    3  A    between atoms: C_13  and  C_14 
REMARK    4  A    between atoms: C_14  and  O_15 
REMARK    5  A    between atoms: O_15  and  C_16 
REMARK    6  A    between atoms: C_16  and  C_17 
REMARK       I    between atoms: C_17  and  N_18 
REMARK    7  A    between atoms: N_18  and  C_19 
REMARK    8  A    between atoms: C_19  and  C_20 
REMARK    9  A    between atoms: C_22  and  O_23 
ROOT
HETATM    1  C   UNL     1       5.601  28.009  55.496  1.00  0.00     0.293 C 
HETATM    2  O   UNL     1       4.708  27.522  56.173  1.00  0.00    -0.259 OA
ENDROOT
BRANCH   1   3
HETATM    3  C   UNL     1       6.832  28.604  56.074  1.00  0.00     0.041 A 
HETATM    4  C   UNL     1       6.742  29.173  57.353  1.00  0.00     0.047 A 
HETATM    5  C   UNL     1       7.857  29.749  57.973  1.00  0.00     0.042 A 
HETATM    6  C   UNL     1       9.086  29.772  57.281  1.00  0.00    -0.035 A 
HETATM    7  C   UNL     1      10.332  30.392  57.859  1.00  0.00     0.050 C 
HETATM    8  C   UNL     1       9.164  29.214  55.991  1.00  0.00     0.010 A 
HETATM    9  C   UNL     1       8.048  28.625  55.393  1.00  0.00     0.018 A 
BRANCH   5  10
HETATM   10  N   UNL     1       7.778  30.321  59.262  1.00  0.00    -0.321 N 
HETATM   11  C   UNL     1       7.340  31.590  59.608  1.00  0.00     0.279 C 
HETATM   12  O   UNL     1       6.873  32.415  58.829  1.00  0.00    -0.265 OA
HETATM   13  H   UNL     1       8.016  29.736  60.055  1.00  0.00     0.169 HD
BRANCH  11  14
HETATM   14  C   UNL     1       7.437  31.853  61.032  1.00  0.00     0.142 A 
HETATM   15  O   UNL     1       6.293  32.045  61.766  1.00  0.00    -0.317 OA
HETATM   16  C   UNL     1       6.677  32.264  63.051  1.00  0.00     0.143 A 
HETATM   17  C   UNL     1       8.047  32.226  63.160  1.00  0.00     0.027 A 
HETATM   18  C   UNL     1       8.538  31.961  61.860  1.00  0.00     0.045 A 
ENDBRANCH  11  14
ENDBRANCH   5  10
ENDBRANCH   1   3
BRANCH   1  19
HETATM   19  O   UNL     1       5.635  28.024  54.143  1.00  0.00    -0.308 OA
BRANCH  19  20
HETATM   20  C   UNL     1       4.737  27.114  53.500  1.00  0.00     0.281 C 
BRANCH  20  21
HETATM   21  C   UNL     1       5.388  25.828  52.977  1.00  0.00     0.242 C 
HETATM   22  N   UNL     1       6.763  25.865  52.925  1.00  0.00    -0.355 N 
HETATM   23  H   UNL     1       7.231  26.742  53.149  1.00  0.00     0.162 HD
HETATM   24  O   UNL     1       4.726  24.839  52.670  1.00  0.00    -0.271 OA
BRANCH  22  25
HETATM   25  C   UNL     1       7.548  24.806  52.343  1.00  0.00     0.161 C 
BRANCH  25  26
HETATM   26  C   UNL     1       7.829  23.703  53.335  1.00  0.00    -0.038 A 
HETATM   27  C   UNL     1       8.136  23.998  54.676  1.00  0.00     0.045 A 
HETATM   28  C   UNL     1       8.391  22.971  55.589  1.00  0.00     0.068 A 
HETATM   29  C   UNL     1       8.329  21.643  55.160  1.00  0.00     0.037 A 
HETATM   30  C   UNL     1       8.033  21.338  53.833  1.00  0.00     0.003 A 
HETATM   31  C   UNL     1       7.789  22.364  52.923  1.00  0.00     0.009 A 
BRANCH  28  32
HETATM   32  O   UNL     1       8.702  23.127  56.913  1.00  0.00    -0.356 OA
HETATM   33  C   UNL     1       8.730  24.459  57.407  1.00  0.00     0.210 C 
ENDBRANCH  28  32
ENDBRANCH  25  26
ENDBRANCH  22  25
ENDBRANCH  20  21
ENDBRANCH  19  20
ENDBRANCH   1  19
TORSDOF 9
ENDMDL
MODEL 3
REMARK VINA RESULT:      -9.8      1.614      2.589
REMARK  9 active torsions:
REMARK  status: ('A' for Active; 'I' for Inactive)
REMARK    1  A    between atoms: C_3  and  N_4 
REMARK       I    between atoms: N_4  and  C_5 
REMARK    2  A    between atoms: C_5  and  C_6 
REMARK    3  A    between atoms: C_13  and  C_14 
REMARK    4  A    between atoms: C_14  and  O_15 
REMARK    5  A    between atoms: O_15  and  C_16 
REMARK    6  A    between atoms: C_16  and  C_17 
REMARK       I    between atoms: C_17  and  N_18 
REMARK    7  A    between atoms: N_18  and  C_19 
REMARK    8  A    between atoms: C_19  and  C_20 
REMARK    9  A    between atoms: C_22  and  O_23 
ROOT
HETATM    1  C   UNL     1       8.488  30.190  58.706  1.00  0.00     0.293 C 
HETATM    2  O   UNL     1       9.607  30.572  58.399  1.00  0.00    -0.259 OA
ENDROOT
BRANCH   1   3
HETATM    3  C   UNL     1       7.385  31.110  59.082  1.00  0.00     0.041 A 
HETATM    4  C   UNL     1       7.317  31.535  60.417  1.00  0.00     0.047 A 
HETATM    5  C   UNL     1       6.313  32.407  60.853  1.00  0.00     0.042 A 
HETATM    6  C   UNL     1       5.342  32.845  59.928  1.00  0.00    -0.035 A 
HETATM    7  C   UNL     1       4.212  33.765  60.311  1.00  0.00     0.050 C 
HETATM    8  C   UNL     1       5.408  32.402  58.593  1.00  0.00     0.010 A 
HETATM    9  C   UNL     1       6.427  31.548  58.169  1.00  0.00     0.018 A 
BRANCH   5  10
HETATM   10  N   UNL     1       6.237  32.844  62.194  1.00  0.00    -0.321 N 
HETATM   11  C   UNL     1       5.564  32.248  63.249  1.00  0.00     0.279 C 
HETATM   12  O   UNL     1       4.965  31.178  63.194  1.00  0.00    -0.265 OA
HETATM   13  H   UNL     1       6.775  33.661  62.457  1.00  0.00     0.169 HD
BRANCH  11  14
HETATM   14  C   UNL     1       5.670  33.001  64.485  1.00  0.00     0.142 A 
HETATM   15  O   UNL     1       4.548  33.219  65.246  1.00  0.00    -0.317 OA
HETATM   16  C   UNL     1       4.937  33.936  66.332  1.00  0.00     0.143 A 
HETATM   17  C   UNL     1       6.287  34.193  66.285  1.00  0.00     0.027 A 
HETATM   18  C   UNL     1       6.761  33.591  65.095  1.00  0.00     0.045 A 
ENDBRANCH  11  14
ENDBRANCH   5  10
ENDBRANCH   1   3
BRANCH   1  19
HETATM   19  O   UNL     1       8.071  28.902  58.691  1.00  0.00    -0.308 OA
BRANCH  19  20
HETATM   20  C   UNL     1       8.078  28.274  57.405  1.00  0.00     0.281 C 
BRANCH  20  21
HETATM   21  C   UNL     1       7.632  26.806  57.404  1.00  0.00     0.242 C 
HETATM   22  N   UNL     1       6.845  26.449  56.334  1.00  0.00    -0.355 N 
HETATM   23  H   UNL     1       6.553  27.178  55.684  1.00  0.00     0.162 HD
HETATM   24  O   UNL     1       7.989  26.016  58.276  1.00  0.00    -0.271 OA
BRANCH  22  25
HETATM   25  C   UNL     1       6.222  25.154  56.223  1.00  0.00     0.161 C 
BRANCH  25  26
HETATM   26  C   UNL     1       6.972  24.249  55.276  1.00  0.00    -0.038 A 
HETATM   27  C   UNL     1       7.849  23.261  55.761  1.00  0.00     0.045 A 
HETATM   28  C   UNL     1       8.538  22.427  54.876  1.00  0.00     0.068 A 
HETATM   29  C   UNL     1       8.340  22.573  53.501  1.00  0.00     0.037 A 
HETATM   30  C   UNL     1       7.480  23.553  53.008  1.00  0.00     0.003 A 
HETATM   31  C   UNL     1       6.803  24.390  53.892  1.00  0.00     0.009 A 
BRANCH  28  32
HETATM   32  O   UNL     1       9.415  21.435  55.221  1.00  0.00    -0.356 OA
HETATM   33  C   UNL     1       8.905  20.387  56.035  1.00  0.00     0.210 C 
ENDBRANCH  28  32
ENDBRANCH  25  26
ENDBRANCH  22  25
ENDBRANCH  20  21
ENDBRANCH  19  20
ENDBRANCH   1  19
TORSDOF 9
ENDMDL
MODEL 4
REMARK VINA RESULT:      -9.6      1.754     11.421
REMARK  9 active torsions:
REMARK  status: ('A' for Active; 'I' for Inactive)
REMARK    1  A    between atoms: C_3  and  N_4 
REMARK       I    between atoms: N_4  and  C_5 
REMARK    2  A    between atoms: C_5  and  C_6 
REMARK    3  A    between atoms: C_13  and  C_14 
REMARK    4  A    between atoms: C_14  and  O_15 
REMARK    5  A    between atoms: O_15  and  C_16 
REMARK    6  A    between atoms: C_16  and  C_17 
REMARK       I    between atoms: C_17  and  N_18 
REMARK    7  A    between atoms: N_18  and  C_19 
REMARK    8  A    between atoms: C_19  and  C_20 
REMARK    9  A    between atoms: C_22  and  O_23 
ROOT
HETATM    1  C   UNL     1       7.899  28.712  57.394  1.00  0.00     0.293 C 
HETATM    2  O   UNL     1       9.120  28.682  57.437  1.00  0.00    -0.259 OA
ENDROOT
BRANCH   1   3
HETATM    3  C   UNL     1       7.096  27.914  56.434  1.00  0.00     0.041 A 
HETATM    4  C   UNL     1       7.534  26.615  56.140  1.00  0.00     0.047 A 
HETATM    5  C   UNL     1       6.832  25.794  55.251  1.00  0.00     0.042 A 
HETATM    6  C   UNL     1       5.673  26.300  54.626  1.00  0.00    -0.035 A 
HETATM    7  C   UNL     1       4.866  25.499  53.637  1.00  0.00     0.050 C 
HETATM    8  C   UNL     1       5.249  27.612  54.913  1.00  0.00     0.010 A 
HETATM    9  C   UNL     1       5.949  28.412  55.818  1.00  0.00     0.018 A 
BRANCH   5  10
HETATM   10  N   UNL     1       7.262  24.482  54.951  1.00  0.00    -0.321 N 
HETATM   11  C   UNL     1       7.894  24.033  53.802  1.00  0.00     0.279 C 
HETATM   12  O   UNL     1       8.250  24.741  52.866  1.00  0.00    -0.265 OA
HETATM   13  H   UNL     1       7.155  23.773  55.668  1.00  0.00     0.169 HD
BRANCH  11  14
HETATM   14  C   UNL     1       8.153  22.604  53.821  1.00  0.00     0.142 A 
HETATM   15  O   UNL     1       8.732  22.034  54.928  1.00  0.00    -0.317 OA
HETATM   16  C   UNL     1       8.850  20.706  54.675  1.00  0.00     0.143 A 
HETATM   17  C   UNL     1       8.369  20.406  53.423  1.00  0.00     0.027 A 
HETATM   18  C   UNL     1       7.919  21.629  52.871  1.00  0.00     0.045 A 
ENDBRANCH  11  14
ENDBRANCH   5  10
ENDBRANCH   1   3
BRANCH   1  19
HETATM   19  O   UNL     1       7.106  29.413  58.238  1.00  0.00    -0.308 OA
BRANCH  19  20
HETATM   20  C   UNL     1       7.295  30.832  58.216  1.00  0.00     0.281 C 
BRANCH  20  21
HETATM   21  C   UNL     1       8.147  31.384  59.364  1.00  0.00     0.242 C 
HETATM   22  N   UNL     1       7.972  30.740  60.567  1.00  0.00    -0.355 N 
HETATM   23  H   UNL     1       7.252  30.021  60.630  1.00  0.00     0.162 HD
HETATM   24  O   UNL     1       8.947  32.304  59.199  1.00  0.00    -0.271 OA
BRANCH  22  25
HETATM   25  C   UNL     1       8.585  31.194  61.790  1.00  0.00     0.161 C 
BRANCH  25  26
HETATM   26  C   UNL     1       7.602  31.921  62.675  1.00  0.00    -0.038 A 
HETATM   27  C   UNL     1       6.216  31.813  62.458  1.00  0.00     0.045 A 
HETATM   28  C   UNL     1       5.314  32.489  63.284  1.00  0.00     0.068 A 
HETATM   29  C   UNL     1       5.799  33.266  64.339  1.00  0.00     0.037 A 
HETATM   30  C   UNL     1       7.170  33.388  64.559  1.00  0.00     0.003 A 
HETATM   31  C   UNL     1       8.067  32.722  63.728  1.00  0.00     0.009 A 
BRANCH  28  32
HETATM   32  O   UNL     1       3.949  32.466  63.176  1.00  0.00    -0.356 OA
HETATM   33  C   UNL     1       3.350  33.534  62.455  1.00  0.00     0.210 C 
ENDBRANCH  28  32
ENDBRANCH  25  26
ENDBRANCH  22  25
ENDBRANCH  20  21
ENDBRANCH  19  20
ENDBRANCH   1  19
TORSDOF 9
ENDMDL
MODEL 5
REMARK VINA RESULT:      -9.5      2.297      4.136
REMARK  9 active torsions:
REMARK  status: ('A' for Active; 'I' for Inactive)
REMARK    1  A    between atoms: C_3  and  N_4 
REMARK       I    between atoms: N_4  and  C_5 
REMARK    2  A    between atoms: C_5  and  C_6 
REMARK    3  A    between atoms: C_13  and  C_14 
REMARK    4  A    between atoms: C_14  and  O_15 
REMARK    5  A    between atoms: O_15  and  C_16 
REMARK    6  A    between atoms: C_16  and  C_17 
REMARK       I    between atoms: C_17  and  N_18 
REMARK    7  A    between atoms: N_18  and  C_19 
REMARK    8  A    between atoms: C_19  and  C_20 
REMARK    9  A    between atoms: C_22  and  O_23 
ROOT
HETATM    1  C   UNL     1       7.692  26.879  56.888  1.00  0.00     0.293 C 
HETATM    2  O   UNL     1       8.166  25.767  57.061  1.00  0.00    -0.259 OA
ENDROOT
BRANCH   1   3
HETATM    3  C   UNL     1       8.374  28.131  57.302  1.00  0.00     0.041 A 
HETATM    4  C   UNL     1       7.872  28.806  58.424  1.00  0.00     0.047 A 
HETATM    5  C   UNL     1       8.460  29.989  58.885  1.00  0.00     0.042 A 
HETATM    6  C   UNL     1       9.567  30.517  58.188  1.00  0.00    -0.035 A 
HETATM    7  C   UNL     1      10.251  31.797  58.596  1.00  0.00     0.050 C 
HETATM    8  C   UNL     1      10.055  29.842  57.053  1.00  0.00     0.010 A 
HETATM    9  C   UNL     1       9.470  28.652  56.616  1.00  0.00     0.018 A 
BRANCH   5  10
HETATM   10  N   UNL     1       7.965  30.675  60.017  1.00  0.00    -0.321 N 
HETATM   11  C   UNL     1       8.452  30.643  61.314  1.00  0.00     0.279 C 
HETATM   12  O   UNL     1       9.460  30.047  61.679  1.00  0.00    -0.265 OA
HETATM   13  H   UNL     1       7.193  31.317  59.881  1.00  0.00     0.169 HD
BRANCH  11  14
HETATM   14  C   UNL     1       7.664  31.444  62.234  1.00  0.00     0.142 A 
HETATM   15  O   UNL     1       6.293  31.416  62.155  1.00  0.00    -0.317 OA
HETATM   16  C   UNL     1       5.823  32.243  63.124  1.00  0.00     0.143 A 
HETATM   17  C   UNL     1       6.861  32.813  63.821  1.00  0.00     0.027 A 
HETATM   18  C   UNL     1       8.049  32.299  63.249  1.00  0.00     0.045 A 
ENDBRANCH  11  14
ENDBRANCH   5  10
ENDBRANCH   1   3
BRANCH   1  19
HETATM   19  O   UNL     1       6.527  27.141  56.249  1.00  0.00    -0.308 OA
BRANCH  19  20
HETATM   20  C   UNL     1       6.646  27.408  54.848  1.00  0.00     0.281 C 
BRANCH  20  21
HETATM   21  C   UNL     1       6.202  26.258  53.935  1.00  0.00     0.242 C 
HETATM   22  N   UNL     1       7.056  25.180  53.918  1.00  0.00    -0.355 N 
HETATM   23  H   UNL     1       7.935  25.252  54.429  1.00  0.00     0.162 HD
HETATM   24  O   UNL     1       5.146  26.295  53.306  1.00  0.00    -0.271 OA
BRANCH  22  25
HETATM   25  C   UNL     1       6.879  24.061  53.027  1.00  0.00     0.161 C 
BRANCH  25  26
HETATM   26  C   UNL     1       7.469  22.792  53.593  1.00  0.00    -0.038 A 
HETATM   27  C   UNL     1       7.709  22.660  54.974  1.00  0.00     0.045 A 
HETATM   28  C   UNL     1       8.253  21.480  55.490  1.00  0.00     0.068 A 
HETATM   29  C   UNL     1       8.549  20.425  54.623  1.00  0.00     0.037 A 
HETATM   30  C   UNL     1       8.324  20.547  53.253  1.00  0.00     0.003 A 
HETATM   31  C   UNL     1       7.791  21.728  52.740  1.00  0.00     0.009 A 
BRANCH  28  32
HETATM   32  O   UNL     1       8.533  21.230  56.806  1.00  0.00    -0.356 OA
HETATM   33  C   UNL     1       8.389  22.320  57.706  1.00  0.00     0.210 C 
ENDBRANCH  28  32
ENDBRANCH  25  26
ENDBRANCH  22  25
ENDBRANCH  20  21
ENDBRANCH  19  20
ENDBRANCH   1  19
TORSDOF 9
ENDMDL
MODEL 6
REMARK VINA RESULT:      -9.3      2.211     11.545
REMARK  9 active torsions:
REMARK  status: ('A' for Active; 'I' for Inactive)
REMARK    1  A    between atoms: C_3  and  N_4 
REMARK       I    between atoms: N_4  and  C_5 
REMARK    2  A    between atoms: C_5  and  C_6 
REMARK    3  A    between atoms: C_13  and  C_14 
REMARK    4  A    between atoms: C_14  and  O_15 
REMARK    5  A    between atoms: O_15  and  C_16 
REMARK    6  A    between atoms: C_16  and  C_17 
REMARK       I    between atoms: C_17  and  N_18 
REMARK    7  A    between atoms: N_18  and  C_19 
REMARK    8  A    between atoms: C_19  and  C_20 
REMARK    9  A    between atoms: C_22  and  O_23 
ROOT
HETATM    1  C   UNL     1       7.808  28.729  57.472  1.00  0.00     0.293 C 
HETATM    2  O   UNL     1       7.889  28.204  58.573  1.00  0.00    -0.259 OA
ENDROOT
BRANCH   1   3
HETATM    3  C   UNL     1       7.717  27.961  56.206  1.00  0.00     0.041 A 
HETATM    4  C   UNL     1       7.815  26.564  56.283  1.00  0.00     0.047 A 
HETATM    5  C   UNL     1       7.734  25.764  55.138  1.00  0.00     0.042 A 
HETATM    6  C   UNL     1       7.572  26.386  53.882  1.00  0.00    -0.035 A 
HETATM    7  C   UNL     1       7.498  25.609  52.593  1.00  0.00     0.050 C 
HETATM    8  C   UNL     1       7.491  27.790  53.811  1.00  0.00     0.010 A 
HETATM    9  C   UNL     1       7.553  28.573  54.964  1.00  0.00     0.018 A 
BRANCH   5  10
HETATM   10  N   UNL     1       7.827  24.356  55.204  1.00  0.00    -0.321 N 
HETATM   11  C   UNL     1       8.632  23.593  56.036  1.00  0.00     0.279 C 
HETATM   12  O   UNL     1       9.362  24.035  56.918  1.00  0.00    -0.265 OA
HETATM   13  H   UNL     1       7.202  23.812  54.621  1.00  0.00     0.169 HD
BRANCH  11  14
HETATM   14  C   UNL     1       8.497  22.167  55.799  1.00  0.00     0.142 A 
HETATM   15  O   UNL     1       8.587  21.679  54.519  1.00  0.00    -0.317 OA
HETATM   16  C   UNL     1       8.432  20.332  54.594  1.00  0.00     0.143 A 
HETATM   17  C   UNL     1       8.234  19.939  55.897  1.00  0.00     0.027 A 
HETATM   18  C   UNL     1       8.276  21.121  56.675  1.00  0.00     0.045 A 
ENDBRANCH  11  14
ENDBRANCH   5  10
ENDBRANCH   1   3
BRANCH   1  19
HETATM   19  O   UNL     1       7.725  30.062  57.248  1.00  0.00    -0.308 OA
BRANCH  19  20
HETATM   20  C   UNL     1       7.010  30.805  58.240  1.00  0.00     0.281 C 
BRANCH  20  21
HETATM   21  C   UNL     1       7.890  31.456  59.314  1.00  0.00     0.242 C 
HETATM   22  N   UNL     1       7.774  30.895  60.564  1.00  0.00    -0.355 N 
HETATM   23  H   UNL     1       7.074  30.167  60.705  1.00  0.00     0.162 HD
HETATM   24  O   UNL     1       8.661  32.378  59.055  1.00  0.00    -0.271 OA
BRANCH  22  25
HETATM   25  C   UNL     1       8.420  31.448  61.729  1.00  0.00     0.161 C 
BRANCH  25  26
HETATM   26  C   UNL     1       7.428  32.081  62.674  1.00  0.00    -0.038 A 
HETATM   27  C   UNL     1       7.854  32.690  63.869  1.00  0.00     0.045 A 
HETATM   28  C   UNL     1       6.928  33.276  64.737  1.00  0.00     0.068 A 
HETATM   29  C   UNL     1       5.572  33.263  64.402  1.00  0.00     0.037 A 
HETATM   30  C   UNL     1       5.136  32.656  63.226  1.00  0.00     0.003 A 
HETATM   31  C   UNL     1       6.060  32.063  62.368  1.00  0.00     0.009 A 
BRANCH  28  32
HETATM   32  O   UNL     1       7.215  33.895  65.923  1.00  0.00    -0.356 OA
HETATM   33  C   UNL     1       6.113  34.187  66.772  1.00  0.00     0.210 C 
ENDBRANCH  28  32
ENDBRANCH  25  26
ENDBRANCH  22  25
ENDBRANCH  20  21
ENDBRANCH  19  20
ENDBRANCH   1  19
TORSDOF 9
ENDMDL
MODEL 7
REMARK VINA RESULT:      -9.3      2.131     10.953
REMARK  9 active torsions:
REMARK  status: ('A' for Active; 'I' for Inactive)
REMARK    1  A    between atoms: C_3  and  N_4 
REMARK       I    between atoms: N_4  and  C_5 
REMARK    2  A    between atoms: C_5  and  C_6 
REMARK    3  A    between atoms: C_13  and  C_14 
REMARK    4  A    between atoms: C_14  and  O_15 
REMARK    5  A    between atoms: O_15  and  C_16 
REMARK    6  A    between atoms: C_16  and  C_17 
REMARK       I    between atoms: C_17  and  N_18 
REMARK    7  A    between atoms: N_18  and  C_19 
REMARK    8  A    between atoms: C_19  and  C_20 
REMARK    9  A    between atoms: C_22  and  O_23 
ROOT
HETATM    1  C   UNL     1       7.411  28.253  57.353  1.00  0.00     0.293 C 
HETATM    2  O   UNL     1       6.844  29.035  58.102  1.00  0.00    -0.259 OA
ENDROOT
BRANCH   1   3
HETATM    3  C   UNL     1       6.730  27.554  56.235  1.00  0.00     0.041 A 
HETATM    4  C   UNL     1       7.193  26.277  55.886  1.00  0.00     0.047 A 
HETATM    5  C   UNL     1       6.603  25.547  54.848  1.00  0.00     0.042 A 
HETATM    6  C   UNL     1       5.535  26.126  54.130  1.00  0.00    -0.035 A 
HETATM    7  C   UNL     1       4.854  25.426  52.982  1.00  0.00     0.050 C 
HETATM    8  C   UNL     1       5.087  27.415  54.475  1.00  0.00     0.010 A 
HETATM    9  C   UNL     1       5.673  28.123  55.526  1.00  0.00     0.018 A 
BRANCH   5  10
HETATM   10  N   UNL     1       7.058  24.258  54.492  1.00  0.00    -0.321 N 
HETATM   11  C   UNL     1       7.582  23.279  55.321  1.00  0.00     0.279 C 
HETATM   12  O   UNL     1       7.672  23.358  56.542  1.00  0.00    -0.265 OA
HETATM   13  H   UNL     1       6.951  23.969  53.526  1.00  0.00     0.169 HD
BRANCH  11  14
HETATM   14  C   UNL     1       7.987  22.086  54.600  1.00  0.00     0.142 A 
HETATM   15  O   UNL     1       8.441  20.993  55.297  1.00  0.00    -0.317 OA
HETATM   16  C   UNL     1       8.740  20.035  54.383  1.00  0.00     0.143 A 
HETATM   17  C   UNL     1       8.498  20.488  53.108  1.00  0.00     0.027 A 
HETATM   18  C   UNL     1       8.012  21.810  53.246  1.00  0.00     0.045 A 
ENDBRANCH  11  14
ENDBRANCH   5  10
ENDBRANCH   1   3
BRANCH   1  19
HETATM   19  O   UNL     1       8.732  27.958  57.388  1.00  0.00    -0.308 OA
BRANCH  19  20
HETATM   20  C   UNL     1       9.570  28.820  56.612  1.00  0.00     0.281 C 
BRANCH  20  21
HETATM   21  C   UNL     1      10.290  29.910  57.415  1.00  0.00     0.242 C 
HETATM   22  N   UNL     1       9.499  30.560  58.333  1.00  0.00    -0.355 N 
HETATM   23  H   UNL     1       8.504  30.339  58.356  1.00  0.00     0.162 HD
HETATM   24  O   UNL     1      11.488  30.146  57.266  1.00  0.00    -0.271 OA
BRANCH  22  25
HETATM   25  C   UNL     1       9.958  31.698  59.089  1.00  0.00     0.161 C 
BRANCH  25  26
HETATM   26  C   UNL     1       9.056  31.993  60.264  1.00  0.00    -0.038 A 
HETATM   27  C   UNL     1       7.768  32.525  60.071  1.00  0.00     0.045 A 
HETATM   28  C   UNL     1       6.939  32.792  61.164  1.00  0.00     0.068 A 
HETATM   29  C   UNL     1       7.397  32.518  62.455  1.00  0.00     0.037 A 
HETATM   30  C   UNL     1       8.674  31.999  62.660  1.00  0.00     0.003 A 
HETATM   31  C   UNL     1       9.502  31.743  61.568  1.00  0.00     0.009 A 
BRANCH  28  32
HETATM   32  O   UNL     1       5.673  33.308  61.108  1.00  0.00    -0.356 OA
HETATM   33  C   UNL     1       4.608  32.373  61.005  1.00  0.00     0.210 C 
ENDBRANCH  28  32
ENDBRANCH  25  26
ENDBRANCH  22  25
ENDBRANCH  20  21
ENDBRANCH  19  20
ENDBRANCH   1  19
TORSDOF 9
ENDMDL
MODEL 8
REMARK VINA RESULT:      -9.2      2.646     10.846
REMARK  9 active torsions:
REMARK  status: ('A' for Active; 'I' for Inactive)
REMARK    1  A    between atoms: C_3  and  N_4 
REMARK       I    between atoms: N_4  and  C_5 
REMARK    2  A    between atoms: C_5  and  C_6 
REMARK    3  A    between atoms: C_13  and  C_14 
REMARK    4  A    between atoms: C_14  and  O_15 
REMARK    5  A    between atoms: O_15  and  C_16 
REMARK    6  A    between atoms: C_16  and  C_17 
REMARK       I    between atoms: C_17  and  N_18 
REMARK    7  A    between atoms: N_18  and  C_19 
REMARK    8  A    between atoms: C_19  and  C_20 
REMARK    9  A    between atoms: C_22  and  O_23 
ROOT
HETATM    1  C   UNL     1       5.399  28.841  56.503  1.00  0.00     0.293 C 
HETATM    2  O   UNL     1       6.054  28.589  57.504  1.00  0.00    -0.259 OA
ENDROOT
BRANCH   1   3
HETATM    3  C   UNL     1       5.220  27.884  55.383  1.00  0.00     0.041 A 
HETATM    4  C   UNL     1       5.819  26.622  55.502  1.00  0.00     0.047 A 
HETATM    5  C   UNL     1       5.695  25.658  54.495  1.00  0.00     0.042 A 
HETATM    6  C   UNL     1       4.968  25.981  53.330  1.00  0.00    -0.035 A 
HETATM    7  C   UNL     1       4.800  25.017  52.183  1.00  0.00     0.050 C 
HETATM    8  C   UNL     1       4.383  27.256  53.210  1.00  0.00     0.010 A 
HETATM    9  C   UNL     1       4.499  28.199  54.232  1.00  0.00     0.018 A 
BRANCH   5  10
HETATM   10  N   UNL     1       6.291  24.383  54.607  1.00  0.00    -0.321 N 
HETATM   11  C   UNL     1       7.430  23.914  53.971  1.00  0.00     0.279 C 
HETATM   12  O   UNL     1       8.158  24.579  53.241  1.00  0.00    -0.265 OA
HETATM   13  H   UNL     1       5.887  23.728  55.266  1.00  0.00     0.169 HD
BRANCH  11  14
HETATM   14  C   UNL     1       7.728  22.530  54.292  1.00  0.00     0.142 A 
HETATM   15  O   UNL     1       7.391  22.032  55.526  1.00  0.00    -0.317 OA
HETATM   16  C   UNL     1       7.776  20.730  55.549  1.00  0.00     0.143 A 
HETATM   17  C   UNL     1       8.364  20.378  54.357  1.00  0.00     0.027 A 
HETATM   18  C   UNL     1       8.334  21.537  53.546  1.00  0.00     0.045 A 
ENDBRANCH  11  14
ENDBRANCH   5  10
ENDBRANCH   1   3
BRANCH   1  19
HETATM   19  O   UNL     1       4.700  29.981  56.294  1.00  0.00    -0.308 OA
BRANCH  19  20
HETATM   20  C   UNL     1       3.678  30.255  57.258  1.00  0.00     0.281 C 
BRANCH  20  21
HETATM   21  C   UNL     1       3.977  31.431  58.195  1.00  0.00     0.242 C 
HETATM   22  N   UNL     1       5.082  31.257  58.996  1.00  0.00    -0.355 N 
HETATM   23  H   UNL     1       5.559  30.356  58.972  1.00  0.00     0.162 HD
HETATM   24  O   UNL     1       3.298  32.457  58.193  1.00  0.00    -0.271 OA
BRANCH  22  25
HETATM   25  C   UNL     1       5.449  32.191  60.031  1.00  0.00     0.161 C 
BRANCH  25  26
HETATM   26  C   UNL     1       6.917  32.106  60.370  1.00  0.00    -0.038 A 
HETATM   27  C   UNL     1       7.897  32.151  59.361  1.00  0.00     0.045 A 
HETATM   28  C   UNL     1       9.254  32.073  59.684  1.00  0.00     0.068 A 
HETATM   29  C   UNL     1       9.634  31.961  61.024  1.00  0.00     0.037 A 
HETATM   30  C   UNL     1       8.674  31.908  62.033  1.00  0.00     0.003 A 
HETATM   31  C   UNL     1       7.321  31.974  61.706  1.00  0.00     0.009 A 
BRANCH  28  32
HETATM   32  O   UNL     1      10.297  32.104  58.799  1.00  0.00    -0.356 OA
HETATM   33  C   UNL     1      10.410  31.002  57.909  1.00  0.00     0.210 C 
ENDBRANCH  28  32
ENDBRANCH  25  26
ENDBRANCH  22  25
ENDBRANCH  20  21
ENDBRANCH  19  20
ENDBRANCH   1  19
TORSDOF 9
ENDMDL
MODEL 9
REMARK VINA RESULT:      -8.9      5.582     10.005
REMARK  9 active torsions:
REMARK  status: ('A' for Active; 'I' for Inactive)
REMARK    1  A    between atoms: C_3  and  N_4 
REMARK       I    between atoms: N_4  and  C_5 
REMARK    2  A    between atoms: C_5  and  C_6 
REMARK    3  A    between atoms: C_13  and  C_14 
REMARK    4  A    between atoms: C_14  and  O_15 
REMARK    5  A    between atoms: O_15  and  C_16 
REMARK    6  A    between atoms: C_16  and  C_17 
REMARK       I    between atoms: C_17  and  N_18 
REMARK    7  A    between atoms: N_18  and  C_19 
REMARK    8  A    between atoms: C_19  and  C_20 
REMARK    9  A    between atoms: C_22  and  O_23 
ROOT
HETATM    1  C   UNL     1       4.357  28.402  55.544  1.00  0.00     0.293 C 
HETATM    2  O   UNL     1       3.721  29.217  56.195  1.00  0.00    -0.259 OA
ENDROOT
BRANCH   1   3
HETATM    3  C   UNL     1       5.503  27.634  56.093  1.00  0.00     0.041 A 
HETATM    4  C   UNL     1       5.767  26.373  55.539  1.00  0.00     0.047 A 
HETATM    5  C   UNL     1       6.832  25.587  55.995  1.00  0.00     0.042 A 
HETATM    6  C   UNL     1       7.637  26.073  57.046  1.00  0.00    -0.035 A 
HETATM    7  C   UNL     1       8.790  25.288  57.617  1.00  0.00     0.050 C 
HETATM    8  C   UNL     1       7.356  27.333  57.607  1.00  0.00     0.010 A 
HETATM    9  C   UNL     1       6.302  28.114  57.129  1.00  0.00     0.018 A 
BRANCH   5  10
HETATM   10  N   UNL     1       7.109  24.317  55.442  1.00  0.00    -0.321 N 
HETATM   11  C   UNL     1       7.692  24.027  54.218  1.00  0.00     0.279 C 
HETATM   12  O   UNL     1       8.132  24.857  53.429  1.00  0.00    -0.265 OA
HETATM   13  H   UNL     1       6.917  23.500  56.011  1.00  0.00     0.169 HD
BRANCH  11  14
HETATM   14  C   UNL     1       7.784  22.602  53.959  1.00  0.00     0.142 A 
HETATM   15  O   UNL     1       7.706  21.716  55.004  1.00  0.00    -0.317 OA
HETATM   16  C   UNL     1       7.816  20.469  54.477  1.00  0.00     0.143 A 
HETATM   17  C   UNL     1       7.973  20.531  53.113  1.00  0.00     0.027 A 
HETATM   18  C   UNL     1       7.952  21.906  52.777  1.00  0.00     0.045 A 
ENDBRANCH  11  14
ENDBRANCH   5  10
ENDBRANCH   1   3
BRANCH   1  19
HETATM   19  O   UNL     1       4.082  28.034  54.270  1.00  0.00    -0.308 OA
BRANCH  19  20
HETATM   20  C   UNL     1       4.292  29.049  53.283  1.00  0.00     0.281 C 
BRANCH  20  21
HETATM   21  C   UNL     1       4.981  28.566  52.001  1.00  0.00     0.242 C 
HETATM   22  N   UNL     1       4.471  27.398  51.484  1.00  0.00    -0.355 N 
HETATM   23  H   UNL     1       3.753  26.907  52.016  1.00  0.00     0.162 HD
HETATM   24  O   UNL     1       5.889  29.202  51.469  1.00  0.00    -0.271 OA
BRANCH  22  25
HETATM   25  C   UNL     1       5.068  26.718  50.361  1.00  0.00     0.161 C 
BRANCH  25  26
HETATM   26  C   UNL     1       4.136  26.670  49.174  1.00  0.00    -0.038 A 
HETATM   27  C   UNL     1       3.686  27.852  48.560  1.00  0.00     0.045 A 
HETATM   28  C   UNL     1       2.825  27.798  47.460  1.00  0.00     0.068 A 
HETATM   29  C   UNL     1       2.422  26.554  46.966  1.00  0.00     0.037 A 
HETATM   30  C   UNL     1       2.855  25.376  47.571  1.00  0.00     0.003 A 
HETATM   31  C   UNL     1       3.704  25.434  48.674  1.00  0.00     0.009 A 
BRANCH  28  32
HETATM   32  O   UNL     1       2.318  28.871  46.779  1.00  0.00    -0.356 OA
HETATM   33  C   UNL     1       0.906  28.915  46.620  1.00  0.00     0.210 C 
ENDBRANCH  28  32
ENDBRANCH  25  26
ENDBRANCH  22  25
ENDBRANCH  20  21
ENDBRANCH  19  20
ENDBRANCH   1  19
TORSDOF 9
ENDMDL
MODEL 10
REMARK VINA RESULT:      -8.8      2.051     11.187
REMARK  9 active torsions:
REMARK  status: ('A' for Active; 'I' for Inactive)
REMARK    1  A    between atoms: C_3  and  N_4 
REMARK       I    between atoms: N_4  and  C_5 
REMARK    2  A    between atoms: C_5  and  C_6 
REMARK    3  A    between atoms: C_13  and  C_14 
REMARK    4  A    between atoms: C_14  and  O_15 
REMARK    5  A    between atoms: O_15  and  C_16 
REMARK    6  A    between atoms: C_16  and  C_17 
REMARK       I    between atoms: C_17  and  N_18 
REMARK    7  A    between atoms: N_18  and  C_19 
REMARK    8  A    between atoms: C_19  and  C_20 
REMARK    9  A    between atoms: C_22  and  O_23 
ROOT
HETATM    1  C   UNL     1       9.328  30.210  57.847  1.00  0.00     0.293 C 
HETATM    2  O   UNL     1      10.484  29.895  57.607  1.00  0.00    -0.259 OA
ENDROOT
BRANCH   1   3
HETATM    3  C   UNL     1       8.160  29.365  57.492  1.00  0.00     0.041 A 
HETATM    4  C   UNL     1       8.404  28.188  56.769  1.00  0.00     0.047 A 
HETATM    5  C   UNL     1       7.361  27.332  56.399  1.00  0.00     0.042 A 
HETATM    6  C   UNL     1       6.039  27.678  56.748  1.00  0.00    -0.035 A 
HETATM    7  C   UNL     1       4.850  26.831  56.373  1.00  0.00     0.050 C 
HETATM    8  C   UNL     1       5.801  28.869  57.459  1.00  0.00     0.010 A 
HETATM    9  C   UNL     1       6.853  29.704  57.838  1.00  0.00     0.018 A 
BRANCH   5  10
HETATM   10  N   UNL     1       7.596  26.142  55.675  1.00  0.00    -0.321 N 
HETATM   11  C   UNL     1       7.876  24.880  56.174  1.00  0.00     0.279 C 
HETATM   12  O   UNL     1       7.897  24.576  57.363  1.00  0.00    -0.265 OA
HETATM   13  H   UNL     1       7.502  26.176  54.666  1.00  0.00     0.169 HD
BRANCH  11  14
HETATM   14  C   UNL     1       8.103  23.896  55.130  1.00  0.00     0.142 A 
HETATM   15  O   UNL     1       9.113  22.977  55.272  1.00  0.00    -0.317 OA
HETATM   16  C   UNL     1       9.093  22.191  54.165  1.00  0.00     0.143 A 
HETATM   17  C   UNL     1       8.096  22.588  53.307  1.00  0.00     0.027 A 
HETATM   18  C   UNL     1       7.456  23.687  53.927  1.00  0.00     0.045 A 
ENDBRANCH  11  14
ENDBRANCH   5  10
ENDBRANCH   1   3
BRANCH   1  19
HETATM   19  O   UNL     1       8.945  31.324  58.514  1.00  0.00    -0.308 OA
BRANCH  19  20
HETATM   20  C   UNL     1       9.778  31.690  59.619  1.00  0.00     0.281 C 
BRANCH  20  21
HETATM   21  C   UNL     1       9.284  31.202  60.986  1.00  0.00     0.242 C 
HETATM   22  N   UNL     1       8.535  32.121  61.684  1.00  0.00    -0.355 N 
HETATM   23  H   UNL     1       8.435  33.057  61.296  1.00  0.00     0.162 HD
HETATM   24  O   UNL     1       9.515  30.066  61.396  1.00  0.00    -0.271 OA
BRANCH  22  25
HETATM   25  C   UNL     1       8.092  31.897  63.038  1.00  0.00     0.161 C 
BRANCH  25  26
HETATM   26  C   UNL     1       7.223  33.025  63.539  1.00  0.00    -0.038 A 
HETATM   27  C   UNL     1       6.439  33.783  62.650  1.00  0.00     0.045 A 
HETATM   28  C   UNL     1       5.636  34.824  63.123  1.00  0.00     0.068 A 
HETATM   29  C   UNL     1       5.609  35.101  64.492  1.00  0.00     0.037 A 
HETATM   30  C   UNL     1       6.387  34.363  65.382  1.00  0.00     0.003 A 
HETATM   31  C   UNL     1       7.195  33.333  64.906  1.00  0.00     0.009 A 
BRANCH  28  32
HETATM   32  O   UNL     1       4.833  35.632  62.365  1.00  0.00    -0.356 OA
HETATM   33  C   UNL     1       3.960  36.506  63.069  1.00  0.00     0.210 C 
ENDBRANCH  28  32
ENDBRANCH  25  26
ENDBRANCH  22  25
ENDBRANCH  20  21
ENDBRANCH  19  20
ENDBRANCH   1  19
TORSDOF 9
ENDMDL
