MODEL 1
REMARK VINA RESULT:      -9.7      0.000      0.000
REMARK  5 active torsions:
REMARK  status: ('A' for Active; 'I' for Inactive)
REMARK    1  A    between atoms: C_5  and  C_6 
REMARK    2  A    between atoms: C_9  and  O_10 
REMARK    3  A    between atoms: N_14  and  C_15 
REMARK    4  A    between atoms: C_15  and  C_16 
REMARK       I    between atoms: C_16  and  N_17 
REMARK    5  A    between atoms: N_17  and  C_18 
ROOT
HETATM    1  C   UNL     1       7.665  30.659  57.913  1.00  0.00     0.156 C 
HETATM    2  N   UNL     1       6.587  29.957  57.258  1.00  0.00    -0.346 N 
HETATM    3  C   UNL     1       6.517  28.623  57.048  1.00  0.00     0.113 A 
HETATM    4  C   UNL     1       5.386  28.327  56.338  1.00  0.00     0.014 A 
HETATM    5  C   UNL     1       5.288  26.865  56.100  1.00  0.00     0.158 A 
HETATM    6  N   UNL     1       6.475  26.408  56.870  1.00  0.00    -0.325 N 
HETATM    7  C   UNL     1       7.223  27.449  57.428  1.00  0.00     0.272 A 
HETATM    8  O   UNL     1       8.173  27.354  58.185  1.00  0.00    -0.266 OA
HETATM    9  C   UNL     1       4.643  29.513  56.190  1.00  0.00     0.002 A 
HETATM   10  C   UNL     1       5.418  30.535  56.775  1.00  0.00     0.045 A 
HETATM   11  C   UNL     1       3.381  29.833  55.655  1.00  0.00     0.014 A 
HETATM   12  C   UNL     1       2.927  31.154  55.709  1.00  0.00     0.001 A 
HETATM   13  C   UNL     1       3.711  32.152  56.282  1.00  0.00     0.002 A 
HETATM   14  C   UNL     1       4.969  31.864  56.820  1.00  0.00     0.030 A 
ENDROOT
BRANCH   6  15
HETATM   15  C   UNL     1       6.584  25.032  57.329  1.00  0.00     0.229 C 
BRANCH  15  16
HETATM   16  C   UNL     1       7.882  24.362  56.848  1.00  0.00     0.235 C 
HETATM   17  N   UNL     1       7.753  23.614  55.695  1.00  0.00    -0.355 N 
HETATM   18  H   UNL     1       6.814  23.350  55.421  1.00  0.00     0.162 HD
HETATM   19  O   UNL     1       8.929  24.439  57.485  1.00  0.00    -0.272 OA
BRANCH  17  20
HETATM   20  C   UNL     1       8.867  22.938  55.045  1.00  0.00     0.084 C 
HETATM   21  C   UNL     1       9.012  21.492  55.533  1.00  0.00     0.025 C 
HETATM   22  C   UNL     1       7.917  20.570  54.995  1.00  0.00     0.002 C 
HETATM   23  C   UNL     1       7.802  20.650  53.475  1.00  0.00     0.000 C 
HETATM   24  C   UNL     1       7.595  22.084  53.002  1.00  0.00     0.002 C 
HETATM   25  C   UNL     1       8.697  23.008  53.521  1.00  0.00     0.025 C 
ENDBRANCH  17  20
ENDBRANCH  15  16
ENDBRANCH   6  15
BRANCH   5  26
HETATM   26  C   UNL     1       5.404  26.667  54.603  1.00  0.00    -0.030 A 
HETATM   27  C   UNL     1       5.721  27.714  53.723  1.00  0.00     0.012 A 
HETATM   28  C   UNL     1       5.781  27.499  52.344  1.00  0.00     0.037 A 
HETATM   29  C   UNL     1       5.522  26.238  51.805  1.00  0.00     0.068 A 
HETATM   30  C   UNL     1       5.209  25.188  52.665  1.00  0.00     0.037 A 
HETATM   31  C   UNL     1       5.155  25.400  54.050  1.00  0.00     0.012 A 
BRANCH  29  32
HETATM   32  O   UNL     1       5.600  26.172  50.442  1.00  0.00    -0.356 OA
HETATM   33  C   UNL     1       4.703  26.991  49.705  1.00  0.00     0.210 C 
ENDBRANCH  29  32
ENDBRANCH   5  26
TORSDOF 5
ENDMDL
MODEL 2
REMARK VINA RESULT:      -9.6      2.402      8.139
REMARK  5 active torsions:
REMARK  status: ('A' for Active; 'I' for Inactive)
REMARK    1  A    between atoms: C_5  and  C_6 
REMARK    2  A    between atoms: C_9  and  O_10 
REMARK    3  A    between atoms: N_14  and  C_15 
REMARK    4  A    between atoms: C_15  and  C_16 
REMARK       I    between atoms: C_16  and  N_17 
REMARK    5  A    between atoms: N_17  and  C_18 
ROOT
HETATM    1  C   UNL     1       5.574  25.578  51.532  1.00  0.00     0.156 C 
HETATM    2  N   UNL     1       6.042  25.583  52.897  1.00  0.00    -0.346 N 
HETATM    3  C   UNL     1       5.668  26.452  53.863  1.00  0.00     0.113 A 
HETATM    4  C   UNL     1       6.369  26.195  55.010  1.00  0.00     0.014 A 
HETATM    5  C   UNL     1       5.970  27.137  56.086  1.00  0.00     0.158 A 
HETATM    6  N   UNL     1       4.884  27.871  55.383  1.00  0.00    -0.325 N 
HETATM    7  C   UNL     1       4.706  27.481  54.053  1.00  0.00     0.272 A 
HETATM    8  O   UNL     1       3.828  27.840  53.288  1.00  0.00    -0.266 OA
HETATM    9  C   UNL     1       7.137  25.036  54.799  1.00  0.00     0.002 A 
HETATM   10  C   UNL     1       6.922  24.663  53.456  1.00  0.00     0.045 A 
HETATM   11  C   UNL     1       7.969  24.236  55.606  1.00  0.00     0.014 A 
HETATM   12  C   UNL     1       8.566  23.097  55.058  1.00  0.00     0.001 A 
HETATM   13  C   UNL     1       8.349  22.749  53.727  1.00  0.00     0.002 A 
HETATM   14  C   UNL     1       7.530  23.526  52.903  1.00  0.00     0.030 A 
ENDROOT
BRANCH   6  15
HETATM   15  C   UNL     1       3.869  28.598  56.130  1.00  0.00     0.229 C 
BRANCH  15  16
HETATM   16  C   UNL     1       4.121  30.115  56.126  1.00  0.00     0.235 C 
HETATM   17  N   UNL     1       4.652  30.615  57.297  1.00  0.00    -0.355 N 
HETATM   18  H   UNL     1       4.583  30.030  58.120  1.00  0.00     0.162 HD
HETATM   19  O   UNL     1       3.808  30.824  55.173  1.00  0.00    -0.272 OA
BRANCH  17  20
HETATM   20  C   UNL     1       5.011  32.014  57.484  1.00  0.00     0.084 C 
HETATM   21  C   UNL     1       3.916  32.782  58.232  1.00  0.00     0.025 C 
HETATM   22  C   UNL     1       3.846  32.424  59.717  1.00  0.00     0.002 C 
HETATM   23  C   UNL     1       5.205  32.561  60.400  1.00  0.00     0.000 C 
HETATM   24  C   UNL     1       6.275  31.743  59.686  1.00  0.00     0.002 C 
HETATM   25  C   UNL     1       6.364  32.110  58.205  1.00  0.00     0.025 C 
ENDBRANCH  17  20
ENDBRANCH  15  16
ENDBRANCH   6  15
BRANCH   5  26
HETATM   26  C   UNL     1       7.192  27.978  56.392  1.00  0.00    -0.030 A 
HETATM   27  C   UNL     1       7.554  28.340  57.699  1.00  0.00     0.012 A 
HETATM   28  C   UNL     1       8.668  29.150  57.937  1.00  0.00     0.037 A 
HETATM   29  C   UNL     1       9.446  29.623  56.880  1.00  0.00     0.068 A 
HETATM   30  C   UNL     1       9.102  29.269  55.577  1.00  0.00     0.037 A 
HETATM   31  C   UNL     1       7.989  28.452  55.336  1.00  0.00     0.012 A 
BRANCH  29  32
HETATM   32  O   UNL     1      10.495  30.416  57.253  1.00  0.00    -0.356 OA
HETATM   33  C   UNL     1      10.237  31.402  58.243  1.00  0.00     0.210 C 
ENDBRANCH  29  32
ENDBRANCH   5  26
TORSDOF 5
ENDMDL
MODEL 3
REMARK VINA RESULT:      -9.4      2.619      6.687
REMARK  5 active torsions:
REMARK  status: ('A' for Active; 'I' for Inactive)
REMARK    1  A    between atoms: C_5  and  C_6 
REMARK    2  A    between atoms: C_9  and  O_10 
REMARK    3  A    between atoms: N_14  and  C_15 
REMARK    4  A    between atoms: C_15  and  C_16 
REMARK       I    between atoms: C_16  and  N_17 
REMARK    5  A    between atoms: N_17  and  C_18 
ROOT
HETATM    1  C   UNL     1       3.880  29.205  56.216  1.00  0.00     0.156 C 
HETATM    2  N   UNL     1       5.138  28.626  55.810  1.00  0.00    -0.346 N 
HETATM    3  C   UNL     1       5.346  27.858  54.716  1.00  0.00     0.113 A 
HETATM    4  C   UNL     1       6.645  27.432  54.691  1.00  0.00     0.014 A 
HETATM    5  C   UNL     1       6.894  26.590  53.494  1.00  0.00     0.158 A 
HETATM    6  N   UNL     1       5.570  26.707  52.828  1.00  0.00    -0.325 N 
HETATM    7  C   UNL     1       4.634  27.449  53.555  1.00  0.00     0.272 A 
HETATM    8  O   UNL     1       3.519  27.786  53.197  1.00  0.00    -0.266 OA
HETATM    9  C   UNL     1       7.326  28.052  55.755  1.00  0.00     0.002 A 
HETATM   10  C   UNL     1       6.358  28.801  56.454  1.00  0.00     0.045 A 
HETATM   11  C   UNL     1       8.665  28.091  56.187  1.00  0.00     0.014 A 
HETATM   12  C   UNL     1       9.004  28.866  57.300  1.00  0.00     0.001 A 
HETATM   13  C   UNL     1       8.033  29.592  57.985  1.00  0.00     0.002 A 
HETATM   14  C   UNL     1       6.695  29.570  57.579  1.00  0.00     0.030 A 
ENDROOT
BRANCH   6  15
HETATM   15  C   UNL     1       5.423  26.437  51.406  1.00  0.00     0.229 C 
BRANCH  15  16
HETATM   16  C   UNL     1       5.012  27.692  50.618  1.00  0.00     0.235 C 
HETATM   17  N   UNL     1       3.769  27.619  50.024  1.00  0.00    -0.355 N 
HETATM   18  H   UNL     1       3.359  26.699  49.924  1.00  0.00     0.162 HD
HETATM   19  O   UNL     1       5.769  28.649  50.478  1.00  0.00    -0.272 OA
BRANCH  17  20
HETATM   20  C   UNL     1       3.171  28.715  49.274  1.00  0.00     0.084 C 
HETATM   21  C   UNL     1       3.672  28.747  47.825  1.00  0.00     0.025 C 
HETATM   22  C   UNL     1       3.094  27.619  46.970  1.00  0.00     0.002 C 
HETATM   23  C   UNL     1       1.570  27.574  47.043  1.00  0.00     0.000 C 
HETATM   24  C   UNL     1       1.081  27.478  48.484  1.00  0.00     0.002 C 
HETATM   25  C   UNL     1       1.640  28.614  49.340  1.00  0.00     0.025 C 
ENDBRANCH  17  20
ENDBRANCH  15  16
ENDBRANCH   6  15
BRANCH   5  26
HETATM   26  C   UNL     1       7.211  25.201  54.008  1.00  0.00    -0.030 A 
HETATM   27  C   UNL     1       6.830  24.761  55.286  1.00  0.00     0.012 A 
HETATM   28  C   UNL     1       7.175  23.484  55.738  1.00  0.00     0.037 A 
HETATM   29  C   UNL     1       7.912  22.616  54.932  1.00  0.00     0.068 A 
HETATM   30  C   UNL     1       8.295  23.036  53.660  1.00  0.00     0.037 A 
HETATM   31  C   UNL     1       7.945  24.314  53.202  1.00  0.00     0.012 A 
BRANCH  29  32
HETATM   32  O   UNL     1       8.193  21.406  55.503  1.00  0.00    -0.356 OA
HETATM   33  C   UNL     1       8.283  20.288  54.632  1.00  0.00     0.210 C 
ENDBRANCH  29  32
ENDBRANCH   5  26
TORSDOF 5
ENDMDL
MODEL 4
REMARK VINA RESULT:      -9.3      2.730      7.585
REMARK  5 active torsions:
REMARK  status: ('A' for Active; 'I' for Inactive)
REMARK    1  A    between atoms: C_5  and  C_6 
REMARK    2  A    between atoms: C_9  and  O_10 
REMARK    3  A    between atoms: N_14  and  C_15 
REMARK    4  A    between atoms: C_15  and  C_16 
REMARK       I    between atoms: C_16  and  N_17 
REMARK    5  A    between atoms: N_17  and  C_18 
ROOT
HETATM    1  C   UNL     1       8.020  22.980  52.101  1.00  0.00     0.156 C 
HETATM    2  N   UNL     1       7.639  23.566  53.363  1.00  0.00    -0.346 N 
HETATM    3  C   UNL     1       6.885  24.676  53.530  1.00  0.00     0.113 A 
HETATM    4  C   UNL     1       6.788  24.972  54.862  1.00  0.00     0.014 A 
HETATM    5  C   UNL     1       5.960  26.187  55.068  1.00  0.00     0.158 A 
HETATM    6  N   UNL     1       5.543  26.443  53.663  1.00  0.00    -0.325 N 
HETATM    7  C   UNL     1       6.100  25.557  52.737  1.00  0.00     0.272 A 
HETATM    8  O   UNL     1       5.848  25.476  51.547  1.00  0.00    -0.266 OA
HETATM    9  C   UNL     1       7.411  23.937  55.583  1.00  0.00     0.002 A 
HETATM   10  C   UNL     1       7.947  23.057  54.620  1.00  0.00     0.045 A 
HETATM   11  C   UNL     1       7.555  23.625  56.948  1.00  0.00     0.014 A 
HETATM   12  C   UNL     1       8.227  22.457  57.319  1.00  0.00     0.001 A 
HETATM   13  C   UNL     1       8.758  21.605  56.354  1.00  0.00     0.002 A 
HETATM   14  C   UNL     1       8.633  21.890  54.991  1.00  0.00     0.030 A 
ENDROOT
BRANCH   6  15
HETATM   15  C   UNL     1       4.370  27.251  53.368  1.00  0.00     0.229 C 
BRANCH  15  16
HETATM   16  C   UNL     1       4.598  28.185  52.168  1.00  0.00     0.235 C 
HETATM   17  N   UNL     1       3.956  27.801  51.008  1.00  0.00    -0.355 N 
HETATM   18  H   UNL     1       3.628  26.844  50.959  1.00  0.00     0.162 HD
HETATM   19  O   UNL     1       5.348  29.156  52.231  1.00  0.00    -0.272 OA
BRANCH  17  20
HETATM   20  C   UNL     1       4.001  28.569  49.772  1.00  0.00     0.084 C 
HETATM   21  C   UNL     1       5.073  28.037  48.814  1.00  0.00     0.025 C 
HETATM   22  C   UNL     1       4.689  26.704  48.172  1.00  0.00     0.002 C 
HETATM   23  C   UNL     1       3.315  26.767  47.509  1.00  0.00     0.000 C 
HETATM   24  C   UNL     1       2.243  27.237  48.486  1.00  0.00     0.002 C 
HETATM   25  C   UNL     1       2.612  28.579  49.117  1.00  0.00     0.025 C 
ENDBRANCH  17  20
ENDBRANCH  15  16
ENDBRANCH   6  15
BRANCH   5  26
HETATM   26  C   UNL     1       6.883  27.240  55.645  1.00  0.00    -0.030 A 
HETATM   27  C   UNL     1       7.690  28.061  54.842  1.00  0.00     0.012 A 
HETATM   28  C   UNL     1       8.557  28.995  55.415  1.00  0.00     0.037 A 
HETATM   29  C   UNL     1       8.647  29.131  56.800  1.00  0.00     0.068 A 
HETATM   30  C   UNL     1       7.850  28.326  57.611  1.00  0.00     0.037 A 
HETATM   31  C   UNL     1       6.974  27.393  57.038  1.00  0.00     0.012 A 
BRANCH  29  32
HETATM   32  O   UNL     1       9.545  30.070  57.225  1.00  0.00    -0.356 OA
HETATM   33  C   UNL     1      10.917  29.815  56.961  1.00  0.00     0.210 C 
ENDBRANCH  29  32
ENDBRANCH   5  26
TORSDOF 5
ENDMDL
MODEL 5
REMARK VINA RESULT:      -8.9      3.413      6.896
REMARK  5 active torsions:
REMARK  status: ('A' for Active; 'I' for Inactive)
REMARK    1  A    between atoms: C_5  and  C_6 
REMARK    2  A    between atoms: C_9  and  O_10 
REMARK    3  A    between atoms: N_14  and  C_15 
REMARK    4  A    between atoms: C_15  and  C_16 
REMARK       I    between atoms: C_16  and  N_17 
REMARK    5  A    between atoms: N_17  and  C_18 
ROOT
HETATM    1  C   UNL     1       3.964  32.905  61.666  1.00  0.00     0.156 C 
HETATM    2  N   UNL     1       5.108  32.490  60.890  1.00  0.00    -0.346 N 
HETATM    3  C   UNL     1       5.127  32.267  59.557  1.00  0.00     0.113 A 
HETATM    4  C   UNL     1       6.364  31.820  59.181  1.00  0.00     0.014 A 
HETATM    5  C   UNL     1       6.406  31.572  57.718  1.00  0.00     0.158 A 
HETATM    6  N   UNL     1       5.046  32.046  57.346  1.00  0.00    -0.325 N 
HETATM    7  C   UNL     1       4.270  32.449  58.436  1.00  0.00     0.272 A 
HETATM    8  O   UNL     1       3.169  32.972  58.408  1.00  0.00    -0.266 OA
HETATM    9  C   UNL     1       7.205  31.873  60.308  1.00  0.00     0.002 A 
HETATM   10  C   UNL     1       6.394  32.295  61.381  1.00  0.00     0.045 A 
HETATM   11  C   UNL     1       8.574  31.641  60.535  1.00  0.00     0.014 A 
HETATM   12  C   UNL     1       9.099  31.830  61.817  1.00  0.00     0.001 A 
HETATM   13  C   UNL     1       8.281  32.239  62.868  1.00  0.00     0.002 A 
HETATM   14  C   UNL     1       6.917  32.474  62.671  1.00  0.00     0.030 A 
ENDROOT
BRANCH   6  15
HETATM   15  C   UNL     1       4.738  32.433  55.978  1.00  0.00     0.229 C 
BRANCH  15  16
HETATM   16  C   UNL     1       3.814  31.418  55.284  1.00  0.00     0.235 C 
HETATM   17  N   UNL     1       4.404  30.706  54.261  1.00  0.00    -0.355 N 
HETATM   18  H   UNL     1       5.268  31.075  53.881  1.00  0.00     0.162 HD
HETATM   19  O   UNL     1       2.627  31.309  55.581  1.00  0.00    -0.272 OA
BRANCH  17  20
HETATM   20  C   UNL     1       3.721  29.664  53.507  1.00  0.00     0.084 C 
HETATM   21  C   UNL     1       3.986  29.790  52.002  1.00  0.00     0.025 C 
HETATM   22  C   UNL     1       5.406  29.379  51.612  1.00  0.00     0.002 C 
HETATM   23  C   UNL     1       5.761  27.991  52.138  1.00  0.00     0.000 C 
HETATM   24  C   UNL     1       5.555  27.893  53.645  1.00  0.00     0.002 C 
HETATM   25  C   UNL     1       4.131  28.284  54.041  1.00  0.00     0.025 C 
ENDBRANCH  17  20
ENDBRANCH  15  16
ENDBRANCH   6  15
BRANCH   5  26
HETATM   26  C   UNL     1       6.616  30.083  57.543  1.00  0.00    -0.030 A 
HETATM   27  C   UNL     1       5.550  29.175  57.437  1.00  0.00     0.012 A 
HETATM   28  C   UNL     1       5.785  27.804  57.315  1.00  0.00     0.037 A 
HETATM   29  C   UNL     1       7.085  27.300  57.301  1.00  0.00     0.068 A 
HETATM   30  C   UNL     1       8.155  28.187  57.403  1.00  0.00     0.037 A 
HETATM   31  C   UNL     1       7.922  29.565  57.518  1.00  0.00     0.012 A 
BRANCH  29  32
HETATM   32  O   UNL     1       7.170  25.940  57.193  1.00  0.00    -0.356 OA
HETATM   33  C   UNL     1       5.951  25.229  57.030  1.00  0.00     0.210 C 
ENDBRANCH  29  32
ENDBRANCH   5  26
TORSDOF 5
ENDMDL
MODEL 6
REMARK VINA RESULT:      -8.9      2.179      8.065
REMARK  5 active torsions:
REMARK  status: ('A' for Active; 'I' for Inactive)
REMARK    1  A    between atoms: C_5  and  C_6 
REMARK    2  A    between atoms: C_9  and  O_10 
REMARK    3  A    between atoms: N_14  and  C_15 
REMARK    4  A    between atoms: C_15  and  C_16 
REMARK       I    between atoms: C_16  and  N_17 
REMARK    5  A    between atoms: N_17  and  C_18 
ROOT
HETATM    1  C   UNL     1       7.945  24.483  51.907  1.00  0.00     0.156 C 
HETATM    2  N   UNL     1       7.671  24.905  53.260  1.00  0.00    -0.346 N 
HETATM    3  C   UNL     1       7.052  26.050  53.627  1.00  0.00     0.113 A 
HETATM    4  C   UNL     1       7.030  26.146  54.991  1.00  0.00     0.014 A 
HETATM    5  C   UNL     1       6.350  27.396  55.415  1.00  0.00     0.158 A 
HETATM    6  N   UNL     1       5.922  27.908  54.086  1.00  0.00    -0.325 N 
HETATM    7  C   UNL     1       6.347  27.121  53.012  1.00  0.00     0.272 A 
HETATM    8  O   UNL     1       6.051  27.250  51.837  1.00  0.00    -0.266 OA
HETATM    9  C   UNL     1       7.555  24.952  55.519  1.00  0.00     0.002 A 
HETATM   10  C   UNL     1       7.959  24.179  54.411  1.00  0.00     0.045 A 
HETATM   11  C   UNL     1       7.705  24.421  56.814  1.00  0.00     0.014 A 
HETATM   12  C   UNL     1       8.253  23.145  56.973  1.00  0.00     0.001 A 
HETATM   13  C   UNL     1       8.655  22.400  55.868  1.00  0.00     0.002 A 
HETATM   14  C   UNL     1       8.521  22.903  54.570  1.00  0.00     0.030 A 
ENDROOT
BRANCH   6  15
HETATM   15  C   UNL     1       4.838  28.872  53.970  1.00  0.00     0.229 C 
BRANCH  15  16
HETATM   16  C   UNL     1       4.189  29.178  55.330  1.00  0.00     0.235 C 
HETATM   17  N   UNL     1       4.235  30.505  55.706  1.00  0.00    -0.355 N 
HETATM   18  H   UNL     1       4.895  31.099  55.219  1.00  0.00     0.162 HD
HETATM   19  O   UNL     1       3.730  28.293  56.047  1.00  0.00    -0.272 OA
BRANCH  17  20
HETATM   20  C   UNL     1       3.636  31.016  56.931  1.00  0.00     0.084 C 
HETATM   21  C   UNL     1       4.588  30.875  58.125  1.00  0.00     0.025 C 
HETATM   22  C   UNL     1       5.752  31.866  58.078  1.00  0.00     0.002 C 
HETATM   23  C   UNL     1       5.268  33.303  57.902  1.00  0.00     0.000 C 
HETATM   24  C   UNL     1       4.373  33.447  56.676  1.00  0.00     0.002 C 
HETATM   25  C   UNL     1       3.197  32.472  56.726  1.00  0.00     0.025 C 
ENDBRANCH  17  20
ENDBRANCH  15  16
ENDBRANCH   6  15
BRANCH   5  26
HETATM   26  C   UNL     1       7.403  28.244  56.098  1.00  0.00    -0.030 A 
HETATM   27  C   UNL     1       8.480  28.819  55.404  1.00  0.00     0.012 A 
HETATM   28  C   UNL     1       9.452  29.563  56.078  1.00  0.00     0.037 A 
HETATM   29  C   UNL     1       9.379  29.750  57.458  1.00  0.00     0.068 A 
HETATM   30  C   UNL     1       8.315  29.189  58.161  1.00  0.00     0.037 A 
HETATM   31  C   UNL     1       7.335  28.447  57.487  1.00  0.00     0.012 A 
BRANCH  29  32
HETATM   32  O   UNL     1      10.402  30.484  57.990  1.00  0.00    -0.356 OA
HETATM   33  C   UNL     1      10.053  31.695  58.647  1.00  0.00     0.210 C 
ENDBRANCH  29  32
ENDBRANCH   5  26
TORSDOF 5
ENDMDL
MODEL 7
REMARK VINA RESULT:      -8.9      2.463      8.222
REMARK  5 active torsions:
REMARK  status: ('A' for Active; 'I' for Inactive)
REMARK    1  A    between atoms: C_5  and  C_6 
REMARK    2  A    between atoms: C_9  and  O_10 
REMARK    3  A    between atoms: N_14  and  C_15 
REMARK    4  A    between atoms: C_15  and  C_16 
REMARK       I    between atoms: C_16  and  N_17 
REMARK    5  A    between atoms: N_17  and  C_18 
ROOT
HETATM    1  C   UNL     1       5.405  25.788  51.295  1.00  0.00     0.156 C 
HETATM    2  N   UNL     1       5.902  25.750  52.650  1.00  0.00    -0.346 N 
HETATM    3  C   UNL     1       5.556  26.593  53.649  1.00  0.00     0.113 A 
HETATM    4  C   UNL     1       6.278  26.297  54.772  1.00  0.00     0.014 A 
HETATM    5  C   UNL     1       5.910  27.211  55.883  1.00  0.00     0.158 A 
HETATM    6  N   UNL     1       4.816  27.974  55.225  1.00  0.00    -0.325 N 
HETATM    7  C   UNL     1       4.606  27.623  53.889  1.00  0.00     0.272 A 
HETATM    8  O   UNL     1       3.715  28.012  53.153  1.00  0.00    -0.266 OA
HETATM    9  C   UNL     1       7.033  25.139  54.512  1.00  0.00     0.002 A 
HETATM   10  C   UNL     1       6.786  24.807  53.164  1.00  0.00     0.045 A 
HETATM   11  C   UNL     1       7.875  24.311  55.277  1.00  0.00     0.014 A 
HETATM   12  C   UNL     1       8.451  23.183  54.684  1.00  0.00     0.001 A 
HETATM   13  C   UNL     1       8.203  22.876  53.349  1.00  0.00     0.002 A 
HETATM   14  C   UNL     1       7.373  23.682  52.564  1.00  0.00     0.030 A 
ENDROOT
BRANCH   6  15
HETATM   15  C   UNL     1       3.822  28.686  56.014  1.00  0.00     0.229 C 
BRANCH  15  16
HETATM   16  C   UNL     1       4.109  30.195  56.080  1.00  0.00     0.235 C 
HETATM   17  N   UNL     1       3.721  30.906  54.963  1.00  0.00    -0.355 N 
HETATM   18  H   UNL     1       3.540  30.375  54.120  1.00  0.00     0.162 HD
HETATM   19  O   UNL     1       4.699  30.705  57.029  1.00  0.00    -0.272 OA
BRANCH  17  20
HETATM   20  C   UNL     1       3.857  32.351  54.841  1.00  0.00     0.084 C 
HETATM   21  C   UNL     1       4.012  32.781  53.378  1.00  0.00     0.025 C 
HETATM   22  C   UNL     1       2.712  32.665  52.582  1.00  0.00     0.002 C 
HETATM   23  C   UNL     1       1.558  33.390  53.269  1.00  0.00     0.000 C 
HETATM   24  C   UNL     1       1.369  32.910  54.704  1.00  0.00     0.002 C 
HETATM   25  C   UNL     1       2.661  33.042  55.511  1.00  0.00     0.025 C 
ENDBRANCH  17  20
ENDBRANCH  15  16
ENDBRANCH   6  15
BRANCH   5  26
HETATM   26  C   UNL     1       7.145  28.033  56.187  1.00  0.00    -0.030 A 
HETATM   27  C   UNL     1       7.999  28.517  55.183  1.00  0.00     0.012 A 
HETATM   28  C   UNL     1       9.150  29.239  55.507  1.00  0.00     0.037 A 
HETATM   29  C   UNL     1       9.484  29.494  56.838  1.00  0.00     0.068 A 
HETATM   30  C   UNL     1       8.645  29.023  57.846  1.00  0.00     0.037 A 
HETATM   31  C   UNL     1       7.486  28.304  57.523  1.00  0.00     0.012 A 
BRANCH  29  32
HETATM   32  O   UNL     1      10.643  30.197  57.012  1.00  0.00    -0.356 OA
HETATM   33  C   UNL     1      10.617  31.259  57.955  1.00  0.00     0.210 C 
ENDBRANCH  29  32
ENDBRANCH   5  26
TORSDOF 5
ENDMDL
MODEL 8
REMARK VINA RESULT:      -8.7      1.862      7.081
REMARK  5 active torsions:
REMARK  status: ('A' for Active; 'I' for Inactive)
REMARK    1  A    between atoms: C_5  and  C_6 
REMARK    2  A    between atoms: C_9  and  O_10 
REMARK    3  A    between atoms: N_14  and  C_15 
REMARK    4  A    between atoms: C_15  and  C_16 
REMARK       I    between atoms: C_16  and  N_17 
REMARK    5  A    between atoms: N_17  and  C_18 
ROOT
HETATM    1  C   UNL     1       7.654  23.796  57.354  1.00  0.00     0.156 C 
HETATM    2  N   UNL     1       7.676  24.561  56.130  1.00  0.00    -0.346 N 
HETATM    3  C   UNL     1       7.652  25.909  56.033  1.00  0.00     0.113 A 
HETATM    4  C   UNL     1       7.613  26.276  54.716  1.00  0.00     0.014 A 
HETATM    5  C   UNL     1       7.590  27.755  54.587  1.00  0.00     0.158 A 
HETATM    6  N   UNL     1       7.723  28.130  56.020  1.00  0.00    -0.325 N 
HETATM    7  C   UNL     1       7.746  27.038  56.892  1.00  0.00     0.272 A 
HETATM    8  O   UNL     1       7.950  27.055  58.093  1.00  0.00    -0.266 OA
HETATM    9  C   UNL     1       7.736  25.111  53.937  1.00  0.00     0.002 A 
HETATM   10  C   UNL     1       7.772  24.034  54.847  1.00  0.00     0.045 A 
HETATM   11  C   UNL     1       7.856  24.846  52.560  1.00  0.00     0.014 A 
HETATM   12  C   UNL     1       8.002  23.526  52.124  1.00  0.00     0.001 A 
HETATM   13  C   UNL     1       8.025  22.474  53.037  1.00  0.00     0.002 A 
HETATM   14  C   UNL     1       7.906  22.707  54.410  1.00  0.00     0.030 A 
ENDROOT
BRANCH   6  15
HETATM   15  C   UNL     1       8.196  29.451  56.405  1.00  0.00     0.229 C 
BRANCH  15  16
HETATM   16  C   UNL     1       7.329  30.077  57.510  1.00  0.00     0.235 C 
HETATM   17  N   UNL     1       6.094  30.526  57.090  1.00  0.00    -0.355 N 
HETATM   18  H   UNL     1       5.965  30.654  56.093  1.00  0.00     0.162 HD
HETATM   19  O   UNL     1       7.741  30.223  58.658  1.00  0.00    -0.272 OA
BRANCH  17  20
HETATM   20  C   UNL     1       5.101  31.106  57.984  1.00  0.00     0.084 C 
HETATM   21  C   UNL     1       5.239  32.630  58.068  1.00  0.00     0.025 C 
HETATM   22  C   UNL     1       4.763  33.342  56.801  1.00  0.00     0.002 C 
HETATM   23  C   UNL     1       3.350  32.919  56.408  1.00  0.00     0.000 C 
HETATM   24  C   UNL     1       3.237  31.406  56.265  1.00  0.00     0.002 C 
HETATM   25  C   UNL     1       3.693  30.689  57.536  1.00  0.00     0.025 C 
ENDBRANCH  17  20
ENDBRANCH  15  16
ENDBRANCH   6  15
BRANCH   5  26
HETATM   26  C   UNL     1       6.251  28.109  53.973  1.00  0.00    -0.030 A 
HETATM   27  C   UNL     1       5.069  28.186  54.726  1.00  0.00     0.012 A 
HETATM   28  C   UNL     1       3.847  28.478  54.115  1.00  0.00     0.037 A 
HETATM   29  C   UNL     1       3.770  28.696  52.739  1.00  0.00     0.068 A 
HETATM   30  C   UNL     1       4.935  28.626  51.978  1.00  0.00     0.037 A 
HETATM   31  C   UNL     1       6.163  28.340  52.590  1.00  0.00     0.012 A 
BRANCH  29  32
HETATM   32  O   UNL     1       2.512  28.956  52.272  1.00  0.00    -0.356 OA
HETATM   33  C   UNL     1       2.408  29.451  50.944  1.00  0.00     0.210 C 
ENDBRANCH  29  32
ENDBRANCH   5  26
TORSDOF 5
ENDMDL
MODEL 9
REMARK VINA RESULT:      -8.7      2.656      5.536
REMARK  5 active torsions:
REMARK  status: ('A' for Active; 'I' for Inactive)
REMARK    1  A    between atoms: C_5  and  C_6 
REMARK    2  A    between atoms: C_9  and  O_10 
REMARK    3  A    between atoms: N_14  and  C_15 
REMARK    4  A    between atoms: C_15  and  C_16 
REMARK       I    between atoms: C_16  and  N_17 
REMARK    5  A    between atoms: N_17  and  C_18 
ROOT
HETATM    1  C   UNL     1      10.227  29.585  57.006  1.00  0.00     0.156 C 
HETATM    2  N   UNL     1       8.985  30.037  57.587  1.00  0.00    -0.346 N 
HETATM    3  C   UNL     1       7.743  29.667  57.201  1.00  0.00     0.113 A 
HETATM    4  C   UNL     1       6.810  30.349  57.933  1.00  0.00     0.014 A 
HETATM    5  C   UNL     1       5.438  29.953  57.526  1.00  0.00     0.158 A 
HETATM    6  N   UNL     1       5.769  28.888  56.541  1.00  0.00    -0.325 N 
HETATM    7  C   UNL     1       7.140  28.719  56.329  1.00  0.00     0.272 A 
HETATM    8  O   UNL     1       7.684  27.857  55.662  1.00  0.00    -0.266 OA
HETATM    9  C   UNL     1       7.488  31.100  58.910  1.00  0.00     0.002 A 
HETATM   10  C   UNL     1       8.864  30.894  58.675  1.00  0.00     0.045 A 
HETATM   11  C   UNL     1       7.093  31.909  59.991  1.00  0.00     0.014 A 
HETATM   12  C   UNL     1       8.068  32.493  60.805  1.00  0.00     0.001 A 
HETATM   13  C   UNL     1       9.422  32.286  60.553  1.00  0.00     0.002 A 
HETATM   14  C   UNL     1       9.844  31.490  59.484  1.00  0.00     0.030 A 
ENDROOT
BRANCH   6  15
HETATM   15  C   UNL     1       4.789  27.876  56.178  1.00  0.00     0.229 C 
BRANCH  15  16
HETATM   16  C   UNL     1       4.744  27.632  54.660  1.00  0.00     0.235 C 
HETATM   17  N   UNL     1       5.358  26.469  54.244  1.00  0.00    -0.355 N 
HETATM   18  H   UNL     1       5.995  26.027  54.895  1.00  0.00     0.162 HD
HETATM   19  O   UNL     1       4.257  28.450  53.883  1.00  0.00    -0.272 OA
BRANCH  17  20
HETATM   20  C   UNL     1       5.387  26.026  52.857  1.00  0.00     0.084 C 
HETATM   21  C   UNL     1       6.651  26.509  52.136  1.00  0.00     0.025 C 
HETATM   22  C   UNL     1       7.910  25.765  52.579  1.00  0.00     0.002 C 
HETATM   23  C   UNL     1       7.741  24.251  52.478  1.00  0.00     0.000 C 
HETATM   24  C   UNL     1       6.518  23.770  53.250  1.00  0.00     0.002 C 
HETATM   25  C   UNL     1       5.251  24.498  52.799  1.00  0.00     0.025 C 
ENDBRANCH  17  20
ENDBRANCH  15  16
ENDBRANCH   6  15
BRANCH   5  26
HETATM   26  C   UNL     1       4.801  31.185  56.918  1.00  0.00    -0.030 A 
HETATM   27  C   UNL     1       4.959  31.532  55.567  1.00  0.00     0.012 A 
HETATM   28  C   UNL     1       4.387  32.699  55.054  1.00  0.00     0.037 A 
HETATM   29  C   UNL     1       3.647  33.552  55.873  1.00  0.00     0.068 A 
HETATM   30  C   UNL     1       3.478  33.221  57.215  1.00  0.00     0.037 A 
HETATM   31  C   UNL     1       4.046  32.047  57.731  1.00  0.00     0.012 A 
BRANCH  29  32
HETATM   32  O   UNL     1       3.158  34.664  55.246  1.00  0.00    -0.356 OA
HETATM   33  C   UNL     1       3.233  34.689  53.828  1.00  0.00     0.210 C 
ENDBRANCH  29  32
ENDBRANCH   5  26
TORSDOF 5
ENDMDL
MODEL 10
REMARK VINA RESULT:      -8.6      2.557      6.361
REMARK  5 active torsions:
REMARK  status: ('A' for Active; 'I' for Inactive)
REMARK    1  A    between atoms: C_5  and  C_6 
REMARK    2  A    between atoms: C_9  and  O_10 
REMARK    3  A    between atoms: N_14  and  C_15 
REMARK    4  A    between atoms: C_15  and  C_16 
REMARK       I    between atoms: C_16  and  N_17 
REMARK    5  A    between atoms: N_17  and  C_18 
ROOT
HETATM    1  C   UNL     1       5.644  30.875  50.296  1.00  0.00     0.156 C 
HETATM    2  N   UNL     1       5.284  29.498  50.536  1.00  0.00    -0.346 N 
HETATM    3  C   UNL     1       5.099  28.922  51.744  1.00  0.00     0.113 A 
HETATM    4  C   UNL     1       4.836  27.589  51.584  1.00  0.00     0.014 A 
HETATM    5  C   UNL     1       4.626  26.937  52.902  1.00  0.00     0.158 A 
HETATM    6  N   UNL     1       4.714  28.130  53.785  1.00  0.00    -0.325 N 
HETATM    7  C   UNL     1       5.010  29.316  53.108  1.00  0.00     0.272 A 
HETATM    8  O   UNL     1       5.036  30.444  53.568  1.00  0.00    -0.266 OA
HETATM    9  C   UNL     1       4.734  27.328  50.206  1.00  0.00     0.002 A 
HETATM   10  C   UNL     1       5.024  28.546  49.556  1.00  0.00     0.045 A 
HETATM   11  C   UNL     1       4.395  26.204  49.431  1.00  0.00     0.014 A 
HETATM   12  C   UNL     1       4.358  26.316  48.038  1.00  0.00     0.001 A 
HETATM   13  C   UNL     1       4.656  27.524  47.413  1.00  0.00     0.002 A 
HETATM   14  C   UNL     1       4.998  28.657  48.157  1.00  0.00     0.030 A 
ENDROOT
BRANCH   6  15
HETATM   15  C   UNL     1       4.140  28.114  55.122  1.00  0.00     0.229 C 
BRANCH  15  16
HETATM   16  C   UNL     1       5.126  27.567  56.168  1.00  0.00     0.235 C 
HETATM   17  N   UNL     1       6.295  28.289  56.293  1.00  0.00    -0.355 N 
HETATM   18  H   UNL     1       6.525  28.926  55.540  1.00  0.00     0.162 HD
HETATM   19  O   UNL     1       4.908  26.530  56.789  1.00  0.00    -0.272 OA
BRANCH  17  20
HETATM   20  C   UNL     1       7.338  27.971  57.258  1.00  0.00     0.084 C 
HETATM   21  C   UNL     1       8.698  27.783  56.576  1.00  0.00     0.025 C 
HETATM   22  C   UNL     1       9.309  29.099  56.093  1.00  0.00     0.002 C 
HETATM   23  C   UNL     1       9.370  30.141  57.207  1.00  0.00     0.000 C 
HETATM   24  C   UNL     1       8.001  30.368  57.837  1.00  0.00     0.002 C 
HETATM   25  C   UNL     1       7.393  29.059  58.340  1.00  0.00     0.025 C 
ENDBRANCH  17  20
ENDBRANCH  15  16
ENDBRANCH   6  15
BRANCH   5  26
HETATM   26  C   UNL     1       5.761  25.950  53.076  1.00  0.00    -0.030 A 
HETATM   27  C   UNL     1       7.016  26.123  52.471  1.00  0.00     0.012 A 
HETATM   28  C   UNL     1       8.024  25.169  52.625  1.00  0.00     0.037 A 
HETATM   29  C   UNL     1       7.808  24.016  53.380  1.00  0.00     0.068 A 
HETATM   30  C   UNL     1       6.570  23.830  53.989  1.00  0.00     0.037 A 
HETATM   31  C   UNL     1       5.558  24.789  53.842  1.00  0.00     0.012 A 
BRANCH  29  32
HETATM   32  O   UNL     1       8.873  23.161  53.435  1.00  0.00    -0.356 OA
HETATM   33  C   UNL     1       8.584  21.782  53.619  1.00  0.00     0.210 C 
ENDBRANCH  29  32
ENDBRANCH   5  26
TORSDOF 5
ENDMDL
