MODEL 1
REMARK VINA RESULT:      -9.6      0.000      0.000
REMARK  8 active torsions:
REMARK  status: ('A' for Active; 'I' for Inactive)
REMARK    1  A    between atoms: C_2  and  C_3 
REMARK    2  A    between atoms: C_3  and  O_4 
REMARK    3  A    between atoms: O_4  and  C_5 
REMARK    4  A    between atoms: C_8  and  C_9 
REMARK    5  A    between atoms: C_13  and  C_14 
REMARK       I    between atoms: C_14  and  N_15 
REMARK    6  A    between atoms: N_15  and  N_16 
REMARK    7  A    between atoms: C_17  and  C_18 
REMARK    8  A    between atoms: C_19  and  O_20 
ROOT
HETATM    1  C   UNL     1       8.354  28.250  57.176  1.00  0.00     0.089 A 
HETATM    2  N   UNL     1       9.525  28.835  56.883  1.00  0.00    -0.174 NA
HETATM    3  N   UNL     1       9.563  29.928  57.661  1.00  0.00    -0.272 N 
HETATM    4  H   UNL     1      10.368  30.544  57.609  1.00  0.00     0.189 HD
HETATM    5  C   UNL     1       8.482  30.064  58.488  1.00  0.00     0.121 A 
HETATM    6  C   UNL     1       7.665  28.997  58.171  1.00  0.00     0.071 A 
ENDROOT
BRANCH   5   7
HETATM    7  C   UNL     1       8.392  31.145  59.437  1.00  0.00     0.289 C 
HETATM    8  N   UNL     1       7.732  30.826  60.615  1.00  0.00    -0.242 N 
HETATM    9  H   UNL     1       7.369  29.893  60.760  1.00  0.00     0.192 HD
HETATM   10  O   UNL     1       8.890  32.243  59.206  1.00  0.00    -0.264 OA
BRANCH   8  11
HETATM   11  N   UNL     1       7.653  31.738  61.626  1.00  0.00    -0.183 NA
HETATM   12  C   UNL     1       6.598  31.654  62.373  1.00  0.00     0.153 C 
BRANCH  12  13
HETATM   13  C   UNL     1       6.399  32.564  63.517  1.00  0.00     0.016 A 
HETATM   14  C   UNL     1       5.129  32.989  63.922  1.00  0.00     0.077 A 
HETATM   15  C   UNL     1       4.992  33.858  65.001  1.00  0.00     0.037 A 
HETATM   16  C   UNL     1       6.125  34.308  65.681  1.00  0.00     0.003 A 
HETATM   17  C   UNL     1       7.394  33.889  65.282  1.00  0.00     0.001 A 
HETATM   18  C   UNL     1       7.535  33.016  64.200  1.00  0.00     0.016 A 
BRANCH  14  19
HETATM   19  O   UNL     1       3.971  32.596  63.306  1.00  0.00    -0.360 OA
HETATM   20  H   UNL     1       3.375  33.377  63.238  1.00  0.00     0.217 HD
ENDBRANCH  14  19
ENDBRANCH  12  13
ENDBRANCH   8  11
ENDBRANCH   5   7
BRANCH   1  21
HETATM   21  C   UNL     1       7.935  26.994  56.552  1.00  0.00    -0.005 A 
HETATM   22  C   UNL     1       7.460  26.980  55.234  1.00  0.00     0.016 A 
HETATM   23  C   UNL     1       7.122  25.777  54.604  1.00  0.00     0.037 A 
HETATM   24  C   UNL     1       7.254  24.570  55.289  1.00  0.00     0.068 A 
HETATM   25  C   UNL     1       7.678  24.580  56.618  1.00  0.00     0.037 A 
HETATM   26  C   UNL     1       8.025  25.780  57.246  1.00  0.00     0.016 A 
BRANCH  24  27
HETATM   27  O   UNL     1       6.975  23.334  54.776  1.00  0.00    -0.351 OA
BRANCH  27  28
HETATM   28  C   UNL     1       8.109  22.519  54.473  1.00  0.00     0.175 C 
BRANCH  28  29
HETATM   29  C   UNL     1       7.951  22.017  53.041  1.00  0.00     0.022 C 
HETATM   30  C   UNL     1       8.284  20.540  52.919  1.00  0.00     0.007 C 
ENDBRANCH  28  29
ENDBRANCH  27  28
ENDBRANCH  24  27
ENDBRANCH   1  21
TORSDOF 8
ENDMDL
MODEL 2
REMARK VINA RESULT:      -9.3      1.824     11.011
REMARK  8 active torsions:
REMARK  status: ('A' for Active; 'I' for Inactive)
REMARK    1  A    between atoms: C_2  and  C_3 
REMARK    2  A    between atoms: C_3  and  O_4 
REMARK    3  A    between atoms: O_4  and  C_5 
REMARK    4  A    between atoms: C_8  and  C_9 
REMARK    5  A    between atoms: C_13  and  C_14 
REMARK       I    between atoms: C_14  and  N_15 
REMARK    6  A    between atoms: N_15  and  N_16 
REMARK    7  A    between atoms: C_17  and  C_18 
REMARK    8  A    between atoms: C_19  and  O_20 
ROOT
HETATM    1  C   UNL     1       8.506  31.726  60.208  1.00  0.00     0.089 A 
HETATM    2  N   UNL     1       9.415  32.387  59.477  1.00  0.00    -0.174 NA
HETATM    3  N   UNL     1       9.724  31.545  58.478  1.00  0.00    -0.272 N 
HETATM    4  H   UNL     1      10.410  31.831  57.786  1.00  0.00     0.189 HD
HETATM    5  C   UNL     1       9.022  30.372  58.497  1.00  0.00     0.121 A 
HETATM    6  C   UNL     1       8.240  30.453  59.632  1.00  0.00     0.071 A 
ENDROOT
BRANCH   5   7
HETATM    7  C   UNL     1       9.181  29.383  57.460  1.00  0.00     0.289 C 
HETATM    8  N   UNL     1       8.317  28.302  57.556  1.00  0.00    -0.242 N 
HETATM    9  H   UNL     1       7.635  28.258  58.301  1.00  0.00     0.192 HD
HETATM   10  O   UNL     1      10.008  29.523  56.563  1.00  0.00    -0.264 OA
BRANCH   8  11
HETATM   11  N   UNL     1       8.312  27.341  56.588  1.00  0.00    -0.183 NA
HETATM   12  C   UNL     1       7.841  26.189  56.948  1.00  0.00     0.153 C 
BRANCH  12  13
HETATM   13  C   UNL     1       7.756  25.067  55.993  1.00  0.00     0.016 A 
HETATM   14  C   UNL     1       7.965  23.739  56.381  1.00  0.00     0.077 A 
HETATM   15  C   UNL     1       7.885  22.715  55.441  1.00  0.00     0.037 A 
HETATM   16  C   UNL     1       7.597  23.013  54.108  1.00  0.00     0.003 A 
HETATM   17  C   UNL     1       7.389  24.336  53.716  1.00  0.00     0.001 A 
HETATM   18  C   UNL     1       7.467  25.365  54.656  1.00  0.00     0.016 A 
BRANCH  14  19
HETATM   19  O   UNL     1       8.254  23.365  57.665  1.00  0.00    -0.360 OA
HETATM   20  H   UNL     1       8.140  24.148  58.251  1.00  0.00     0.217 HD
ENDBRANCH  14  19
ENDBRANCH  12  13
ENDBRANCH   8  11
ENDBRANCH   5   7
BRANCH   1  21
HETATM   21  C   UNL     1       7.883  32.317  61.393  1.00  0.00    -0.005 A 
HETATM   22  C   UNL     1       8.480  32.177  62.653  1.00  0.00     0.016 A 
HETATM   23  C   UNL     1       7.930  32.796  63.782  1.00  0.00     0.037 A 
HETATM   24  C   UNL     1       6.772  33.563  63.662  1.00  0.00     0.068 A 
HETATM   25  C   UNL     1       6.144  33.666  62.421  1.00  0.00     0.037 A 
HETATM   26  C   UNL     1       6.697  33.056  61.291  1.00  0.00     0.016 A 
BRANCH  24  27
HETATM   27  O   UNL     1       6.155  34.229  64.684  1.00  0.00    -0.351 OA
BRANCH  27  28
HETATM   28  C   UNL     1       4.933  33.654  65.151  1.00  0.00     0.175 C 
BRANCH  28  29
HETATM   29  C   UNL     1       4.757  34.059  66.611  1.00  0.00     0.022 C 
HETATM   30  C   UNL     1       6.089  34.337  67.287  1.00  0.00     0.007 C 
ENDBRANCH  28  29
ENDBRANCH  27  28
ENDBRANCH  24  27
ENDBRANCH   1  21
TORSDOF 8
ENDMDL
MODEL 3
REMARK VINA RESULT:      -9.1      1.907     11.259
REMARK  8 active torsions:
REMARK  status: ('A' for Active; 'I' for Inactive)
REMARK    1  A    between atoms: C_2  and  C_3 
REMARK    2  A    between atoms: C_3  and  O_4 
REMARK    3  A    between atoms: O_4  and  C_5 
REMARK    4  A    between atoms: C_8  and  C_9 
REMARK    5  A    between atoms: C_13  and  C_14 
REMARK       I    between atoms: C_14  and  N_15 
REMARK    6  A    between atoms: N_15  and  N_16 
REMARK    7  A    between atoms: C_17  and  C_18 
REMARK    8  A    between atoms: C_19  and  O_20 
ROOT
HETATM    1  C   UNL     1       8.530  29.970  58.740  1.00  0.00     0.089 A 
HETATM    2  N   UNL     1       9.663  30.022  58.024  1.00  0.00    -0.174 NA
HETATM    3  N   UNL     1       9.527  29.056  57.103  1.00  0.00    -0.272 N 
HETATM    4  H   UNL     1      10.278  28.899  56.437  1.00  0.00     0.189 HD
HETATM    5  C   UNL     1       8.331  28.396  57.155  1.00  0.00     0.121 A 
HETATM    6  C   UNL     1       7.673  28.954  58.233  1.00  0.00     0.071 A 
ENDROOT
BRANCH   5   7
HETATM    7  C   UNL     1       7.992  27.374  56.196  1.00  0.00     0.289 C 
HETATM    8  N   UNL     1       8.138  26.075  56.660  1.00  0.00    -0.242 N 
HETATM    9  H   UNL     1       8.447  25.903  57.607  1.00  0.00     0.192 HD
HETATM   10  O   UNL     1       7.586  27.660  55.072  1.00  0.00    -0.264 OA
BRANCH   8  11
HETATM   11  N   UNL     1       7.772  25.022  55.875  1.00  0.00    -0.183 NA
HETATM   12  C   UNL     1       8.620  24.044  55.820  1.00  0.00     0.153 C 
BRANCH  12  13
HETATM   13  C   UNL     1       8.338  22.833  55.027  1.00  0.00     0.016 A 
HETATM   14  C   UNL     1       8.154  22.873  53.641  1.00  0.00     0.077 A 
HETATM   15  C   UNL     1       7.878  21.704  52.937  1.00  0.00     0.037 A 
HETATM   16  C   UNL     1       7.784  20.488  53.615  1.00  0.00     0.003 A 
HETATM   17  C   UNL     1       7.965  20.441  54.997  1.00  0.00     0.001 A 
HETATM   18  C   UNL     1       8.243  21.612  55.707  1.00  0.00     0.016 A 
BRANCH  14  19
HETATM   19  O   UNL     1       8.227  24.024  52.903  1.00  0.00    -0.360 OA
HETATM   20  H   UNL     1       8.301  23.780  51.952  1.00  0.00     0.217 HD
ENDBRANCH  14  19
ENDBRANCH  12  13
ENDBRANCH   8  11
ENDBRANCH   5   7
BRANCH   1  21
HETATM   21  C   UNL     1       8.265  30.893  59.845  1.00  0.00    -0.005 A 
HETATM   22  C   UNL     1       7.128  31.711  59.827  1.00  0.00     0.016 A 
HETATM   23  C   UNL     1       6.827  32.547  60.909  1.00  0.00     0.037 A 
HETATM   24  C   UNL     1       7.664  32.574  62.024  1.00  0.00     0.068 A 
HETATM   25  C   UNL     1       8.824  31.798  62.028  1.00  0.00     0.037 A 
HETATM   26  C   UNL     1       9.121  30.956  60.952  1.00  0.00     0.016 A 
BRANCH  24  27
HETATM   27  O   UNL     1       7.465  33.330  63.145  1.00  0.00    -0.351 OA
BRANCH  27  28
HETATM   28  C   UNL     1       6.202  33.992  63.230  1.00  0.00     0.175 C 
BRANCH  28  29
HETATM   29  C   UNL     1       6.046  34.515  64.655  1.00  0.00     0.022 C 
HETATM   30  C   UNL     1       6.923  33.757  65.636  1.00  0.00     0.007 C 
ENDBRANCH  28  29
ENDBRANCH  27  28
ENDBRANCH  24  27
ENDBRANCH   1  21
TORSDOF 8
ENDMDL
MODEL 4
REMARK VINA RESULT:      -8.8      2.351     11.157
REMARK  8 active torsions:
REMARK  status: ('A' for Active; 'I' for Inactive)
REMARK    1  A    between atoms: C_2  and  C_3 
REMARK    2  A    between atoms: C_3  and  O_4 
REMARK    3  A    between atoms: O_4  and  C_5 
REMARK    4  A    between atoms: C_8  and  C_9 
REMARK    5  A    between atoms: C_13  and  C_14 
REMARK       I    between atoms: C_14  and  N_15 
REMARK    6  A    between atoms: N_15  and  N_16 
REMARK    7  A    between atoms: C_17  and  C_18 
REMARK    8  A    between atoms: C_19  and  O_20 
ROOT
HETATM    1  C   UNL     1       6.792  30.397  57.395  1.00  0.00     0.089 A 
HETATM    2  N   UNL     1       6.012  30.746  56.361  1.00  0.00    -0.174 NA
HETATM    3  N   UNL     1       6.149  29.744  55.479  1.00  0.00    -0.272 N 
HETATM    4  H   UNL     1       5.646  29.789  54.598  1.00  0.00     0.189 HD
HETATM    5  C   UNL     1       6.956  28.726  55.909  1.00  0.00     0.121 A 
HETATM    6  C   UNL     1       7.410  29.141  57.144  1.00  0.00     0.071 A 
ENDROOT
BRANCH   5   7
HETATM    7  C   UNL     1       7.158  27.540  55.114  1.00  0.00     0.289 C 
HETATM    8  N   UNL     1       6.706  26.368  55.701  1.00  0.00    -0.242 N 
HETATM    9  H   UNL     1       6.262  26.390  56.609  1.00  0.00     0.192 HD
HETATM   10  O   UNL     1       7.673  27.596  54.000  1.00  0.00    -0.264 OA
BRANCH   8  11
HETATM   11  N   UNL     1       6.766  25.191  55.015  1.00  0.00    -0.183 NA
HETATM   12  C   UNL     1       7.635  24.334  55.450  1.00  0.00     0.153 C 
BRANCH  12  13
HETATM   13  C   UNL     1       7.787  23.011  54.815  1.00  0.00     0.016 A 
HETATM   14  C   UNL     1       7.994  22.862  53.440  1.00  0.00     0.077 A 
HETATM   15  C   UNL     1       8.121  21.592  52.884  1.00  0.00     0.037 A 
HETATM   16  C   UNL     1       8.039  20.463  53.701  1.00  0.00     0.003 A 
HETATM   17  C   UNL     1       7.832  20.605  55.073  1.00  0.00     0.001 A 
HETATM   18  C   UNL     1       7.705  21.878  55.634  1.00  0.00     0.016 A 
BRANCH  14  19
HETATM   19  O   UNL     1       8.083  23.917  52.572  1.00  0.00    -0.360 OA
HETATM   20  H   UNL     1       7.991  23.573  51.654  1.00  0.00     0.217 HD
ENDBRANCH  14  19
ENDBRANCH  12  13
ENDBRANCH   8  11
ENDBRANCH   5   7
BRANCH   1  21
HETATM   21  C   UNL     1       6.903  31.223  58.598  1.00  0.00    -0.005 A 
HETATM   22  C   UNL     1       5.791  31.922  59.085  1.00  0.00     0.016 A 
HETATM   23  C   UNL     1       5.867  32.658  60.273  1.00  0.00     0.037 A 
HETATM   24  C   UNL     1       7.063  32.704  60.988  1.00  0.00     0.068 A 
HETATM   25  C   UNL     1       8.188  32.052  60.485  1.00  0.00     0.037 A 
HETATM   26  C   UNL     1       8.111  31.308  59.303  1.00  0.00     0.016 A 
BRANCH  24  27
HETATM   27  O   UNL     1       7.254  33.370  62.167  1.00  0.00    -0.351 OA
BRANCH  27  28
HETATM   28  C   UNL     1       7.810  32.597  63.232  1.00  0.00     0.175 C 
BRANCH  28  29
HETATM   29  C   UNL     1       7.556  33.349  64.535  1.00  0.00     0.022 C 
HETATM   30  C   UNL     1       6.339  34.253  64.439  1.00  0.00     0.007 C 
ENDBRANCH  28  29
ENDBRANCH  27  28
ENDBRANCH  24  27
ENDBRANCH   1  21
TORSDOF 8
ENDMDL
MODEL 5
REMARK VINA RESULT:      -8.8      1.147      1.611
REMARK  8 active torsions:
REMARK  status: ('A' for Active; 'I' for Inactive)
REMARK    1  A    between atoms: C_2  and  C_3 
REMARK    2  A    between atoms: C_3  and  O_4 
REMARK    3  A    between atoms: O_4  and  C_5 
REMARK    4  A    between atoms: C_8  and  C_9 
REMARK    5  A    between atoms: C_13  and  C_14 
REMARK       I    between atoms: C_14  and  N_15 
REMARK    6  A    between atoms: N_15  and  N_16 
REMARK    7  A    between atoms: C_17  and  C_18 
REMARK    8  A    between atoms: C_19  and  O_20 
ROOT
HETATM    1  C   UNL     1       8.413  28.382  57.316  1.00  0.00     0.089 A 
HETATM    2  N   UNL     1       9.617  28.946  57.145  1.00  0.00    -0.174 NA
HETATM    3  N   UNL     1       9.578  30.063  57.887  1.00  0.00    -0.272 N 
HETATM    4  H   UNL     1      10.392  30.670  57.910  1.00  0.00     0.189 HD
HETATM    5  C   UNL     1       8.409  30.236  58.577  1.00  0.00     0.121 A 
HETATM    6  C   UNL     1       7.622  29.167  58.201  1.00  0.00     0.071 A 
ENDROOT
BRANCH   5   7
HETATM    7  C   UNL     1       8.224  31.347  59.476  1.00  0.00     0.289 C 
HETATM    8  N   UNL     1       7.268  31.142  60.460  1.00  0.00    -0.242 N 
HETATM    9  H   UNL     1       6.773  30.261  60.514  1.00  0.00     0.192 HD
HETATM   10  O   UNL     1       8.890  32.374  59.371  1.00  0.00    -0.264 OA
BRANCH   8  11
HETATM   11  N   UNL     1       7.058  32.086  61.420  1.00  0.00    -0.183 NA
HETATM   12  C   UNL     1       5.942  32.739  61.329  1.00  0.00     0.153 C 
BRANCH  12  13
HETATM   13  C   UNL     1       5.579  33.772  62.317  1.00  0.00     0.016 A 
HETATM   14  C   UNL     1       5.075  33.451  63.582  1.00  0.00     0.077 A 
HETATM   15  C   UNL     1       4.735  34.462  64.478  1.00  0.00     0.037 A 
HETATM   16  C   UNL     1       4.897  35.799  64.112  1.00  0.00     0.003 A 
HETATM   17  C   UNL     1       5.398  36.125  62.852  1.00  0.00     0.001 A 
HETATM   18  C   UNL     1       5.741  35.114  61.952  1.00  0.00     0.016 A 
BRANCH  14  19
HETATM   19  O   UNL     1       4.884  32.166  64.015  1.00  0.00    -0.360 OA
HETATM   20  H   UNL     1       4.232  32.180  64.752  1.00  0.00     0.217 HD
ENDBRANCH  14  19
ENDBRANCH  12  13
ENDBRANCH   8  11
ENDBRANCH   5   7
BRANCH   1  21
HETATM   21  C   UNL     1       8.053  27.110  56.687  1.00  0.00    -0.005 A 
HETATM   22  C   UNL     1       8.258  25.900  57.364  1.00  0.00     0.016 A 
HETATM   23  C   UNL     1       7.854  24.684  56.801  1.00  0.00     0.037 A 
HETATM   24  C   UNL     1       7.239  24.665  55.550  1.00  0.00     0.068 A 
HETATM   25  C   UNL     1       7.075  25.860  54.849  1.00  0.00     0.037 A 
HETATM   26  C   UNL     1       7.470  27.076  55.414  1.00  0.00     0.016 A 
BRANCH  24  27
HETATM   27  O   UNL     1       6.784  23.547  54.910  1.00  0.00    -0.351 OA
BRANCH  27  28
HETATM   28  C   UNL     1       7.673  22.980  53.945  1.00  0.00     0.175 C 
BRANCH  28  29
HETATM   29  C   UNL     1       7.883  21.513  54.311  1.00  0.00     0.022 C 
HETATM   30  C   UNL     1       7.972  20.629  53.080  1.00  0.00     0.007 C 
ENDBRANCH  28  29
ENDBRANCH  27  28
ENDBRANCH  24  27
ENDBRANCH   1  21
TORSDOF 8
ENDMDL
MODEL 6
REMARK VINA RESULT:      -8.5      1.712      1.830
REMARK  8 active torsions:
REMARK  status: ('A' for Active; 'I' for Inactive)
REMARK    1  A    between atoms: C_2  and  C_3 
REMARK    2  A    between atoms: C_3  and  O_4 
REMARK    3  A    between atoms: O_4  and  C_5 
REMARK    4  A    between atoms: C_8  and  C_9 
REMARK    5  A    between atoms: C_13  and  C_14 
REMARK       I    between atoms: C_14  and  N_15 
REMARK    6  A    between atoms: N_15  and  N_16 
REMARK    7  A    between atoms: C_17  and  C_18 
REMARK    8  A    between atoms: C_19  and  O_20 
ROOT
HETATM    1  C   UNL     1       6.795  28.050  56.109  1.00  0.00     0.089 A 
HETATM    2  N   UNL     1       6.519  28.986  55.189  1.00  0.00    -0.174 NA
HETATM    3  N   UNL     1       6.371  30.120  55.891  1.00  0.00    -0.272 N 
HETATM    4  H   UNL     1       6.149  30.980  55.399  1.00  0.00     0.189 HD
HETATM    5  C   UNL     1       6.581  29.978  57.235  1.00  0.00     0.121 A 
HETATM    6  C   UNL     1       6.832  28.631  57.407  1.00  0.00     0.071 A 
ENDROOT
BRANCH   5   7
HETATM    7  C   UNL     1       6.530  31.108  58.128  1.00  0.00     0.289 C 
HETATM    8  N   UNL     1       7.132  30.899  59.360  1.00  0.00    -0.242 N 
HETATM    9  H   UNL     1       7.574  30.014  59.568  1.00  0.00     0.192 HD
HETATM   10  O   UNL     1       6.007  32.168  57.791  1.00  0.00    -0.264 OA
BRANCH   8  11
HETATM   11  N   UNL     1       7.222  31.918  60.261  1.00  0.00    -0.183 NA
HETATM   12  C   UNL     1       6.628  31.716  61.394  1.00  0.00     0.153 C 
BRANCH  12  13
HETATM   13  C   UNL     1       6.666  32.727  62.468  1.00  0.00     0.016 A 
HETATM   14  C   UNL     1       5.958  33.931  62.386  1.00  0.00     0.077 A 
HETATM   15  C   UNL     1       6.035  34.861  63.420  1.00  0.00     0.037 A 
HETATM   16  C   UNL     1       6.821  34.591  64.542  1.00  0.00     0.003 A 
HETATM   17  C   UNL     1       7.529  33.392  64.629  1.00  0.00     0.001 A 
HETATM   18  C   UNL     1       7.454  32.458  63.594  1.00  0.00     0.016 A 
BRANCH  14  19
HETATM   19  O   UNL     1       5.170  34.272  61.320  1.00  0.00    -0.360 OA
HETATM   20  H   UNL     1       5.285  35.233  61.142  1.00  0.00     0.217 HD
ENDBRANCH  14  19
ENDBRANCH  12  13
ENDBRANCH   8  11
ENDBRANCH   5   7
BRANCH   1  21
HETATM   21  C   UNL     1       7.056  26.656  55.747  1.00  0.00    -0.005 A 
HETATM   22  C   UNL     1       6.593  26.140  54.530  1.00  0.00     0.016 A 
HETATM   23  C   UNL     1       6.897  24.830  54.143  1.00  0.00     0.037 A 
HETATM   24  C   UNL     1       7.668  24.018  54.973  1.00  0.00     0.068 A 
HETATM   25  C   UNL     1       8.092  24.509  56.209  1.00  0.00     0.037 A 
HETATM   26  C   UNL     1       7.797  25.820  56.593  1.00  0.00     0.016 A 
BRANCH  24  27
HETATM   27  O   UNL     1       8.046  22.734  54.696  1.00  0.00    -0.351 OA
BRANCH  27  28
HETATM   28  C   UNL     1       8.032  22.368  53.315  1.00  0.00     0.175 C 
BRANCH  28  29
HETATM   29  C   UNL     1       8.174  20.851  53.234  1.00  0.00     0.022 C 
HETATM   30  C   UNL     1       8.384  20.228  54.603  1.00  0.00     0.007 C 
ENDBRANCH  28  29
ENDBRANCH  27  28
ENDBRANCH  24  27
ENDBRANCH   1  21
TORSDOF 8
ENDMDL
MODEL 7
REMARK VINA RESULT:      -8.2      8.930     13.110
REMARK  8 active torsions:
REMARK  status: ('A' for Active; 'I' for Inactive)
REMARK    1  A    between atoms: C_2  and  C_3 
REMARK    2  A    between atoms: C_3  and  O_4 
REMARK    3  A    between atoms: O_4  and  C_5 
REMARK    4  A    between atoms: C_8  and  C_9 
REMARK    5  A    between atoms: C_13  and  C_14 
REMARK       I    between atoms: C_14  and  N_15 
REMARK    6  A    between atoms: N_15  and  N_16 
REMARK    7  A    between atoms: C_17  and  C_18 
REMARK    8  A    between atoms: C_19  and  O_20 
ROOT
HETATM    1  C   UNL     1       5.249  26.180  51.290  1.00  0.00     0.089 A 
HETATM    2  N   UNL     1       4.807  27.411  51.586  1.00  0.00    -0.174 NA
HETATM    3  N   UNL     1       4.082  27.777  50.517  1.00  0.00    -0.272 N 
HETATM    4  H   UNL     1       3.643  28.693  50.509  1.00  0.00     0.189 HD
HETATM    5  C   UNL     1       3.993  26.819  49.546  1.00  0.00     0.121 A 
HETATM    6  C   UNL     1       4.769  25.777  50.013  1.00  0.00     0.071 A 
ENDROOT
BRANCH   5   7
HETATM    7  C   UNL     1       3.198  27.021  48.360  1.00  0.00     0.289 C 
HETATM    8  N   UNL     1       1.829  27.058  48.583  1.00  0.00    -0.242 N 
HETATM    9  H   UNL     1       1.461  26.961  49.519  1.00  0.00     0.192 HD
HETATM   10  O   UNL     1       3.718  27.168  47.257  1.00  0.00    -0.264 OA
BRANCH   8  11
HETATM   11  N   UNL     1       0.974  27.325  47.554  1.00  0.00    -0.183 NA
HETATM   12  C   UNL     1       0.750  28.580  47.325  1.00  0.00     0.153 C 
BRANCH  12  13
HETATM   13  C   UNL     1      -0.135  29.009  46.226  1.00  0.00     0.016 A 
HETATM   14  C   UNL     1      -0.457  28.169  45.154  1.00  0.00     0.077 A 
HETATM   15  C   UNL     1      -1.289  28.623  44.134  1.00  0.00     0.037 A 
HETATM   16  C   UNL     1      -1.803  29.920  44.180  1.00  0.00     0.003 A 
HETATM   17  C   UNL     1      -1.485  30.762  45.245  1.00  0.00     0.001 A 
HETATM   18  C   UNL     1      -0.651  30.310  46.270  1.00  0.00     0.016 A 
BRANCH  14  19
HETATM   19  O   UNL     1       0.008  26.887  45.035  1.00  0.00    -0.360 OA
HETATM   20  H   UNL     1      -0.765  26.277  45.014  1.00  0.00     0.217 HD
ENDBRANCH  14  19
ENDBRANCH  12  13
ENDBRANCH   8  11
ENDBRANCH   5   7
BRANCH   1  21
HETATM   21  C   UNL     1       6.067  25.402  52.222  1.00  0.00    -0.005 A 
HETATM   22  C   UNL     1       5.582  25.084  53.497  1.00  0.00     0.016 A 
HETATM   23  C   UNL     1       6.327  24.282  54.370  1.00  0.00     0.037 A 
HETATM   24  C   UNL     1       7.570  23.791  53.976  1.00  0.00     0.068 A 
HETATM   25  C   UNL     1       8.082  24.144  52.727  1.00  0.00     0.037 A 
HETATM   26  C   UNL     1       7.336  24.937  51.850  1.00  0.00     0.016 A 
BRANCH  24  27
HETATM   27  O   UNL     1       8.378  22.986  54.730  1.00  0.00    -0.351 OA
BRANCH  27  28
HETATM   28  C   UNL     1       7.788  21.766  55.182  1.00  0.00     0.175 C 
BRANCH  28  29
HETATM   29  C   UNL     1       8.546  20.613  54.530  1.00  0.00     0.022 C 
HETATM   30  C   UNL     1       8.193  20.461  53.061  1.00  0.00     0.007 C 
ENDBRANCH  28  29
ENDBRANCH  27  28
ENDBRANCH  24  27
ENDBRANCH   1  21
TORSDOF 8
ENDMDL
MODEL 8
REMARK VINA RESULT:      -8.2      1.843      2.241
REMARK  8 active torsions:
REMARK  status: ('A' for Active; 'I' for Inactive)
REMARK    1  A    between atoms: C_2  and  C_3 
REMARK    2  A    between atoms: C_3  and  O_4 
REMARK    3  A    between atoms: O_4  and  C_5 
REMARK    4  A    between atoms: C_8  and  C_9 
REMARK    5  A    between atoms: C_13  and  C_14 
REMARK       I    between atoms: C_14  and  N_15 
REMARK    6  A    between atoms: N_15  and  N_16 
REMARK    7  A    between atoms: C_17  and  C_18 
REMARK    8  A    between atoms: C_19  and  O_20 
ROOT
HETATM    1  C   UNL     1       7.392  29.419  57.534  1.00  0.00     0.089 A 
HETATM    2  N   UNL     1       8.519  29.132  58.202  1.00  0.00    -0.174 NA
HETATM    3  N   UNL     1       8.578  30.051  59.178  1.00  0.00    -0.272 N 
HETATM    4  H   UNL     1       9.363  30.038  59.822  1.00  0.00     0.189 HD
HETATM    5  C   UNL     1       7.511  30.907  59.207  1.00  0.00     0.121 A 
HETATM    6  C   UNL     1       6.736  30.533  58.128  1.00  0.00     0.071 A 
ENDROOT
BRANCH   5   7
HETATM    7  C   UNL     1       7.381  31.912  60.232  1.00  0.00     0.289 C 
HETATM    8  N   UNL     1       6.157  31.917  60.884  1.00  0.00    -0.242 N 
HETATM    9  H   UNL     1       5.445  31.242  60.638  1.00  0.00     0.192 HD
HETATM   10  O   UNL     1       8.305  32.675  60.502  1.00  0.00    -0.264 OA
BRANCH   8  11
HETATM   11  N   UNL     1       5.940  32.766  61.929  1.00  0.00    -0.183 NA
HETATM   12  C   UNL     1       6.086  32.251  63.108  1.00  0.00     0.153 C 
BRANCH  12  13
HETATM   13  C   UNL     1       5.905  33.064  64.325  1.00  0.00     0.016 A 
HETATM   14  C   UNL     1       4.659  33.579  64.701  1.00  0.00     0.077 A 
HETATM   15  C   UNL     1       4.540  34.352  65.853  1.00  0.00     0.037 A 
HETATM   16  C   UNL     1       5.665  34.615  66.635  1.00  0.00     0.003 A 
HETATM   17  C   UNL     1       6.910  34.105  66.265  1.00  0.00     0.001 A 
HETATM   18  C   UNL     1       7.033  33.329  65.111  1.00  0.00     0.016 A 
BRANCH  14  19
HETATM   19  O   UNL     1       3.510  33.369  63.987  1.00  0.00    -0.360 OA
HETATM   20  H   UNL     1       3.003  32.645  64.420  1.00  0.00     0.217 HD
ENDBRANCH  14  19
ENDBRANCH  12  13
ENDBRANCH   8  11
ENDBRANCH   5   7
BRANCH   1  21
HETATM   21  C   UNL     1       6.940  28.621  56.393  1.00  0.00    -0.005 A 
HETATM   22  C   UNL     1       5.584  28.297  56.246  1.00  0.00     0.016 A 
HETATM   23  C   UNL     1       5.130  27.595  55.124  1.00  0.00     0.037 A 
HETATM   24  C   UNL     1       6.031  27.207  54.133  1.00  0.00     0.068 A 
HETATM   25  C   UNL     1       7.389  27.483  54.295  1.00  0.00     0.037 A 
HETATM   26  C   UNL     1       7.843  28.192  55.411  1.00  0.00     0.016 A 
BRANCH  24  27
HETATM   27  O   UNL     1       5.706  26.538  52.986  1.00  0.00    -0.351 OA
BRANCH  27  28
HETATM   28  C   UNL     1       6.769  25.805  52.374  1.00  0.00     0.175 C 
BRANCH  28  29
HETATM   29  C   UNL     1       6.573  24.330  52.713  1.00  0.00     0.022 C 
HETATM   30  C   UNL     1       7.870  23.671  53.149  1.00  0.00     0.007 C 
ENDBRANCH  28  29
ENDBRANCH  27  28
ENDBRANCH  24  27
ENDBRANCH   1  21
TORSDOF 8
ENDMDL
MODEL 9
REMARK VINA RESULT:      -8.0      8.262     12.291
REMARK  8 active torsions:
REMARK  status: ('A' for Active; 'I' for Inactive)
REMARK    1  A    between atoms: C_2  and  C_3 
REMARK    2  A    between atoms: C_3  and  O_4 
REMARK    3  A    between atoms: O_4  and  C_5 
REMARK    4  A    between atoms: C_8  and  C_9 
REMARK    5  A    between atoms: C_13  and  C_14 
REMARK       I    between atoms: C_14  and  N_15 
REMARK    6  A    between atoms: N_15  and  N_16 
REMARK    7  A    between atoms: C_17  and  C_18 
REMARK    8  A    between atoms: C_19  and  O_20 
ROOT
HETATM    1  C   UNL     1       5.718  25.920  52.524  1.00  0.00     0.089 A 
HETATM    2  N   UNL     1       4.805  26.767  53.021  1.00  0.00    -0.174 NA
HETATM    3  N   UNL     1       4.256  27.345  51.941  1.00  0.00    -0.272 N 
HETATM    4  H   UNL     1       3.528  28.041  52.071  1.00  0.00     0.189 HD
HETATM    5  C   UNL     1       4.740  26.880  50.750  1.00  0.00     0.121 A 
HETATM    6  C   UNL     1       5.715  25.969  51.102  1.00  0.00     0.071 A 
ENDROOT
BRANCH   5   7
HETATM    7  C   UNL     1       4.211  27.343  49.491  1.00  0.00     0.289 C 
HETATM    8  N   UNL     1       3.080  26.669  49.056  1.00  0.00    -0.242 N 
HETATM    9  H   UNL     1       2.682  25.927  49.615  1.00  0.00     0.192 HD
HETATM   10  O   UNL     1       4.728  28.278  48.885  1.00  0.00    -0.264 OA
BRANCH   8  11
HETATM   11  N   UNL     1       2.438  27.067  47.921  1.00  0.00    -0.183 NA
HETATM   12  C   UNL     1       1.318  27.693  48.102  1.00  0.00     0.153 C 
BRANCH  12  13
HETATM   13  C   UNL     1       0.534  28.200  46.960  1.00  0.00     0.016 A 
HETATM   14  C   UNL     1       0.196  29.551  46.827  1.00  0.00     0.077 A 
HETATM   15  C   UNL     1      -0.557  29.981  45.737  1.00  0.00     0.037 A 
HETATM   16  C   UNL     1      -0.976  29.061  44.774  1.00  0.00     0.003 A 
HETATM   17  C   UNL     1      -0.642  27.713  44.902  1.00  0.00     0.001 A 
HETATM   18  C   UNL     1       0.113  27.278  45.993  1.00  0.00     0.016 A 
BRANCH  14  19
HETATM   19  O   UNL     1       0.565  30.513  47.728  1.00  0.00    -0.360 OA
HETATM   20  H   UNL     1       1.524  30.406  47.922  1.00  0.00     0.217 HD
ENDBRANCH  14  19
ENDBRANCH  12  13
ENDBRANCH   8  11
ENDBRANCH   5   7
BRANCH   1  21
HETATM   21  C   UNL     1       6.533  25.061  53.385  1.00  0.00    -0.005 A 
HETATM   22  C   UNL     1       7.469  24.180  52.828  1.00  0.00     0.016 A 
HETATM   23  C   UNL     1       8.301  23.405  53.644  1.00  0.00     0.037 A 
HETATM   24  C   UNL     1       8.206  23.503  55.031  1.00  0.00     0.068 A 
HETATM   25  C   UNL     1       7.243  24.341  55.593  1.00  0.00     0.037 A 
HETATM   26  C   UNL     1       6.417  25.123  54.780  1.00  0.00     0.016 A 
BRANCH  24  27
HETATM   27  O   UNL     1       8.975  22.816  55.927  1.00  0.00    -0.351 OA
BRANCH  27  28
HETATM   28  C   UNL     1       8.358  21.674  56.527  1.00  0.00     0.175 C 
BRANCH  28  29
HETATM   29  C   UNL     1       9.148  20.441  56.100  1.00  0.00     0.022 C 
HETATM   30  C   UNL     1       8.698  19.920  54.747  1.00  0.00     0.007 C 
ENDBRANCH  28  29
ENDBRANCH  27  28
ENDBRANCH  24  27
ENDBRANCH   1  21
TORSDOF 8
ENDMDL
MODEL 10
REMARK VINA RESULT:      -8.0      8.943     12.215
REMARK  8 active torsions:
REMARK  status: ('A' for Active; 'I' for Inactive)
REMARK    1  A    between atoms: C_2  and  C_3 
REMARK    2  A    between atoms: C_3  and  O_4 
REMARK    3  A    between atoms: O_4  and  C_5 
REMARK    4  A    between atoms: C_8  and  C_9 
REMARK    5  A    between atoms: C_13  and  C_14 
REMARK       I    between atoms: C_14  and  N_15 
REMARK    6  A    between atoms: N_15  and  N_16 
REMARK    7  A    between atoms: C_17  and  C_18 
REMARK    8  A    between atoms: C_19  and  O_20 
ROOT
HETATM    1  C   UNL     1       4.943  28.168  49.764  1.00  0.00     0.089 A 
HETATM    2  N   UNL     1       4.329  27.027  49.417  1.00  0.00    -0.174 NA
HETATM    3  N   UNL     1       4.579  26.185  50.431  1.00  0.00    -0.272 N 
HETATM    4  H   UNL     1       4.213  25.238  50.390  1.00  0.00     0.189 HD
HETATM    5  C   UNL     1       5.299  26.738  51.454  1.00  0.00     0.121 A 
HETATM    6  C   UNL     1       5.572  28.024  51.031  1.00  0.00     0.071 A 
ENDROOT
BRANCH   5   7
HETATM    7  C   UNL     1       5.598  25.994  52.652  1.00  0.00     0.289 C 
HETATM    8  N   UNL     1       6.158  24.744  52.431  1.00  0.00    -0.242 N 
HETATM    9  H   UNL     1       6.337  24.425  51.488  1.00  0.00     0.192 HD
HETATM   10  O   UNL     1       5.387  26.463  53.768  1.00  0.00    -0.264 OA
BRANCH   8  11
HETATM   11  N   UNL     1       6.561  23.978  53.484  1.00  0.00    -0.183 NA
HETATM   12  C   UNL     1       7.300  22.957  53.182  1.00  0.00     0.153 C 
BRANCH  12  13
HETATM   13  C   UNL     1       7.825  22.058  54.227  1.00  0.00     0.016 A 
HETATM   14  C   UNL     1       8.174  20.729  53.963  1.00  0.00     0.077 A 
HETATM   15  C   UNL     1       8.655  19.915  54.986  1.00  0.00     0.037 A 
HETATM   16  C   UNL     1       8.789  20.426  56.278  1.00  0.00     0.003 A 
HETATM   17  C   UNL     1       8.442  21.750  56.547  1.00  0.00     0.001 A 
HETATM   18  C   UNL     1       7.960  22.570  55.524  1.00  0.00     0.016 A 
BRANCH  14  19
HETATM   19  O   UNL     1       8.069  20.153  52.726  1.00  0.00    -0.360 OA
HETATM   20  H   UNL     1       8.063  20.868  52.049  1.00  0.00     0.217 HD
ENDBRANCH  14  19
ENDBRANCH  12  13
ENDBRANCH   8  11
ENDBRANCH   5   7
BRANCH   1  21
HETATM   21  C   UNL     1       4.888  29.366  48.926  1.00  0.00    -0.005 A 
HETATM   22  C   UNL     1       5.294  30.607  49.435  1.00  0.00     0.016 A 
HETATM   23  C   UNL     1       5.311  31.747  48.622  1.00  0.00     0.037 A 
HETATM   24  C   UNL     1       4.921  31.657  47.287  1.00  0.00     0.068 A 
HETATM   25  C   UNL     1       4.470  30.436  46.786  1.00  0.00     0.037 A 
HETATM   26  C   UNL     1       4.460  29.295  47.593  1.00  0.00     0.016 A 
BRANCH  24  27
HETATM   27  O   UNL     1       4.915  32.691  46.393  1.00  0.00    -0.351 OA
BRANCH  27  28
HETATM   28  C   UNL     1       5.825  33.757  46.672  1.00  0.00     0.175 C 
BRANCH  28  29
HETATM   29  C   UNL     1       7.052  33.565  45.785  1.00  0.00     0.022 C 
HETATM   30  C   UNL     1       8.177  34.514  46.160  1.00  0.00     0.007 C 
ENDBRANCH  28  29
ENDBRANCH  27  28
ENDBRANCH  24  27
ENDBRANCH   1  21
TORSDOF 8
ENDMDL
