MODEL 1
REMARK VINA RESULT:      -9.1      0.000      0.000
REMARK  3 active torsions:
REMARK  status: ('A' for Active; 'I' for Inactive)
REMARK    1  A    between atoms: C_11  and  N_12 
REMARK       I    between atoms: N_12  and  C_13 
REMARK    2  A    between atoms: C_13  and  C_14 
REMARK    3  A    between atoms: C_15  and  C_16 
ROOT
HETATM    1  N   UNL     1       7.112  26.486  55.751  1.00  0.00    -0.352 N 
HETATM    2  C   UNL     1       6.564  25.376  55.121  1.00  0.00     0.255 C 
HETATM    3  O   UNL     1       5.793  24.617  55.695  1.00  0.00    -0.268 OA
HETATM    4  H   UNL     1       7.516  27.170  55.124  1.00  0.00     0.163 HD
ENDROOT
BRANCH   2   5
HETATM    5  C   UNL     1       6.990  25.181  53.745  1.00  0.00     0.080 A 
HETATM    6  C   UNL     1       7.613  24.026  53.169  1.00  0.00     0.107 A 
HETATM    7  N   UNL     1       7.807  24.197  51.850  1.00  0.00    -0.173 NA
HETATM    8  N   UNL     1       7.336  25.417  51.586  1.00  0.00    -0.288 N 
HETATM    9  H   UNL     1       7.372  25.745  50.625  1.00  0.00     0.188 HD
HETATM   10  C   UNL     1       6.850  26.061  52.685  1.00  0.00     0.128 A 
BRANCH   6  11
HETATM   11  C   UNL     1       8.035  22.783  53.811  1.00  0.00     0.034 A 
HETATM   12  C   UNL     1       8.810  22.788  54.975  1.00  0.00     0.129 A 
HETATM   13  F   UNL     1       9.216  23.943  55.526  1.00  0.00    -0.205 F 
HETATM   14  C   UNL     1       9.207  21.597  55.582  1.00  0.00     0.043 A 
HETATM   15  C   UNL     1       8.843  20.375  55.016  1.00  0.00     0.003 A 
HETATM   16  C   UNL     1       8.090  20.352  53.843  1.00  0.00     0.001 A 
HETATM   17  C   UNL     1       7.690  21.549  53.242  1.00  0.00     0.017 A 
ENDBRANCH   6  11
ENDBRANCH   2   5
BRANCH   1  18
HETATM   18  C   UNL     1       6.682  26.902  57.076  1.00  0.00     0.089 C 
HETATM   19  C   UNL     1       5.356  27.671  57.037  1.00  0.00     0.063 C 
HETATM   20  C   UNL     1       5.449  29.133  56.570  1.00  0.00     0.121 C 
HETATM   21  N   UNL     1       6.587  29.835  57.274  1.00  0.00    -0.059 N 
HETATM   22  C   UNL     1       5.591  29.289  55.052  1.00  0.00     0.046 C 
HETATM   23  C   UNL     1       4.164  29.878  56.992  1.00  0.00     0.046 C 
HETATM   24  C   UNL     1       7.932  29.152  57.422  1.00  0.00     0.121 C 
HETATM   25  H   UNL     1       6.264  30.062  58.226  1.00  0.00     0.279 HD
HETATM   26  H   UNL     1       6.736  30.756  56.836  1.00  0.00     0.279 HD
HETATM   27  C   UNL     1       8.746  29.298  56.134  1.00  0.00     0.046 C 
HETATM   28  C   UNL     1       8.679  29.928  58.528  1.00  0.00     0.046 C 
HETATM   29  C   UNL     1       7.720  27.705  57.878  1.00  0.00     0.063 C 
ENDBRANCH   1  18
TORSDOF 3
ENDMDL
MODEL 2
REMARK VINA RESULT:      -8.7      2.295      3.478
REMARK  3 active torsions:
REMARK  status: ('A' for Active; 'I' for Inactive)
REMARK    1  A    between atoms: C_11  and  N_12 
REMARK       I    between atoms: N_12  and  C_13 
REMARK    2  A    between atoms: C_13  and  C_14 
REMARK    3  A    between atoms: C_15  and  C_16 
ROOT
HETATM    1  N   UNL     1       5.509  26.700  56.054  1.00  0.00    -0.352 N 
HETATM    2  C   UNL     1       5.904  25.385  55.847  1.00  0.00     0.255 C 
HETATM    3  O   UNL     1       5.299  24.635  55.090  1.00  0.00    -0.268 OA
HETATM    4  H   UNL     1       6.212  27.289  56.482  1.00  0.00     0.163 HD
ENDROOT
BRANCH   2   5
HETATM    5  C   UNL     1       7.071  24.970  56.607  1.00  0.00     0.080 A 
HETATM    6  C   UNL     1       7.996  23.918  56.301  1.00  0.00     0.107 A 
HETATM    7  N   UNL     1       8.983  23.872  57.213  1.00  0.00    -0.173 NA
HETATM    8  N   UNL     1       8.703  24.850  58.076  1.00  0.00    -0.288 N 
HETATM    9  H   UNL     1       9.344  25.001  58.850  1.00  0.00     0.188 HD
HETATM   10  C   UNL     1       7.561  25.529  57.775  1.00  0.00     0.128 A 
BRANCH   6  11
HETATM   11  C   UNL     1       7.978  22.960  55.198  1.00  0.00     0.034 A 
HETATM   12  C   UNL     1       8.124  23.370  53.870  1.00  0.00     0.129 A 
HETATM   13  F   UNL     1       8.258  24.671  53.563  1.00  0.00    -0.205 F 
HETATM   14  C   UNL     1       8.107  22.448  52.824  1.00  0.00     0.043 A 
HETATM   15  C   UNL     1       7.926  21.093  53.097  1.00  0.00     0.003 A 
HETATM   16  C   UNL     1       7.755  20.668  54.414  1.00  0.00     0.001 A 
HETATM   17  C   UNL     1       7.779  21.596  55.459  1.00  0.00     0.017 A 
ENDBRANCH   6  11
ENDBRANCH   2   5
BRANCH   1  18
HETATM   18  C   UNL     1       4.450  27.312  55.267  1.00  0.00     0.089 C 
HETATM   19  C   UNL     1       4.778  27.325  53.770  1.00  0.00     0.063 C 
HETATM   20  C   UNL     1       5.783  28.399  53.318  1.00  0.00     0.121 C 
HETATM   21  N   UNL     1       5.419  29.739  53.916  1.00  0.00    -0.059 N 
HETATM   22  C   UNL     1       7.241  28.055  53.641  1.00  0.00     0.046 C 
HETATM   23  C   UNL     1       5.679  28.573  51.788  1.00  0.00     0.046 C 
HETATM   24  C   UNL     1       5.025  29.844  55.376  1.00  0.00     0.121 C 
HETATM   25  H   UNL     1       4.631  30.113  53.368  1.00  0.00     0.279 HD
HETATM   26  H   UNL     1       6.185  30.405  53.736  1.00  0.00     0.279 HD
HETATM   27  C   UNL     1       6.273  29.877  56.261  1.00  0.00     0.046 C 
HETATM   28  C   UNL     1       4.319  31.208  55.523  1.00  0.00     0.046 C 
HETATM   29  C   UNL     1       4.036  28.724  55.716  1.00  0.00     0.063 C 
ENDBRANCH   1  18
TORSDOF 3
ENDMDL
MODEL 3
REMARK VINA RESULT:      -8.6      4.722      7.173
REMARK  3 active torsions:
REMARK  status: ('A' for Active; 'I' for Inactive)
REMARK    1  A    between atoms: C_11  and  N_12 
REMARK       I    between atoms: N_12  and  C_13 
REMARK    2  A    between atoms: C_13  and  C_14 
REMARK    3  A    between atoms: C_15  and  C_16 
ROOT
HETATM    1  N   UNL     1       5.175  27.088  52.070  1.00  0.00    -0.352 N 
HETATM    2  C   UNL     1       4.345  28.152  51.743  1.00  0.00     0.255 C 
HETATM    3  O   UNL     1       3.289  28.358  52.331  1.00  0.00    -0.268 OA
HETATM    4  H   UNL     1       6.118  27.164  51.710  1.00  0.00     0.163 HD
ENDROOT
BRANCH   2   5
HETATM    5  C   UNL     1       4.816  28.982  50.647  1.00  0.00     0.080 A 
HETATM    6  C   UNL     1       4.406  28.947  49.274  1.00  0.00     0.107 A 
HETATM    7  N   UNL     1       5.025  29.909  48.567  1.00  0.00    -0.173 NA
HETATM    8  N   UNL     1       5.808  30.535  49.448  1.00  0.00    -0.288 N 
HETATM    9  H   UNL     1       6.362  31.321  49.119  1.00  0.00     0.188 HD
HETATM   10  C   UNL     1       5.739  30.013  50.704  1.00  0.00     0.128 A 
BRANCH   6  11
HETATM   11  C   UNL     1       3.470  28.044  48.608  1.00  0.00     0.034 A 
HETATM   12  C   UNL     1       3.916  26.983  47.814  1.00  0.00     0.129 A 
HETATM   13  F   UNL     1       5.228  26.779  47.614  1.00  0.00    -0.205 F 
HETATM   14  C   UNL     1       3.015  26.126  47.184  1.00  0.00     0.043 A 
HETATM   15  C   UNL     1       1.644  26.331  47.331  1.00  0.00     0.003 A 
HETATM   16  C   UNL     1       1.181  27.397  48.100  1.00  0.00     0.001 A 
HETATM   17  C   UNL     1       2.089  28.250  48.734  1.00  0.00     0.017 A 
ENDBRANCH   6  11
ENDBRANCH   2   5
BRANCH   1  18
HETATM   18  C   UNL     1       4.921  26.250  53.230  1.00  0.00     0.089 C 
HETATM   19  C   UNL     1       5.423  26.893  54.528  1.00  0.00     0.063 C 
HETATM   20  C   UNL     1       6.941  26.819  54.763  1.00  0.00     0.121 C 
HETATM   21  N   UNL     1       7.443  25.419  54.495  1.00  0.00    -0.059 N 
HETATM   22  C   UNL     1       7.743  27.834  53.943  1.00  0.00     0.046 C 
HETATM   23  C   UNL     1       7.233  27.097  56.253  1.00  0.00     0.046 C 
HETATM   24  C   UNL     1       6.975  24.660  53.269  1.00  0.00     0.121 C 
HETATM   25  H   UNL     1       7.194  24.843  55.313  1.00  0.00     0.279 HD
HETATM   26  H   UNL     1       8.474  25.425  54.500  1.00  0.00     0.279 HD
HETATM   27  C   UNL     1       7.773  25.096  52.038  1.00  0.00     0.046 C 
HETATM   28  C   UNL     1       7.314  23.178  53.537  1.00  0.00     0.046 C 
HETATM   29  C   UNL     1       5.457  24.812  53.127  1.00  0.00     0.063 C 
ENDBRANCH   1  18
TORSDOF 3
ENDMDL
MODEL 4
REMARK VINA RESULT:      -8.2      4.415      6.864
REMARK  3 active torsions:
REMARK  status: ('A' for Active; 'I' for Inactive)
REMARK    1  A    between atoms: C_11  and  N_12 
REMARK       I    between atoms: N_12  and  C_13 
REMARK    2  A    between atoms: C_13  and  C_14 
REMARK    3  A    between atoms: C_15  and  C_16 
ROOT
HETATM    1  N   UNL     1       5.078  27.649  50.273  1.00  0.00    -0.352 N 
HETATM    2  C   UNL     1       5.236  26.740  51.311  1.00  0.00     0.255 C 
HETATM    3  O   UNL     1       4.993  25.547  51.175  1.00  0.00    -0.268 OA
HETATM    4  H   UNL     1       5.545  28.535  50.415  1.00  0.00     0.163 HD
ENDROOT
BRANCH   2   5
HETATM    5  C   UNL     1       5.692  27.316  52.565  1.00  0.00     0.080 A 
HETATM    6  C   UNL     1       6.481  26.694  53.588  1.00  0.00     0.107 A 
HETATM    7  N   UNL     1       6.753  27.565  54.576  1.00  0.00    -0.173 NA
HETATM    8  N   UNL     1       6.157  28.701  54.209  1.00  0.00    -0.288 N 
HETATM    9  H   UNL     1       6.253  29.508  54.820  1.00  0.00     0.188 HD
HETATM   10  C   UNL     1       5.492  28.608  53.024  1.00  0.00     0.128 A 
BRANCH   6  11
HETATM   11  C   UNL     1       6.975  25.322  53.671  1.00  0.00     0.034 A 
HETATM   12  C   UNL     1       6.574  24.460  54.697  1.00  0.00     0.129 A 
HETATM   13  F   UNL     1       5.738  24.882  55.661  1.00  0.00    -0.205 F 
HETATM   14  C   UNL     1       7.050  23.151  54.768  1.00  0.00     0.043 A 
HETATM   15  C   UNL     1       7.952  22.690  53.811  1.00  0.00     0.003 A 
HETATM   16  C   UNL     1       8.382  23.541  52.794  1.00  0.00     0.001 A 
HETATM   17  C   UNL     1       7.897  24.851  52.725  1.00  0.00     0.017 A 
ENDBRANCH   6  11
ENDBRANCH   2   5
BRANCH   1  18
HETATM   18  C   UNL     1       4.766  27.217  48.921  1.00  0.00     0.089 C 
HETATM   19  C   UNL     1       5.216  28.238  47.870  1.00  0.00     0.063 C 
HETATM   20  C   UNL     1       4.316  29.477  47.720  1.00  0.00     0.121 C 
HETATM   21  N   UNL     1       2.865  29.062  47.643  1.00  0.00    -0.059 N 
HETATM   22  C   UNL     1       4.510  30.519  48.826  1.00  0.00     0.046 C 
HETATM   23  C   UNL     1       4.632  30.167  46.375  1.00  0.00     0.046 C 
HETATM   24  C   UNL     1       2.317  28.018  48.596  1.00  0.00     0.121 C 
HETATM   25  H   UNL     1       2.698  28.709  46.689  1.00  0.00     0.279 HD
HETATM   26  H   UNL     1       2.272  29.902  47.704  1.00  0.00     0.279 HD
HETATM   27  C   UNL     1       1.980  28.657  49.946  1.00  0.00     0.046 C 
HETATM   28  C   UNL     1       0.991  27.534  47.972  1.00  0.00     0.046 C 
HETATM   29  C   UNL     1       3.295  26.841  48.678  1.00  0.00     0.063 C 
ENDBRANCH   1  18
TORSDOF 3
ENDMDL
MODEL 5
REMARK VINA RESULT:      -8.1      3.635      5.946
REMARK  3 active torsions:
REMARK  status: ('A' for Active; 'I' for Inactive)
REMARK    1  A    between atoms: C_11  and  N_12 
REMARK       I    between atoms: N_12  and  C_13 
REMARK    2  A    between atoms: C_13  and  C_14 
REMARK    3  A    between atoms: C_15  and  C_16 
ROOT
HETATM    1  N   UNL     1       5.174  28.434  52.436  1.00  0.00    -0.352 N 
HETATM    2  C   UNL     1       6.094  28.094  53.419  1.00  0.00     0.255 C 
HETATM    3  O   UNL     1       7.292  28.319  53.294  1.00  0.00    -0.268 OA
HETATM    4  H   UNL     1       4.211  28.442  52.746  1.00  0.00     0.163 HD
ENDROOT
BRANCH   2   5
HETATM    5  C   UNL     1       5.529  27.440  54.587  1.00  0.00     0.080 A 
HETATM    6  C   UNL     1       5.780  26.112  55.064  1.00  0.00     0.107 A 
HETATM    7  N   UNL     1       5.116  25.883  56.210  1.00  0.00    -0.173 NA
HETATM    8  N   UNL     1       4.457  27.016  56.460  1.00  0.00    -0.288 N 
HETATM    9  H   UNL     1       3.894  27.065  57.305  1.00  0.00     0.188 HD
HETATM   10  C   UNL     1       4.651  27.978  55.514  1.00  0.00     0.128 A 
BRANCH   6  11
HETATM   11  C   UNL     1       6.606  25.058  54.479  1.00  0.00     0.034 A 
HETATM   12  C   UNL     1       6.293  24.483  53.244  1.00  0.00     0.129 A 
HETATM   13  F   UNL     1       5.198  24.865  52.566  1.00  0.00    -0.205 F 
HETATM   14  C   UNL     1       7.088  23.479  52.693  1.00  0.00     0.043 A 
HETATM   15  C   UNL     1       8.209  23.024  53.386  1.00  0.00     0.003 A 
HETATM   16  C   UNL     1       8.523  23.569  54.630  1.00  0.00     0.001 A 
HETATM   17  C   UNL     1       7.726  24.579  55.175  1.00  0.00     0.017 A 
ENDBRANCH   6  11
ENDBRANCH   2   5
BRANCH   1  18
HETATM   18  C   UNL     1       5.554  29.218  51.272  1.00  0.00     0.089 C 
HETATM   19  C   UNL     1       4.508  30.285  50.928  1.00  0.00     0.063 C 
HETATM   20  C   UNL     1       3.246  29.771  50.214  1.00  0.00     0.121 C 
HETATM   21  N   UNL     1       3.626  28.845  49.082  1.00  0.00    -0.059 N 
HETATM   22  C   UNL     1       2.245  29.082  51.148  1.00  0.00     0.046 C 
HETATM   23  C   UNL     1       2.518  30.965  49.560  1.00  0.00     0.046 C 
HETATM   24  C   UNL     1       4.689  27.783  49.287  1.00  0.00     0.121 C 
HETATM   25  H   UNL     1       3.943  29.434  48.299  1.00  0.00     0.279 HD
HETATM   26  H   UNL     1       2.775  28.389  48.722  1.00  0.00     0.279 HD
HETATM   27  C   UNL     1       4.088  26.558  49.981  1.00  0.00     0.046 C 
HETATM   28  C   UNL     1       5.122  27.344  47.873  1.00  0.00     0.046 C 
HETATM   29  C   UNL     1       5.889  28.400  50.014  1.00  0.00     0.063 C 
ENDBRANCH   1  18
TORSDOF 3
ENDMDL
MODEL 6
REMARK VINA RESULT:      -7.9      2.661      3.987
REMARK  3 active torsions:
REMARK  status: ('A' for Active; 'I' for Inactive)
REMARK    1  A    between atoms: C_11  and  N_12 
REMARK       I    between atoms: N_12  and  C_13 
REMARK    2  A    between atoms: C_13  and  C_14 
REMARK    3  A    between atoms: C_15  and  C_16 
ROOT
HETATM    1  N   UNL     1       6.139  28.722  54.700  1.00  0.00    -0.352 N 
HETATM    2  C   UNL     1       4.941  28.544  54.021  1.00  0.00     0.255 C 
HETATM    3  O   UNL     1       3.870  28.436  54.607  1.00  0.00    -0.268 OA
HETATM    4  H   UNL     1       6.903  29.054  54.125  1.00  0.00     0.163 HD
ENDROOT
BRANCH   2   5
HETATM    5  C   UNL     1       5.061  28.479  52.574  1.00  0.00     0.080 A 
HETATM    6  C   UNL     1       5.570  27.402  51.777  1.00  0.00     0.107 A 
HETATM    7  N   UNL     1       5.468  27.688  50.467  1.00  0.00    -0.173 NA
HETATM    8  N   UNL     1       4.922  28.904  50.420  1.00  0.00    -0.288 N 
HETATM    9  H   UNL     1       4.740  29.310  49.507  1.00  0.00     0.188 HD
HETATM   10  C   UNL     1       4.672  29.436  51.650  1.00  0.00     0.128 A 
BRANCH   6  11
HETATM   11  C   UNL     1       6.152  26.131  52.201  1.00  0.00     0.034 A 
HETATM   12  C   UNL     1       5.393  25.165  52.869  1.00  0.00     0.129 A 
HETATM   13  F   UNL     1       4.103  25.391  53.169  1.00  0.00    -0.205 F 
HETATM   14  C   UNL     1       5.956  23.954  53.269  1.00  0.00     0.043 A 
HETATM   15  C   UNL     1       7.303  23.699  53.016  1.00  0.00     0.003 A 
HETATM   16  C   UNL     1       8.082  24.660  52.371  1.00  0.00     0.001 A 
HETATM   17  C   UNL     1       7.510  25.869  51.968  1.00  0.00     0.017 A 
ENDBRANCH   6  11
ENDBRANCH   2   5
BRANCH   1  18
HETATM   18  C   UNL     1       6.177  28.949  56.135  1.00  0.00     0.089 C 
HETATM   19  C   UNL     1       7.327  29.877  56.543  1.00  0.00     0.063 C 
HETATM   20  C   UNL     1       8.723  29.231  56.573  1.00  0.00     0.121 C 
HETATM   21  N   UNL     1       8.670  27.905  57.296  1.00  0.00    -0.059 N 
HETATM   22  C   UNL     1       9.350  29.052  55.186  1.00  0.00     0.046 C 
HETATM   23  C   UNL     1       9.673  30.127  57.396  1.00  0.00     0.046 C 
HETATM   24  C   UNL     1       7.548  26.925  57.015  1.00  0.00     0.121 C 
HETATM   25  H   UNL     1       8.640  28.109  58.305  1.00  0.00     0.279 HD
HETATM   26  H   UNL     1       9.568  27.417  57.167  1.00  0.00     0.279 HD
HETATM   27  C   UNL     1       7.844  26.129  55.742  1.00  0.00     0.046 C 
HETATM   28  C   UNL     1       7.555  25.929  58.194  1.00  0.00     0.046 C 
HETATM   29  C   UNL     1       6.211  27.676  56.997  1.00  0.00     0.063 C 
ENDBRANCH   1  18
TORSDOF 3
ENDMDL
MODEL 7
REMARK VINA RESULT:      -7.7      5.453      7.761
REMARK  3 active torsions:
REMARK  status: ('A' for Active; 'I' for Inactive)
REMARK    1  A    between atoms: C_11  and  N_12 
REMARK       I    between atoms: N_12  and  C_13 
REMARK    2  A    between atoms: C_13  and  C_14 
REMARK    3  A    between atoms: C_15  and  C_16 
ROOT
HETATM    1  N   UNL     1       5.888  31.907  59.637  1.00  0.00    -0.352 N 
HETATM    2  C   UNL     1       5.785  31.762  58.260  1.00  0.00     0.255 C 
HETATM    3  O   UNL     1       5.767  32.726  57.503  1.00  0.00    -0.268 OA
HETATM    4  H   UNL     1       6.152  31.064  60.131  1.00  0.00     0.163 HD
ENDROOT
BRANCH   2   5
HETATM    5  C   UNL     1       5.683  30.389  57.795  1.00  0.00     0.080 A 
HETATM    6  C   UNL     1       6.746  29.499  57.431  1.00  0.00     0.107 A 
HETATM    7  N   UNL     1       6.263  28.287  57.105  1.00  0.00    -0.173 NA
HETATM    8  N   UNL     1       4.941  28.393  57.247  1.00  0.00    -0.288 N 
HETATM    9  H   UNL     1       4.374  27.569  57.063  1.00  0.00     0.188 HD
HETATM   10  C   UNL     1       4.534  29.632  57.640  1.00  0.00     0.128 A 
BRANCH   6  11
HETATM   11  C   UNL     1       8.185  29.749  57.370  1.00  0.00     0.034 A 
HETATM   12  C   UNL     1       8.928  29.473  56.218  1.00  0.00     0.129 A 
HETATM   13  F   UNL     1       8.341  28.939  55.134  1.00  0.00    -0.205 F 
HETATM   14  C   UNL     1      10.300  29.716  56.169  1.00  0.00     0.043 A 
HETATM   15  C   UNL     1      10.953  30.230  57.288  1.00  0.00     0.003 A 
HETATM   16  C   UNL     1      10.233  30.489  58.453  1.00  0.00     0.001 A 
HETATM   17  C   UNL     1       8.857  30.248  58.495  1.00  0.00     0.017 A 
ENDBRANCH   6  11
ENDBRANCH   2   5
BRANCH   1  18
HETATM   18  C   UNL     1       6.139  33.200  60.252  1.00  0.00     0.089 C 
HETATM   19  C   UNL     1       7.267  33.137  61.288  1.00  0.00     0.063 C 
HETATM   20  C   UNL     1       6.886  32.526  62.648  1.00  0.00     0.121 C 
HETATM   21  N   UNL     1       5.584  33.114  63.139  1.00  0.00    -0.059 N 
HETATM   22  C   UNL     1       6.804  30.995  62.635  1.00  0.00     0.046 C 
HETATM   23  C   UNL     1       7.952  32.921  63.693  1.00  0.00     0.046 C 
HETATM   24  C   UNL     1       4.412  33.276  62.191  1.00  0.00     0.121 C 
HETATM   25  H   UNL     1       5.794  34.050  63.514  1.00  0.00     0.279 HD
HETATM   26  H   UNL     1       5.265  32.582  63.962  1.00  0.00     0.279 HD
HETATM   27  C   UNL     1       3.664  31.950  62.039  1.00  0.00     0.046 C 
HETATM   28  C   UNL     1       3.452  34.271  62.876  1.00  0.00     0.046 C 
HETATM   29  C   UNL     1       4.907  33.879  60.872  1.00  0.00     0.063 C 
ENDBRANCH   1  18
TORSDOF 3
ENDMDL
MODEL 8
REMARK VINA RESULT:      -7.7      4.180      6.884
REMARK  3 active torsions:
REMARK  status: ('A' for Active; 'I' for Inactive)
REMARK    1  A    between atoms: C_11  and  N_12 
REMARK       I    between atoms: N_12  and  C_13 
REMARK    2  A    between atoms: C_13  and  C_14 
REMARK    3  A    between atoms: C_15  and  C_16 
ROOT
HETATM    1  N   UNL     1       5.881  27.471  53.382  1.00  0.00    -0.352 N 
HETATM    2  C   UNL     1       5.609  28.380  52.368  1.00  0.00     0.255 C 
HETATM    3  O   UNL     1       6.494  29.023  51.815  1.00  0.00    -0.268 OA
HETATM    4  H   UNL     1       5.129  26.823  53.580  1.00  0.00     0.163 HD
ENDROOT
BRANCH   2   5
HETATM    5  C   UNL     1       4.202  28.519  52.032  1.00  0.00     0.080 A 
HETATM    6  C   UNL     1       3.594  28.468  50.735  1.00  0.00     0.107 A 
HETATM    7  N   UNL     1       2.258  28.580  50.830  1.00  0.00    -0.173 NA
HETATM    8  N   UNL     1       2.013  28.706  52.135  1.00  0.00    -0.288 N 
HETATM    9  H   UNL     1       1.045  28.790  52.433  1.00  0.00     0.188 HD
HETATM   10  C   UNL     1       3.139  28.695  52.903  1.00  0.00     0.128 A 
BRANCH   6  11
HETATM   11  C   UNL     1       4.221  28.328  49.423  1.00  0.00     0.034 A 
HETATM   12  C   UNL     1       4.664  27.088  48.952  1.00  0.00     0.129 A 
HETATM   13  F   UNL     1       4.551  25.985  49.709  1.00  0.00    -0.205 F 
HETATM   14  C   UNL     1       5.261  26.964  47.697  1.00  0.00     0.043 A 
HETATM   15  C   UNL     1       5.436  28.093  46.898  1.00  0.00     0.003 A 
HETATM   16  C   UNL     1       5.021  29.342  47.361  1.00  0.00     0.001 A 
HETATM   17  C   UNL     1       4.419  29.459  48.617  1.00  0.00     0.017 A 
ENDBRANCH   6  11
ENDBRANCH   2   5
BRANCH   1  18
HETATM   18  C   UNL     1       7.243  27.111  53.739  1.00  0.00     0.089 C 
HETATM   19  C   UNL     1       7.739  25.885  52.963  1.00  0.00     0.063 C 
HETATM   20  C   UNL     1       7.213  24.527  53.459  1.00  0.00     0.121 C 
HETATM   21  N   UNL     1       7.334  24.438  54.962  1.00  0.00    -0.059 N 
HETATM   22  C   UNL     1       5.773  24.227  53.026  1.00  0.00     0.046 C 
HETATM   23  C   UNL     1       8.107  23.404  52.892  1.00  0.00     0.046 C 
HETATM   24  C   UNL     1       6.926  25.608  55.834  1.00  0.00     0.121 C 
HETATM   25  H   UNL     1       8.322  24.239  55.177  1.00  0.00     0.279 HD
HETATM   26  H   UNL     1       6.835  23.598  55.290  1.00  0.00     0.279 HD
HETATM   27  C   UNL     1       5.409  25.615  56.037  1.00  0.00     0.046 C 
HETATM   28  C   UNL     1       7.574  25.353  57.211  1.00  0.00     0.046 C 
HETATM   29  C   UNL     1       7.492  26.904  55.242  1.00  0.00     0.063 C 
ENDBRANCH   1  18
TORSDOF 3
ENDMDL
MODEL 9
REMARK VINA RESULT:      -7.6      5.592      8.273
REMARK  3 active torsions:
REMARK  status: ('A' for Active; 'I' for Inactive)
REMARK    1  A    between atoms: C_11  and  N_12 
REMARK       I    between atoms: N_12  and  C_13 
REMARK    2  A    between atoms: C_13  and  C_14 
REMARK    3  A    between atoms: C_15  and  C_16 
ROOT
HETATM    1  N   UNL     1       4.608  32.257  60.471  1.00  0.00    -0.352 N 
HETATM    2  C   UNL     1       3.739  31.749  59.515  1.00  0.00     0.255 C 
HETATM    3  O   UNL     1       2.790  31.033  59.812  1.00  0.00    -0.268 OA
HETATM    4  H   UNL     1       5.182  33.027  60.152  1.00  0.00     0.163 HD
ENDROOT
BRANCH   2   5
HETATM    5  C   UNL     1       4.054  32.117  58.144  1.00  0.00     0.080 A 
HETATM    6  C   UNL     1       4.976  31.482  57.249  1.00  0.00     0.107 A 
HETATM    7  N   UNL     1       4.953  32.074  56.042  1.00  0.00    -0.173 NA
HETATM    8  N   UNL     1       4.057  33.056  56.156  1.00  0.00    -0.288 N 
HETATM    9  H   UNL     1       3.871  33.629  55.338  1.00  0.00     0.188 HD
HETATM   10  C   UNL     1       3.500  33.142  57.396  1.00  0.00     0.128 A 
BRANCH   6  11
HETATM   11  C   UNL     1       5.875  30.355  57.490  1.00  0.00     0.034 A 
HETATM   12  C   UNL     1       7.091  30.520  58.160  1.00  0.00     0.129 A 
HETATM   13  F   UNL     1       7.485  31.733  58.580  1.00  0.00    -0.205 F 
HETATM   14  C   UNL     1       7.942  29.439  58.386  1.00  0.00     0.043 A 
HETATM   15  C   UNL     1       7.589  28.171  57.927  1.00  0.00     0.003 A 
HETATM   16  C   UNL     1       6.391  27.992  57.236  1.00  0.00     0.001 A 
HETATM   17  C   UNL     1       5.540  29.078  57.017  1.00  0.00     0.017 A 
ENDBRANCH   6  11
ENDBRANCH   2   5
BRANCH   1  18
HETATM   18  C   UNL     1       4.354  32.101  61.894  1.00  0.00     0.089 C 
HETATM   19  C   UNL     1       3.582  33.290  62.476  1.00  0.00     0.063 C 
HETATM   20  C   UNL     1       4.411  34.561  62.728  1.00  0.00     0.121 C 
HETATM   21  N   UNL     1       5.699  34.213  63.437  1.00  0.00    -0.059 N 
HETATM   22  C   UNL     1       4.707  35.367  61.459  1.00  0.00     0.046 C 
HETATM   23  C   UNL     1       3.633  35.486  63.689  1.00  0.00     0.046 C 
HETATM   24  C   UNL     1       6.523  33.024  62.985  1.00  0.00     0.121 C 
HETATM   25  H   UNL     1       5.468  34.054  64.429  1.00  0.00     0.279 HD
HETATM   26  H   UNL     1       6.308  35.044  63.454  1.00  0.00     0.279 HD
HETATM   27  C   UNL     1       7.384  33.402  61.777  1.00  0.00     0.046 C 
HETATM   28  C   UNL     1       7.482  32.708  64.153  1.00  0.00     0.046 C 
HETATM   29  C   UNL     1       5.598  31.824  62.754  1.00  0.00     0.063 C 
ENDBRANCH   1  18
TORSDOF 3
ENDMDL
MODEL 10
REMARK VINA RESULT:      -7.6      4.041      6.027
REMARK  3 active torsions:
REMARK  status: ('A' for Active; 'I' for Inactive)
REMARK    1  A    between atoms: C_11  and  N_12 
REMARK       I    between atoms: N_12  and  C_13 
REMARK    2  A    between atoms: C_13  and  C_14 
REMARK    3  A    between atoms: C_15  and  C_16 
ROOT
HETATM    1  N   UNL     1       6.471  28.570  53.779  1.00  0.00    -0.352 N 
HETATM    2  C   UNL     1       5.782  27.999  52.716  1.00  0.00     0.255 C 
HETATM    3  O   UNL     1       6.199  27.010  52.126  1.00  0.00    -0.268 OA
HETATM    4  H   UNL     1       5.922  29.204  54.345  1.00  0.00     0.163 HD
ENDROOT
BRANCH   2   5
HETATM    5  C   UNL     1       4.547  28.675  52.355  1.00  0.00     0.080 A 
HETATM    6  C   UNL     1       3.899  28.706  51.077  1.00  0.00     0.107 A 
HETATM    7  N   UNL     1       2.742  29.388  51.146  1.00  0.00    -0.173 NA
HETATM    8  N   UNL     1       2.650  29.786  52.415  1.00  0.00    -0.288 N 
HETATM    9  H   UNL     1       1.826  30.314  52.691  1.00  0.00     0.188 HD
HETATM   10  C   UNL     1       3.709  29.405  53.182  1.00  0.00     0.128 A 
BRANCH   6  11
HETATM   11  C   UNL     1       4.330  28.132  49.805  1.00  0.00     0.034 A 
HETATM   12  C   UNL     1       5.146  28.843  48.919  1.00  0.00     0.129 A 
HETATM   13  F   UNL     1       5.537  30.097  49.202  1.00  0.00    -0.205 F 
HETATM   14  C   UNL     1       5.554  28.286  47.708  1.00  0.00     0.043 A 
HETATM   15  C   UNL     1       5.134  27.004  47.358  1.00  0.00     0.003 A 
HETATM   16  C   UNL     1       4.301  26.288  48.218  1.00  0.00     0.001 A 
HETATM   17  C   UNL     1       3.900  26.850  49.433  1.00  0.00     0.017 A 
ENDBRANCH   6  11
ENDBRANCH   2   5
BRANCH   1  18
HETATM   18  C   UNL     1       7.646  27.936  54.355  1.00  0.00     0.089 C 
HETATM   19  C   UNL     1       7.309  26.602  55.031  1.00  0.00     0.063 C 
HETATM   20  C   UNL     1       6.645  26.708  56.415  1.00  0.00     0.121 C 
HETATM   21  N   UNL     1       7.386  27.705  57.275  1.00  0.00    -0.059 N 
HETATM   22  C   UNL     1       5.155  27.063  56.359  1.00  0.00     0.046 C 
HETATM   23  C   UNL     1       6.768  25.349  57.136  1.00  0.00     0.046 C 
HETATM   24  C   UNL     1       7.819  29.039  56.700  1.00  0.00     0.121 C 
HETATM   25  H   UNL     1       8.239  27.238  57.617  1.00  0.00     0.279 HD
HETATM   26  H   UNL     1       6.839  27.881  58.131  1.00  0.00     0.279 HD
HETATM   27  C   UNL     1       6.648  30.025  56.707  1.00  0.00     0.046 C 
HETATM   28  C   UNL     1       8.888  29.587  57.669  1.00  0.00     0.046 C 
HETATM   29  C   UNL     1       8.453  28.816  55.323  1.00  0.00     0.063 C 
ENDBRANCH   1  18
TORSDOF 3
ENDMDL
