MODEL 1
REMARK VINA RESULT:      -9.0      0.000      0.000
REMARK  6 active torsions:
REMARK  status: ('A' for Active; 'I' for Inactive)
REMARK    1  A    between atoms: C_2  and  O_3 
REMARK    2  A    between atoms: O_3  and  C_4 
REMARK    3  A    between atoms: C_8  and  C_9 
REMARK    4  A    between atoms: C_9  and  N_10 
REMARK       I    between atoms: N_10  and  C_11 
REMARK       I    between atoms: C_11  and  N_12 
REMARK    5  A    between atoms: N_12  and  C_13 
REMARK    6  A    between atoms: C_14  and  C_15 
ROOT
HETATM    1  N   UNL     1       7.590  28.678  56.920  1.00  0.00    -0.339 N 
HETATM    2  C   UNL     1       7.091  27.399  56.918  1.00  0.00     0.316 C 
HETATM    3  N   UNL     1       7.972  26.512  56.346  1.00  0.00    -0.338 N 
HETATM    4  O   UNL     1       6.003  27.089  57.389  1.00  0.00    -0.247 OA
HETATM    5  H   UNL     1       8.596  28.757  56.906  1.00  0.00     0.164 HD
HETATM    6  H   UNL     1       8.612  26.899  55.668  1.00  0.00     0.164 HD
ENDROOT
BRANCH   1   7
HETATM    7  C   UNL     1       6.869  29.754  57.564  1.00  0.00     0.163 C 
BRANCH   7   8
HETATM    8  C   UNL     1       7.783  30.649  58.358  1.00  0.00    -0.035 A 
HETATM    9  C   UNL     1       9.127  30.802  58.006  1.00  0.00     0.028 A 
HETATM   10  C   UNL     1       9.930  31.627  58.774  1.00  0.00     0.120 A 
HETATM   11  N   UNL     1       9.497  32.291  59.867  1.00  0.00    -0.237 NA
HETATM   12  C   UNL     1       8.209  32.120  60.208  1.00  0.00     0.165 A 
HETATM   13  C   UNL     1       7.319  31.337  59.484  1.00  0.00     0.066 A 
BRANCH  12  14
HETATM   14  O   UNL     1       7.687  32.757  61.311  1.00  0.00    -0.324 OA
BRANCH  14  15
HETATM   15  C   UNL     1       7.464  32.010  62.522  1.00  0.00     0.058 C 
HETATM   16  C   UNL     1       8.348  30.758  62.614  1.00  0.00     0.045 C 
HETATM   17  C   UNL     1       5.980  31.694  62.768  1.00  0.00     0.045 C 
HETATM   18  C   UNL     1       7.918  32.977  63.635  1.00  0.00     0.045 C 
ENDBRANCH  14  15
ENDBRANCH  12  14
ENDBRANCH   7   8
ENDBRANCH   1   7
BRANCH   3  19
HETATM   19  C   UNL     1       7.709  25.103  56.294  1.00  0.00     0.095 A 
HETATM   20  C   UNL     1       8.790  24.106  55.928  1.00  0.00     0.043 A 
HETATM   21  C   UNL     1       8.290  24.209  57.349  1.00  0.00     0.037 A 
BRANCH  20  22
HETATM   22  C   UNL     1       8.445  22.884  55.107  1.00  0.00    -0.052 A 
HETATM   23  C   UNL     1       8.238  21.632  55.709  1.00  0.00     0.007 A 
HETATM   24  C   UNL     1       7.921  20.502  54.950  1.00  0.00     0.001 A 
HETATM   25  C   UNL     1       7.798  20.604  53.567  1.00  0.00     0.000 A 
HETATM   26  C   UNL     1       7.986  21.835  52.947  1.00  0.00     0.001 A 
HETATM   27  C   UNL     1       8.302  22.961  53.711  1.00  0.00     0.007 A 
ENDBRANCH  20  22
ENDBRANCH   3  19
TORSDOF 6
ENDMDL
MODEL 2
REMARK VINA RESULT:      -9.0      1.766      2.520
REMARK  6 active torsions:
REMARK  status: ('A' for Active; 'I' for Inactive)
REMARK    1  A    between atoms: C_2  and  O_3 
REMARK    2  A    between atoms: O_3  and  C_4 
REMARK    3  A    between atoms: C_8  and  C_9 
REMARK    4  A    between atoms: C_9  and  N_10 
REMARK       I    between atoms: N_10  and  C_11 
REMARK       I    between atoms: C_11  and  N_12 
REMARK    5  A    between atoms: N_12  and  C_13 
REMARK    6  A    between atoms: C_14  and  C_15 
ROOT
HETATM    1  N   UNL     1       6.681  28.067  55.075  1.00  0.00    -0.339 N 
HETATM    2  C   UNL     1       7.092  26.759  55.000  1.00  0.00     0.316 C 
HETATM    3  N   UNL     1       7.448  26.412  53.718  1.00  0.00    -0.338 N 
HETATM    4  O   UNL     1       7.151  26.004  55.963  1.00  0.00    -0.247 OA
HETATM    5  H   UNL     1       7.052  28.685  54.369  1.00  0.00     0.164 HD
HETATM    6  H   UNL     1       7.006  26.938  52.978  1.00  0.00     0.164 HD
ENDROOT
BRANCH   1   7
HETATM    7  C   UNL     1       6.356  28.669  56.349  1.00  0.00     0.163 C 
BRANCH   7   8
HETATM    8  C   UNL     1       7.570  29.249  57.026  1.00  0.00    -0.035 A 
HETATM    9  C   UNL     1       8.712  29.583  56.293  1.00  0.00     0.028 A 
HETATM   10  C   UNL     1       9.807  30.102  56.963  1.00  0.00     0.120 A 
HETATM   11  N   UNL     1       9.850  30.294  58.298  1.00  0.00    -0.237 NA
HETATM   12  C   UNL     1       8.753  29.948  58.995  1.00  0.00     0.165 A 
HETATM   13  C   UNL     1       7.597  29.449  58.409  1.00  0.00     0.066 A 
BRANCH  12  14
HETATM   14  O   UNL     1       8.713  30.108  60.361  1.00  0.00    -0.324 OA
BRANCH  14  15
HETATM   15  C   UNL     1       8.519  31.423  60.916  1.00  0.00     0.058 C 
HETATM   16  C   UNL     1       7.673  32.326  60.009  1.00  0.00     0.045 C 
HETATM   17  C   UNL     1       9.835  32.093  61.343  1.00  0.00     0.045 C 
HETATM   18  C   UNL     1       7.701  31.160  62.197  1.00  0.00     0.045 C 
ENDBRANCH  14  15
ENDBRANCH  12  14
ENDBRANCH   7   8
ENDBRANCH   1   7
BRANCH   3  19
HETATM   19  C   UNL     1       7.981  25.120  53.398  1.00  0.00     0.095 A 
HETATM   20  C   UNL     1       7.093  23.896  53.297  1.00  0.00     0.043 A 
HETATM   21  C   UNL     1       7.688  24.517  52.056  1.00  0.00     0.037 A 
BRANCH  20  22
HETATM   22  C   UNL     1       7.599  22.553  53.771  1.00  0.00    -0.052 A 
HETATM   23  C   UNL     1       7.553  22.189  55.127  1.00  0.00     0.007 A 
HETATM   24  C   UNL     1       8.023  20.948  55.565  1.00  0.00     0.001 A 
HETATM   25  C   UNL     1       8.545  20.038  54.649  1.00  0.00     0.000 A 
HETATM   26  C   UNL     1       8.591  20.369  53.298  1.00  0.00     0.001 A 
HETATM   27  C   UNL     1       8.119  21.611  52.867  1.00  0.00     0.007 A 
ENDBRANCH  20  22
ENDBRANCH   3  19
TORSDOF 6
ENDMDL
MODEL 3
REMARK VINA RESULT:      -8.7      1.563      2.036
REMARK  6 active torsions:
REMARK  status: ('A' for Active; 'I' for Inactive)
REMARK    1  A    between atoms: C_2  and  O_3 
REMARK    2  A    between atoms: O_3  and  C_4 
REMARK    3  A    between atoms: C_8  and  C_9 
REMARK    4  A    between atoms: C_9  and  N_10 
REMARK       I    between atoms: N_10  and  C_11 
REMARK       I    between atoms: C_11  and  N_12 
REMARK    5  A    between atoms: N_12  and  C_13 
REMARK    6  A    between atoms: C_14  and  C_15 
ROOT
HETATM    1  N   UNL     1       6.960  29.284  58.129  1.00  0.00    -0.339 N 
HETATM    2  C   UNL     1       7.156  28.664  56.920  1.00  0.00     0.316 C 
HETATM    3  N   UNL     1       6.947  27.307  57.007  1.00  0.00    -0.338 N 
HETATM    4  O   UNL     1       7.458  29.253  55.890  1.00  0.00    -0.247 OA
HETATM    5  H   UNL     1       6.338  28.814  58.769  1.00  0.00     0.164 HD
HETATM    6  H   UNL     1       7.095  26.894  57.916  1.00  0.00     0.164 HD
ENDROOT
BRANCH   1   7
HETATM    7  C   UNL     1       7.030  30.725  58.242  1.00  0.00     0.163 C 
BRANCH   7   8
HETATM    8  C   UNL     1       7.651  31.158  59.544  1.00  0.00    -0.035 A 
HETATM    9  C   UNL     1       8.737  30.468  60.090  1.00  0.00     0.028 A 
HETATM   10  C   UNL     1       9.265  30.899  61.295  1.00  0.00     0.120 A 
HETATM   11  N   UNL     1       8.782  31.948  61.995  1.00  0.00    -0.237 NA
HETATM   12  C   UNL     1       7.724  32.590  61.471  1.00  0.00     0.165 A 
HETATM   13  C   UNL     1       7.145  32.251  60.255  1.00  0.00     0.066 A 
BRANCH  12  14
HETATM   14  O   UNL     1       7.167  33.667  62.121  1.00  0.00    -0.324 OA
BRANCH  14  15
HETATM   15  C   UNL     1       6.442  33.456  63.348  1.00  0.00     0.058 C 
HETATM   16  C   UNL     1       7.358  33.444  64.580  1.00  0.00     0.045 C 
HETATM   17  C   UNL     1       5.519  32.229  63.295  1.00  0.00     0.045 C 
HETATM   18  C   UNL     1       5.541  34.704  63.457  1.00  0.00     0.045 C 
ENDBRANCH  14  15
ENDBRANCH  12  14
ENDBRANCH   7   8
ENDBRANCH   1   7
BRANCH   3  19
HETATM   19  C   UNL     1       7.018  26.450  55.859  1.00  0.00     0.095 A 
HETATM   20  C   UNL     1       6.627  24.987  55.935  1.00  0.00     0.043 A 
HETATM   21  C   UNL     1       5.748  25.981  55.214  1.00  0.00     0.037 A 
BRANCH  20  22
HETATM   22  C   UNL     1       7.393  23.958  55.134  1.00  0.00    -0.052 A 
HETATM   23  C   UNL     1       8.465  23.244  55.695  1.00  0.00     0.007 A 
HETATM   24  C   UNL     1       9.174  22.294  54.954  1.00  0.00     0.001 A 
HETATM   25  C   UNL     1       8.818  22.033  53.634  1.00  0.00     0.000 A 
HETATM   26  C   UNL     1       7.752  22.717  53.059  1.00  0.00     0.001 A 
HETATM   27  C   UNL     1       7.047  23.665  53.804  1.00  0.00     0.007 A 
ENDBRANCH  20  22
ENDBRANCH   3  19
TORSDOF 6
ENDMDL
MODEL 4
REMARK VINA RESULT:      -8.7      1.951     10.322
REMARK  6 active torsions:
REMARK  status: ('A' for Active; 'I' for Inactive)
REMARK    1  A    between atoms: C_2  and  O_3 
REMARK    2  A    between atoms: O_3  and  C_4 
REMARK    3  A    between atoms: C_8  and  C_9 
REMARK    4  A    between atoms: C_9  and  N_10 
REMARK       I    between atoms: N_10  and  C_11 
REMARK       I    between atoms: C_11  and  N_12 
REMARK    5  A    between atoms: N_12  and  C_13 
REMARK    6  A    between atoms: C_14  and  C_15 
ROOT
HETATM    1  N   UNL     1       8.302  29.056  58.015  1.00  0.00    -0.339 N 
HETATM    2  C   UNL     1       7.859  30.108  58.778  1.00  0.00     0.316 C 
HETATM    3  N   UNL     1       8.705  30.360  59.833  1.00  0.00    -0.338 N 
HETATM    4  O   UNL     1       6.846  30.752  58.533  1.00  0.00    -0.247 OA
HETATM    5  H   UNL     1       9.295  28.882  58.041  1.00  0.00     0.164 HD
HETATM    6  H   UNL     1       9.247  29.574  60.163  1.00  0.00     0.164 HD
ENDROOT
BRANCH   1   7
HETATM    7  C   UNL     1       7.616  28.684  56.797  1.00  0.00     0.163 C 
BRANCH   7   8
HETATM    8  C   UNL     1       7.607  27.192  56.588  1.00  0.00    -0.035 A 
HETATM    9  C   UNL     1       8.384  26.348  57.385  1.00  0.00     0.028 A 
HETATM   10  C   UNL     1       8.351  24.985  57.146  1.00  0.00     0.120 A 
HETATM   11  N   UNL     1       7.619  24.411  56.168  1.00  0.00    -0.237 NA
HETATM   12  C   UNL     1       6.892  25.235  55.394  1.00  0.00     0.165 A 
HETATM   13  C   UNL     1       6.838  26.612  55.575  1.00  0.00     0.066 A 
BRANCH  12  14
HETATM   14  O   UNL     1       6.120  24.734  54.371  1.00  0.00    -0.324 OA
BRANCH  14  15
HETATM   15  C   UNL     1       6.725  24.467  53.091  1.00  0.00     0.058 C 
HETATM   16  C   UNL     1       7.263  23.034  52.980  1.00  0.00     0.045 C 
HETATM   17  C   UNL     1       7.776  25.516  52.695  1.00  0.00     0.045 C 
HETATM   18  C   UNL     1       5.551  24.597  52.099  1.00  0.00     0.045 C 
ENDBRANCH  14  15
ENDBRANCH  12  14
ENDBRANCH   7   8
ENDBRANCH   1   7
BRANCH   3  19
HETATM   19  C   UNL     1       8.496  31.458  60.731  1.00  0.00     0.095 A 
HETATM   20  C   UNL     1       8.446  31.258  62.233  1.00  0.00     0.043 A 
HETATM   21  C   UNL     1       9.633  31.932  61.588  1.00  0.00     0.037 A 
BRANCH  20  22
HETATM   22  C   UNL     1       7.494  32.078  63.074  1.00  0.00    -0.052 A 
HETATM   23  C   UNL     1       6.102  31.942  62.947  1.00  0.00     0.007 A 
HETATM   24  C   UNL     1       5.222  32.702  63.723  1.00  0.00     0.001 A 
HETATM   25  C   UNL     1       5.720  33.612  64.651  1.00  0.00     0.000 A 
HETATM   26  C   UNL     1       7.095  33.756  64.806  1.00  0.00     0.001 A 
HETATM   27  C   UNL     1       7.969  32.994  64.028  1.00  0.00     0.007 A 
ENDBRANCH  20  22
ENDBRANCH   3  19
TORSDOF 6
ENDMDL
MODEL 5
REMARK VINA RESULT:      -8.5      1.896     10.374
REMARK  6 active torsions:
REMARK  status: ('A' for Active; 'I' for Inactive)
REMARK    1  A    between atoms: C_2  and  O_3 
REMARK    2  A    between atoms: O_3  and  C_4 
REMARK    3  A    between atoms: C_8  and  C_9 
REMARK    4  A    between atoms: C_9  and  N_10 
REMARK       I    between atoms: N_10  and  C_11 
REMARK       I    between atoms: C_11  and  N_12 
REMARK    5  A    between atoms: N_12  and  C_13 
REMARK    6  A    between atoms: C_14  and  C_15 
ROOT
HETATM    1  N   UNL     1       8.134  28.630  58.163  1.00  0.00    -0.339 N 
HETATM    2  C   UNL     1       8.344  29.912  58.609  1.00  0.00     0.316 C 
HETATM    3  N   UNL     1       7.955  30.062  59.920  1.00  0.00    -0.338 N 
HETATM    4  O   UNL     1       8.837  30.801  57.927  1.00  0.00    -0.247 OA
HETATM    5  H   UNL     1       8.130  27.913  58.872  1.00  0.00     0.164 HD
HETATM    6  H   UNL     1       7.234  29.432  60.242  1.00  0.00     0.164 HD
ENDROOT
BRANCH   1   7
HETATM    7  C   UNL     1       8.565  28.226  56.843  1.00  0.00     0.163 C 
BRANCH   7   8
HETATM    8  C   UNL     1       7.576  27.300  56.185  1.00  0.00    -0.035 A 
HETATM    9  C   UNL     1       6.526  27.800  55.410  1.00  0.00     0.028 A 
HETATM   10  C   UNL     1       5.636  26.908  54.836  1.00  0.00     0.120 A 
HETATM   11  N   UNL     1       5.707  25.570  54.992  1.00  0.00    -0.237 NA
HETATM   12  C   UNL     1       6.709  25.102  55.757  1.00  0.00     0.165 A 
HETATM   13  C   UNL     1       7.667  25.914  56.349  1.00  0.00     0.066 A 
BRANCH  12  14
HETATM   14  O   UNL     1       6.853  23.750  55.970  1.00  0.00    -0.324 OA
BRANCH  14  15
HETATM   15  C   UNL     1       7.798  23.004  55.179  1.00  0.00     0.058 C 
HETATM   16  C   UNL     1       9.252  23.269  55.592  1.00  0.00     0.045 C 
HETATM   17  C   UNL     1       7.581  23.176  53.667  1.00  0.00     0.045 C 
HETATM   18  C   UNL     1       7.481  21.535  55.524  1.00  0.00     0.045 C 
ENDBRANCH  14  15
ENDBRANCH  12  14
ENDBRANCH   7   8
ENDBRANCH   1   7
BRANCH   3  19
HETATM   19  C   UNL     1       8.143  31.291  60.634  1.00  0.00     0.095 A 
HETATM   20  C   UNL     1       8.075  31.348  62.147  1.00  0.00     0.043 A 
HETATM   21  C   UNL     1       9.397  31.491  61.432  1.00  0.00     0.037 A 
BRANCH  20  22
HETATM   22  C   UNL     1       7.469  32.553  62.832  1.00  0.00    -0.052 A 
HETATM   23  C   UNL     1       6.588  33.413  62.156  1.00  0.00     0.007 A 
HETATM   24  C   UNL     1       6.029  34.527  62.788  1.00  0.00     0.001 A 
HETATM   25  C   UNL     1       6.336  34.800  64.118  1.00  0.00     0.000 A 
HETATM   26  C   UNL     1       7.196  33.956  64.815  1.00  0.00     0.001 A 
HETATM   27  C   UNL     1       7.750  32.844  64.177  1.00  0.00     0.007 A 
ENDBRANCH  20  22
ENDBRANCH   3  19
TORSDOF 6
ENDMDL
MODEL 6
REMARK VINA RESULT:      -8.3      2.509      4.428
REMARK  6 active torsions:
REMARK  status: ('A' for Active; 'I' for Inactive)
REMARK    1  A    between atoms: C_2  and  O_3 
REMARK    2  A    between atoms: O_3  and  C_4 
REMARK    3  A    between atoms: C_8  and  C_9 
REMARK    4  A    between atoms: C_9  and  N_10 
REMARK       I    between atoms: N_10  and  C_11 
REMARK       I    between atoms: C_11  and  N_12 
REMARK    5  A    between atoms: N_12  and  C_13 
REMARK    6  A    between atoms: C_14  and  C_15 
ROOT
HETATM    1  N   UNL     1       7.573  30.777  60.136  1.00  0.00    -0.339 N 
HETATM    2  C   UNL     1       8.189  30.096  59.115  1.00  0.00     0.316 C 
HETATM    3  N   UNL     1       7.414  29.055  58.659  1.00  0.00    -0.338 N 
HETATM    4  O   UNL     1       9.284  30.396  58.656  1.00  0.00    -0.247 OA
HETATM    5  H   UNL     1       6.565  30.730  60.150  1.00  0.00     0.164 HD
HETATM    6  H   UNL     1       6.763  28.664  59.325  1.00  0.00     0.164 HD
ENDROOT
BRANCH   1   7
HETATM    7  C   UNL     1       8.169  31.970  60.696  1.00  0.00     0.163 C 
BRANCH   7   8
HETATM    8  C   UNL     1       7.514  32.373  61.990  1.00  0.00    -0.035 A 
HETATM    9  C   UNL     1       8.271  32.590  63.144  1.00  0.00     0.028 A 
HETATM   10  C   UNL     1       7.621  32.948  64.313  1.00  0.00     0.120 A 
HETATM   11  N   UNL     1       6.283  33.088  64.416  1.00  0.00    -0.237 NA
HETATM   12  C   UNL     1       5.563  32.856  63.305  1.00  0.00     0.165 A 
HETATM   13  C   UNL     1       6.126  32.521  62.080  1.00  0.00     0.066 A 
BRANCH  12  14
HETATM   14  O   UNL     1       4.192  32.972  63.323  1.00  0.00    -0.324 OA
BRANCH  14  15
HETATM   15  C   UNL     1       3.593  34.263  63.546  1.00  0.00     0.058 C 
HETATM   16  C   UNL     1       4.326  35.389  62.804  1.00  0.00     0.045 C 
HETATM   17  C   UNL     1       3.390  34.580  65.036  1.00  0.00     0.045 C 
HETATM   18  C   UNL     1       2.193  34.129  62.911  1.00  0.00     0.045 C 
ENDBRANCH  14  15
ENDBRANCH  12  14
ENDBRANCH   7   8
ENDBRANCH   1   7
BRANCH   3  19
HETATM   19  C   UNL     1       7.808  28.241  57.547  1.00  0.00     0.095 A 
HETATM   20  C   UNL     1       6.918  27.135  57.016  1.00  0.00     0.043 A 
HETATM   21  C   UNL     1       7.110  28.409  56.230  1.00  0.00     0.037 A 
BRANCH  20  22
HETATM   22  C   UNL     1       7.531  25.850  56.507  1.00  0.00    -0.052 A 
HETATM   23  C   UNL     1       7.434  25.477  55.156  1.00  0.00     0.007 A 
HETATM   24  C   UNL     1       7.999  24.288  54.686  1.00  0.00     0.001 A 
HETATM   25  C   UNL     1       8.682  23.448  55.561  1.00  0.00     0.000 A 
HETATM   26  C   UNL     1       8.803  23.800  56.901  1.00  0.00     0.001 A 
HETATM   27  C   UNL     1       8.237  24.990  57.365  1.00  0.00     0.007 A 
ENDBRANCH  20  22
ENDBRANCH   3  19
TORSDOF 6
ENDMDL
MODEL 7
REMARK VINA RESULT:      -8.3      1.815      2.578
REMARK  6 active torsions:
REMARK  status: ('A' for Active; 'I' for Inactive)
REMARK    1  A    between atoms: C_2  and  O_3 
REMARK    2  A    between atoms: O_3  and  C_4 
REMARK    3  A    between atoms: C_8  and  C_9 
REMARK    4  A    between atoms: C_9  and  N_10 
REMARK       I    between atoms: N_10  and  C_11 
REMARK       I    between atoms: C_11  and  N_12 
REMARK    5  A    between atoms: N_12  and  C_13 
REMARK    6  A    between atoms: C_14  and  C_15 
ROOT
HETATM    1  N   UNL     1       7.479  29.082  58.308  1.00  0.00    -0.339 N 
HETATM    2  C   UNL     1       8.079  28.309  57.345  1.00  0.00     0.316 C 
HETATM    3  N   UNL     1       7.208  27.379  56.827  1.00  0.00    -0.338 N 
HETATM    4  O   UNL     1       9.240  28.449  56.980  1.00  0.00    -0.247 OA
HETATM    5  H   UNL     1       6.478  29.175  58.237  1.00  0.00     0.164 HD
HETATM    6  H   UNL     1       6.456  27.090  57.436  1.00  0.00     0.164 HD
ENDROOT
BRANCH   1   7
HETATM    7  C   UNL     1       8.186  30.190  58.914  1.00  0.00     0.163 C 
BRANCH   7   8
HETATM    8  C   UNL     1       7.245  31.259  59.404  1.00  0.00    -0.035 A 
HETATM    9  C   UNL     1       6.077  31.568  58.702  1.00  0.00     0.028 A 
HETATM   10  C   UNL     1       5.249  32.567  59.187  1.00  0.00     0.120 A 
HETATM   11  N   UNL     1       5.509  33.282  60.302  1.00  0.00    -0.237 NA
HETATM   12  C   UNL     1       6.646  32.990  60.957  1.00  0.00     0.165 A 
HETATM   13  C   UNL     1       7.523  31.987  60.565  1.00  0.00     0.066 A 
BRANCH  12  14
HETATM   14  O   UNL     1       6.990  33.674  62.101  1.00  0.00    -0.324 OA
BRANCH  14  15
HETATM   15  C   UNL     1       6.356  33.331  63.349  1.00  0.00     0.058 C 
HETATM   16  C   UNL     1       5.454  32.095  63.232  1.00  0.00     0.045 C 
HETATM   17  C   UNL     1       5.634  34.521  64.001  1.00  0.00     0.045 C 
HETATM   18  C   UNL     1       7.538  32.954  64.265  1.00  0.00     0.045 C 
ENDBRANCH  14  15
ENDBRANCH  12  14
ENDBRANCH   7   8
ENDBRANCH   1   7
BRANCH   3  19
HETATM   19  C   UNL     1       7.578  26.503  55.754  1.00  0.00     0.095 A 
HETATM   20  C   UNL     1       6.609  25.483  55.191  1.00  0.00     0.043 A 
HETATM   21  C   UNL     1       6.978  26.712  54.396  1.00  0.00     0.037 A 
BRANCH  20  22
HETATM   22  C   UNL     1       7.111  24.130  54.741  1.00  0.00    -0.052 A 
HETATM   23  C   UNL     1       7.380  23.861  53.388  1.00  0.00     0.007 A 
HETATM   24  C   UNL     1       7.843  22.610  52.972  1.00  0.00     0.001 A 
HETATM   25  C   UNL     1       8.054  21.599  53.906  1.00  0.00     0.000 A 
HETATM   26  C   UNL     1       7.807  21.843  55.254  1.00  0.00     0.001 A 
HETATM   27  C   UNL     1       7.345  23.096  55.663  1.00  0.00     0.007 A 
ENDBRANCH  20  22
ENDBRANCH   3  19
TORSDOF 6
ENDMDL
MODEL 8
REMARK VINA RESULT:      -8.1      2.233     10.024
REMARK  6 active torsions:
REMARK  status: ('A' for Active; 'I' for Inactive)
REMARK    1  A    between atoms: C_2  and  O_3 
REMARK    2  A    between atoms: O_3  and  C_4 
REMARK    3  A    between atoms: C_8  and  C_9 
REMARK    4  A    between atoms: C_9  and  N_10 
REMARK       I    between atoms: N_10  and  C_11 
REMARK       I    between atoms: C_11  and  N_12 
REMARK    5  A    between atoms: N_12  and  C_13 
REMARK    6  A    between atoms: C_14  and  C_15 
ROOT
HETATM    1  N   UNL     1       6.525  27.610  55.358  1.00  0.00    -0.339 N 
HETATM    2  C   UNL     1       6.136  28.190  56.540  1.00  0.00     0.316 C 
HETATM    3  N   UNL     1       7.002  29.187  56.924  1.00  0.00    -0.338 N 
HETATM    4  O   UNL     1       5.130  27.870  57.161  1.00  0.00    -0.247 OA
HETATM    5  H   UNL     1       7.081  28.188  54.747  1.00  0.00     0.164 HD
HETATM    6  H   UNL     1       7.951  29.103  56.589  1.00  0.00     0.164 HD
ENDROOT
BRANCH   1   7
HETATM    7  C   UNL     1       5.702  26.605  54.720  1.00  0.00     0.163 C 
BRANCH   7   8
HETATM    8  C   UNL     1       6.528  25.595  53.967  1.00  0.00    -0.035 A 
HETATM    9  C   UNL     1       7.322  25.979  52.882  1.00  0.00     0.028 A 
HETATM   10  C   UNL     1       8.054  25.011  52.215  1.00  0.00     0.120 A 
HETATM   11  N   UNL     1       8.037  23.701  52.538  1.00  0.00    -0.237 NA
HETATM   12  C   UNL     1       7.253  23.341  53.569  1.00  0.00     0.165 A 
HETATM   13  C   UNL     1       6.506  24.242  54.317  1.00  0.00     0.066 A 
BRANCH  12  14
HETATM   14  O   UNL     1       7.175  22.025  53.962  1.00  0.00    -0.324 OA
BRANCH  14  15
HETATM   15  C   UNL     1       8.300  21.414  54.623  1.00  0.00     0.058 C 
HETATM   16  C   UNL     1       7.876  20.471  55.757  1.00  0.00     0.045 C 
HETATM   17  C   UNL     1       9.355  22.436  55.076  1.00  0.00     0.045 C 
HETATM   18  C   UNL     1       8.943  20.549  53.520  1.00  0.00     0.045 C 
ENDBRANCH  14  15
ENDBRANCH  12  14
ENDBRANCH   7   8
ENDBRANCH   1   7
BRANCH   3  19
HETATM   19  C   UNL     1       6.769  29.992  58.088  1.00  0.00     0.095 A 
HETATM   20  C   UNL     1       7.742  31.073  58.514  1.00  0.00     0.043 A 
HETATM   21  C   UNL     1       6.404  31.437  57.919  1.00  0.00     0.037 A 
BRANCH  20  22
HETATM   22  C   UNL     1       7.994  31.326  59.984  1.00  0.00    -0.052 A 
HETATM   23  C   UNL     1       9.013  30.653  60.679  1.00  0.00     0.007 A 
HETATM   24  C   UNL     1       9.244  30.886  62.037  1.00  0.00     0.001 A 
HETATM   25  C   UNL     1       8.463  31.807  62.729  1.00  0.00     0.000 A 
HETATM   26  C   UNL     1       7.456  32.497  62.061  1.00  0.00     0.001 A 
HETATM   27  C   UNL     1       7.230  32.260  60.703  1.00  0.00     0.007 A 
ENDBRANCH  20  22
ENDBRANCH   3  19
TORSDOF 6
ENDMDL
MODEL 9
REMARK VINA RESULT:      -7.9      2.536      9.619
REMARK  6 active torsions:
REMARK  status: ('A' for Active; 'I' for Inactive)
REMARK    1  A    between atoms: C_2  and  O_3 
REMARK    2  A    between atoms: O_3  and  C_4 
REMARK    3  A    between atoms: C_8  and  C_9 
REMARK    4  A    between atoms: C_9  and  N_10 
REMARK       I    between atoms: N_10  and  C_11 
REMARK       I    between atoms: C_11  and  N_12 
REMARK    5  A    between atoms: N_12  and  C_13 
REMARK    6  A    between atoms: C_14  and  C_15 
ROOT
HETATM    1  N   UNL     1       8.719  24.835  57.012  1.00  0.00    -0.339 N 
HETATM    2  C   UNL     1       7.855  25.817  57.427  1.00  0.00     0.316 C 
HETATM    3  N   UNL     1       8.470  27.047  57.472  1.00  0.00    -0.338 N 
HETATM    4  O   UNL     1       6.678  25.622  57.703  1.00  0.00    -0.247 OA
HETATM    5  H   UNL     1       9.488  25.140  56.435  1.00  0.00     0.164 HD
HETATM    6  H   UNL     1       9.469  27.037  57.615  1.00  0.00     0.164 HD
ENDROOT
BRANCH   1   7
HETATM    7  C   UNL     1       8.253  23.481  56.798  1.00  0.00     0.163 C 
BRANCH   7   8
HETATM    8  C   UNL     1       8.013  23.192  55.340  1.00  0.00    -0.035 A 
HETATM    9  C   UNL     1       8.081  21.887  54.843  1.00  0.00     0.028 A 
HETATM   10  C   UNL     1       7.864  21.674  53.492  1.00  0.00     0.120 A 
HETATM   11  N   UNL     1       7.602  22.660  52.609  1.00  0.00    -0.237 NA
HETATM   12  C   UNL     1       7.559  23.912  53.094  1.00  0.00     0.165 A 
HETATM   13  C   UNL     1       7.735  24.223  54.437  1.00  0.00     0.066 A 
BRANCH  12  14
HETATM   14  O   UNL     1       7.302  24.977  52.261  1.00  0.00    -0.324 OA
BRANCH  14  15
HETATM   15  C   UNL     1       6.061  25.697  52.393  1.00  0.00     0.058 C 
HETATM   16  C   UNL     1       6.229  27.031  53.133  1.00  0.00     0.045 C 
HETATM   17  C   UNL     1       4.932  24.840  52.986  1.00  0.00     0.045 C 
HETATM   18  C   UNL     1       5.673  26.024  50.937  1.00  0.00     0.045 C 
ENDBRANCH  14  15
ENDBRANCH  12  14
ENDBRANCH   7   8
ENDBRANCH   1   7
BRANCH   3  19
HETATM   19  C   UNL     1       7.755  28.245  57.805  1.00  0.00     0.095 A 
HETATM   20  C   UNL     1       8.466  29.572  57.977  1.00  0.00     0.043 A 
HETATM   21  C   UNL     1       7.598  29.317  56.768  1.00  0.00     0.037 A 
BRANCH  20  22
HETATM   22  C   UNL     1       8.000  30.549  59.033  1.00  0.00    -0.052 A 
HETATM   23  C   UNL     1       8.609  30.607  60.297  1.00  0.00     0.007 A 
HETATM   24  C   UNL     1       8.176  31.508  61.274  1.00  0.00     0.001 A 
HETATM   25  C   UNL     1       7.125  32.379  61.001  1.00  0.00     0.000 A 
HETATM   26  C   UNL     1       6.512  32.350  59.752  1.00  0.00     0.001 A 
HETATM   27  C   UNL     1       6.949  31.448  58.780  1.00  0.00     0.007 A 
ENDBRANCH  20  22
ENDBRANCH   3  19
TORSDOF 6
ENDMDL
MODEL 10
REMARK VINA RESULT:      -7.9      1.648      2.469
REMARK  6 active torsions:
REMARK  status: ('A' for Active; 'I' for Inactive)
REMARK    1  A    between atoms: C_2  and  O_3 
REMARK    2  A    between atoms: O_3  and  C_4 
REMARK    3  A    between atoms: C_8  and  C_9 
REMARK    4  A    between atoms: C_9  and  N_10 
REMARK       I    between atoms: N_10  and  C_11 
REMARK       I    between atoms: C_11  and  N_12 
REMARK    5  A    between atoms: N_12  and  C_13 
REMARK    6  A    between atoms: C_14  and  C_15 
ROOT
HETATM    1  N   UNL     1       6.411  29.317  55.489  1.00  0.00    -0.339 N 
HETATM    2  C   UNL     1       5.928  28.032  55.505  1.00  0.00     0.316 C 
HETATM    3  N   UNL     1       6.936  27.110  55.339  1.00  0.00    -0.338 N 
HETATM    4  O   UNL     1       4.749  27.746  55.667  1.00  0.00    -0.247 OA
HETATM    5  H   UNL     1       7.375  29.428  55.765  1.00  0.00     0.164 HD
HETATM    6  H   UNL     1       7.752  27.432  54.838  1.00  0.00     0.164 HD
ENDROOT
BRANCH   1   7
HETATM    7  C   UNL     1       5.535  30.440  55.746  1.00  0.00     0.163 C 
BRANCH   7   8
HETATM    8  C   UNL     1       5.817  31.082  57.079  1.00  0.00    -0.035 A 
HETATM    9  C   UNL     1       5.187  32.272  57.453  1.00  0.00     0.028 A 
HETATM   10  C   UNL     1       5.488  32.829  58.684  1.00  0.00     0.120 A 
HETATM   11  N   UNL     1       6.376  32.298  59.552  1.00  0.00    -0.237 NA
HETATM   12  C   UNL     1       6.992  31.166  59.171  1.00  0.00     0.165 A 
HETATM   13  C   UNL     1       6.734  30.517  57.970  1.00  0.00     0.066 A 
BRANCH  12  14
HETATM   14  O   UNL     1       7.914  30.561  59.994  1.00  0.00    -0.324 OA
BRANCH  14  15
HETATM   15  C   UNL     1       8.395  31.263  61.156  1.00  0.00     0.058 C 
HETATM   16  C   UNL     1       7.326  31.398  62.249  1.00  0.00     0.045 C 
HETATM   17  C   UNL     1       9.052  32.610  60.813  1.00  0.00     0.045 C 
HETATM   18  C   UNL     1       9.502  30.340  61.706  1.00  0.00     0.045 C 
ENDBRANCH  14  15
ENDBRANCH  12  14
ENDBRANCH   7   8
ENDBRANCH   1   7
BRANCH   3  19
HETATM   19  C   UNL     1       6.694  25.698  55.394  1.00  0.00     0.095 A 
HETATM   20  C   UNL     1       7.810  24.711  55.674  1.00  0.00     0.043 A 
HETATM   21  C   UNL     1       6.756  24.994  56.717  1.00  0.00     0.037 A 
BRANCH  20  22
HETATM   22  C   UNL     1       7.824  23.368  54.979  1.00  0.00    -0.052 A 
HETATM   23  C   UNL     1       7.971  23.266  53.585  1.00  0.00     0.007 A 
HETATM   24  C   UNL     1       7.982  22.025  52.943  1.00  0.00     0.001 A 
HETATM   25  C   UNL     1       7.852  20.855  53.686  1.00  0.00     0.000 A 
HETATM   26  C   UNL     1       7.717  20.928  55.069  1.00  0.00     0.001 A 
HETATM   27  C   UNL     1       7.708  22.171  55.705  1.00  0.00     0.007 A 
ENDBRANCH  20  22
ENDBRANCH   3  19
TORSDOF 6
ENDMDL
