MODEL 1
REMARK VINA RESULT:      -7.8      0.000      0.000
REMARK  10 active torsions:
REMARK  status: ('A' for Active; 'I' for Inactive)
REMARK    1  A    between atoms: C_3  and  C_4 
REMARK    2  A    between atoms: C_4  and  C_5 
REMARK       I    between atoms: C_5  and  N_6 
REMARK    3  A    between atoms: N_6  and  C_7 
REMARK    4  A    between atoms: C_7  and  C_8 
REMARK    5  A    between atoms: C_8  and  O_9 
REMARK    6  A    between atoms: C_15  and  N_16 
REMARK    7  A    between atoms: N_16  and  C_17 
REMARK    8  A    between atoms: C_26  and  C_27 
REMARK    9  A    between atoms: C_27  and  O_28 
REMARK   10  A    between atoms: C_30  and  O_31 
ROOT
HETATM    1  C   UNL     1       4.582  25.326  56.794  1.00  0.00     0.016 C 
HETATM    2  C   UNL     1       5.922  26.055  56.454  1.00  0.00    -0.030 C 
HETATM    3  C   UNL     1       6.287  25.828  54.919  1.00  0.00     0.056 C 
HETATM    4  C   UNL     1       5.508  26.777  54.036  1.00  0.00     0.056 C 
HETATM    5  C   UNL     1       4.738  27.817  54.511  1.00  0.00     0.012 C 
HETATM    6  S   UNL     1       3.990  28.635  53.226  1.00  0.00    -0.055 SA
HETATM    7  C   UNL     1       4.962  27.735  52.116  1.00  0.00     0.172 C 
HETATM    8  N   UNL     1       5.643  26.746  52.659  1.00  0.00    -0.227 NA
HETATM    9  C   UNL     1       4.589  28.214  55.936  1.00  0.00     0.055 C 
HETATM   10  C   UNL     1       5.736  27.597  56.786  1.00  0.00     0.012 C 
HETATM   11  C   UNL     1       7.078  28.460  56.850  1.00  0.00     0.008 C 
HETATM   12  C   UNL     1       6.832  29.579  57.907  1.00  0.00     0.020 C 
HETATM   13  C   UNL     1       8.274  27.597  57.364  1.00  0.00     0.128 C 
HETATM   14  C   UNL     1       7.813  26.415  58.204  1.00  0.00     0.033 C 
HETATM   15  C   UNL     1       7.014  25.416  57.367  1.00  0.00     0.013 C 
ENDROOT
BRANCH   3  16
HETATM   16  C   UNL     1       6.097  24.367  54.475  1.00  0.00     0.114 C 
BRANCH  16  17
HETATM   17  C   UNL     1       7.405  23.663  54.187  1.00  0.00     0.218 C 
HETATM   18  N   UNL     1       7.732  22.663  55.071  1.00  0.00    -0.359 N 
HETATM   19  H   UNL     1       6.953  22.180  55.524  1.00  0.00     0.162 HD
HETATM   20  O   UNL     1       8.130  24.014  53.258  1.00  0.00    -0.274 OA
BRANCH  18  21
HETATM   21  C   UNL     1       8.982  21.937  54.939  1.00  0.00     0.148 C 
BRANCH  21  22
HETATM   22  C   UNL     1       8.824  20.452  55.274  1.00  0.00     0.186 C 
BRANCH  22  23
HETATM   23  O   UNL     1       8.838  19.622  54.110  1.00  0.00    -0.394 OA
HETATM   24  C   UNL     1       8.611  20.355  52.912  1.00  0.00     0.201 C 
ENDBRANCH  22  23
ENDBRANCH  21  22
ENDBRANCH  18  21
ENDBRANCH  16  17
ENDBRANCH   3  16
BRANCH  11  25
HETATM   25  C   UNL     1       7.510  29.161  55.533  1.00  0.00     0.176 C 
BRANCH  25  26
HETATM   26  O   UNL     1       8.820  29.712  55.610  1.00  0.00    -0.400 OA
HETATM   27  H   UNL     1       8.976  29.912  56.550  1.00  0.00     0.209 HD
ENDBRANCH  25  26
ENDBRANCH  11  25
BRANCH   7  28
HETATM   28  N   UNL     1       4.986  28.112  50.812  1.00  0.00    -0.334 N 
HETATM   29  H   UNL     1       5.920  28.145  50.418  1.00  0.00     0.168 HD
BRANCH  28  30
HETATM   30  C   UNL     1       4.078  27.592  49.856  1.00  0.00     0.051 A 
HETATM   31  C   UNL     1       2.930  28.245  49.403  1.00  0.00     0.145 A 
HETATM   32  N   UNL     1       2.059  27.739  48.488  1.00  0.00    -0.271 NA
HETATM   33  C   UNL     1       2.358  26.531  47.972  1.00  0.00     0.116 A 
HETATM   34  C   UNL     1       3.492  25.816  48.309  1.00  0.00     0.021 A 
HETATM   35  C   UNL     1       4.366  26.363  49.249  1.00  0.00     0.032 A 
ENDBRANCH  28  30
ENDBRANCH   7  28
BRANCH  13  36
HETATM   36  O   UNL     1       9.052  27.105  56.274  1.00  0.00    -0.395 OA
HETATM   37  H   UNL     1       9.721  26.492  56.631  1.00  0.00     0.210 HD
ENDBRANCH  13  36
TORSDOF 10
ENDMDL
MODEL 2
REMARK VINA RESULT:      -7.0      3.776      8.309
REMARK  10 active torsions:
REMARK  status: ('A' for Active; 'I' for Inactive)
REMARK    1  A    between atoms: C_3  and  C_4 
REMARK    2  A    between atoms: C_4  and  C_5 
REMARK       I    between atoms: C_5  and  N_6 
REMARK    3  A    between atoms: N_6  and  C_7 
REMARK    4  A    between atoms: C_7  and  C_8 
REMARK    5  A    between atoms: C_8  and  O_9 
REMARK    6  A    between atoms: C_15  and  N_16 
REMARK    7  A    between atoms: N_16  and  C_17 
REMARK    8  A    between atoms: C_26  and  C_27 
REMARK    9  A    between atoms: C_27  and  O_28 
REMARK   10  A    between atoms: C_30  and  O_31 
ROOT
HETATM    1  C   UNL     1       6.029  29.033  48.896  1.00  0.00     0.016 C 
HETATM    2  C   UNL     1       4.687  28.958  49.694  1.00  0.00    -0.030 C 
HETATM    3  C   UNL     1       4.317  27.437  49.989  1.00  0.00     0.056 C 
HETATM    4  C   UNL     1       5.092  26.917  51.179  1.00  0.00     0.056 C 
HETATM    5  C   UNL     1       5.861  27.708  52.004  1.00  0.00     0.012 C 
HETATM    6  S   UNL     1       6.604  26.765  53.205  1.00  0.00    -0.055 SA
HETATM    7  C   UNL     1       5.629  25.422  52.722  1.00  0.00     0.172 C 
HETATM    8  N   UNL     1       4.951  25.608  51.607  1.00  0.00    -0.227 NA
HETATM    9  C   UNL     1       6.016  29.183  51.905  1.00  0.00     0.055 C 
HETATM   10  C   UNL     1       4.873  29.783  51.039  1.00  0.00     0.012 C 
HETATM   11  C   UNL     1       3.530  30.135  51.828  1.00  0.00     0.008 C 
HETATM   12  C   UNL     1       3.778  31.502  52.532  1.00  0.00     0.020 C 
HETATM   13  C   UNL     1       2.337  30.337  50.840  1.00  0.00     0.128 C 
HETATM   14  C   UNL     1       2.802  30.734  49.447  1.00  0.00     0.033 C 
HETATM   15  C   UNL     1       3.599  29.611  48.785  1.00  0.00     0.013 C 
ENDROOT
BRANCH   3  16
HETATM   16  C   UNL     1       4.506  26.531  48.759  1.00  0.00     0.114 C 
BRANCH  16  17
HETATM   17  C   UNL     1       3.246  26.382  47.935  1.00  0.00     0.218 C 
HETATM   18  N   UNL     1       2.133  26.990  48.463  1.00  0.00    -0.359 N 
HETATM   19  H   UNL     1       2.295  27.813  49.048  1.00  0.00     0.162 HD
HETATM   20  O   UNL     1       3.232  25.715  46.903  1.00  0.00    -0.274 OA
BRANCH  18  21
HETATM   21  C   UNL     1       0.847  26.886  47.798  1.00  0.00     0.148 C 
BRANCH  21  22
HETATM   22  C   UNL     1       0.663  27.964  46.727  1.00  0.00     0.186 C 
BRANCH  22  23
HETATM   23  O   UNL     1       0.476  29.267  47.287  1.00  0.00    -0.394 OA
HETATM   24  C   UNL     1       0.567  30.299  46.312  1.00  0.00     0.201 C 
ENDBRANCH  22  23
ENDBRANCH  21  22
ENDBRANCH  18  21
ENDBRANCH  16  17
ENDBRANCH   3  16
BRANCH  11  25
HETATM   25  C   UNL     1       3.092  29.126  52.925  1.00  0.00     0.176 C 
BRANCH  25  26
HETATM   26  O   UNL     1       3.497  29.527  54.230  1.00  0.00    -0.400 OA
HETATM   27  H   UNL     1       3.761  30.462  54.158  1.00  0.00     0.209 HD
ENDBRANCH  25  26
ENDBRANCH  11  25
BRANCH   7  28
HETATM   28  N   UNL     1       5.599  24.318  53.511  1.00  0.00    -0.334 N 
HETATM   29  H   UNL     1       4.944  23.612  53.194  1.00  0.00     0.168 HD
BRANCH  28  30
HETATM   30  C   UNL     1       6.780  23.698  53.991  1.00  0.00     0.051 A 
HETATM   31  C   UNL     1       7.201  23.698  55.323  1.00  0.00     0.145 A 
HETATM   32  N   UNL     1       8.338  23.105  55.777  1.00  0.00    -0.271 NA
HETATM   33  C   UNL     1       9.086  22.452  54.867  1.00  0.00     0.116 A 
HETATM   34  C   UNL     1       8.742  22.345  53.532  1.00  0.00     0.021 A 
HETATM   35  C   UNL     1       7.569  22.962  53.098  1.00  0.00     0.032 A 
ENDBRANCH  28  30
ENDBRANCH   7  28
BRANCH  13  36
HETATM   36  O   UNL     1       1.555  29.147  50.736  1.00  0.00    -0.395 OA
HETATM   37  H   UNL     1       0.697  29.381  50.336  1.00  0.00     0.210 HD
ENDBRANCH  13  36
TORSDOF 10
ENDMDL
MODEL 3
REMARK VINA RESULT:      -7.0      4.277      7.506
REMARK  10 active torsions:
REMARK  status: ('A' for Active; 'I' for Inactive)
REMARK    1  A    between atoms: C_3  and  C_4 
REMARK    2  A    between atoms: C_4  and  C_5 
REMARK       I    between atoms: C_5  and  N_6 
REMARK    3  A    between atoms: N_6  and  C_7 
REMARK    4  A    between atoms: C_7  and  C_8 
REMARK    5  A    between atoms: C_8  and  O_9 
REMARK    6  A    between atoms: C_15  and  N_16 
REMARK    7  A    between atoms: N_16  and  C_17 
REMARK    8  A    between atoms: C_26  and  C_27 
REMARK    9  A    between atoms: C_27  and  O_28 
REMARK   10  A    between atoms: C_30  and  O_31 
ROOT
HETATM    1  C   UNL     1       3.659  31.382  59.485  1.00  0.00     0.016 C 
HETATM    2  C   UNL     1       4.300  32.119  58.265  1.00  0.00    -0.030 C 
HETATM    3  C   UNL     1       5.748  31.521  57.970  1.00  0.00     0.056 C 
HETATM    4  C   UNL     1       5.646  30.235  57.182  1.00  0.00     0.056 C 
HETATM    5  C   UNL     1       4.476  29.756  56.633  1.00  0.00     0.012 C 
HETATM    6  S   UNL     1       4.750  28.272  55.855  1.00  0.00    -0.055 SA
HETATM    7  C   UNL     1       6.451  28.509  56.052  1.00  0.00     0.172 C 
HETATM    8  N   UNL     1       6.778  29.521  56.831  1.00  0.00    -0.227 NA
HETATM    9  C   UNL     1       3.153  30.432  56.670  1.00  0.00     0.055 C 
HETATM   10  C   UNL     1       3.331  31.937  57.020  1.00  0.00     0.012 C 
HETATM   11  C   UNL     1       3.610  32.898  55.776  1.00  0.00     0.008 C 
HETATM   12  C   UNL     1       2.229  33.168  55.108  1.00  0.00     0.020 C 
HETATM   13  C   UNL     1       4.169  34.278  56.249  1.00  0.00     0.128 C 
HETATM   14  C   UNL     1       3.772  34.600  57.683  1.00  0.00     0.033 C 
HETATM   15  C   UNL     1       4.411  33.623  58.669  1.00  0.00     0.013 C 
ENDROOT
BRANCH   3  16
HETATM   16  C   UNL     1       6.581  31.329  59.251  1.00  0.00     0.114 C 
BRANCH  16  17
HETATM   17  C   UNL     1       8.018  31.775  59.093  1.00  0.00     0.218 C 
HETATM   18  N   UNL     1       8.806  30.937  58.344  1.00  0.00    -0.359 N 
HETATM   19  H   UNL     1       8.334  30.388  57.621  1.00  0.00     0.162 HD
HETATM   20  O   UNL     1       8.437  32.788  59.649  1.00  0.00    -0.274 OA
BRANCH  18  21
HETATM   21  C   UNL     1      10.217  31.222  58.152  1.00  0.00     0.148 C 
BRANCH  21  22
HETATM   22  C   UNL     1      10.948  30.068  57.460  1.00  0.00     0.186 C 
BRANCH  22  23
HETATM   23  O   UNL     1      10.066  29.234  56.704  1.00  0.00    -0.394 OA
HETATM   24  C   UNL     1      10.064  29.555  55.318  1.00  0.00     0.201 C 
ENDBRANCH  22  23
ENDBRANCH  21  22
ENDBRANCH  18  21
ENDBRANCH  16  17
ENDBRANCH   3  16
BRANCH  11  25
HETATM   25  C   UNL     1       4.552  32.341  54.673  1.00  0.00     0.176 C 
BRANCH  25  26
HETATM   26  O   UNL     1       4.856  33.308  53.673  1.00  0.00    -0.400 OA
HETATM   27  H   UNL     1       4.950  32.816  52.838  1.00  0.00     0.209 HD
ENDBRANCH  25  26
ENDBRANCH  11  25
BRANCH   7  28
HETATM   28  N   UNL     1       7.307  27.689  55.391  1.00  0.00    -0.334 N 
HETATM   29  H   UNL     1       8.264  28.023  55.385  1.00  0.00     0.168 HD
BRANCH  28  30
HETATM   30  C   UNL     1       7.290  26.281  55.559  1.00  0.00     0.051 A 
HETATM   31  C   UNL     1       7.510  25.616  56.767  1.00  0.00     0.145 A 
HETATM   32  N   UNL     1       7.497  24.264  56.922  1.00  0.00    -0.271 NA
HETATM   33  C   UNL     1       7.224  23.531  55.825  1.00  0.00     0.116 A 
HETATM   34  C   UNL     1       6.942  24.084  54.589  1.00  0.00     0.021 A 
HETATM   35  C   UNL     1       6.962  25.473  54.463  1.00  0.00     0.032 A 
ENDBRANCH  28  30
ENDBRANCH   7  28
BRANCH  13  36
HETATM   36  O   UNL     1       5.593  34.311  56.153  1.00  0.00    -0.395 OA
HETATM   37  H   UNL     1       5.957  34.355  57.056  1.00  0.00     0.210 HD
ENDBRANCH  13  36
TORSDOF 10
ENDMDL
MODEL 4
REMARK VINA RESULT:      -6.8      4.299      8.627
REMARK  10 active torsions:
REMARK  status: ('A' for Active; 'I' for Inactive)
REMARK    1  A    between atoms: C_3  and  C_4 
REMARK    2  A    between atoms: C_4  and  C_5 
REMARK       I    between atoms: C_5  and  N_6 
REMARK    3  A    between atoms: N_6  and  C_7 
REMARK    4  A    between atoms: C_7  and  C_8 
REMARK    5  A    between atoms: C_8  and  O_9 
REMARK    6  A    between atoms: C_15  and  N_16 
REMARK    7  A    between atoms: N_16  and  C_17 
REMARK    8  A    between atoms: C_26  and  C_27 
REMARK    9  A    between atoms: C_27  and  O_28 
REMARK   10  A    between atoms: C_30  and  O_31 
ROOT
HETATM    1  C   UNL     1       6.143  31.643  49.259  1.00  0.00     0.016 C 
HETATM    2  C   UNL     1       4.646  31.223  49.100  1.00  0.00    -0.030 C 
HETATM    3  C   UNL     1       4.500  29.650  49.310  1.00  0.00     0.056 C 
HETATM    4  C   UNL     1       4.476  29.305  50.782  1.00  0.00     0.056 C 
HETATM    5  C   UNL     1       4.397  30.239  51.792  1.00  0.00     0.012 C 
HETATM    6  S   UNL     1       4.429  29.475  53.308  1.00  0.00    -0.055 SA
HETATM    7  C   UNL     1       4.258  27.947  52.518  1.00  0.00     0.172 C 
HETATM    8  N   UNL     1       4.380  27.991  51.206  1.00  0.00    -0.227 NA
HETATM    9  C   UNL     1       4.267  31.709  51.616  1.00  0.00     0.055 C 
HETATM   10  C   UNL     1       3.796  32.034  50.170  1.00  0.00     0.012 C 
HETATM   11  C   UNL     1       2.214  32.027  49.949  1.00  0.00     0.008 C 
HETATM   12  C   UNL     1       1.689  33.395  50.478  1.00  0.00     0.020 C 
HETATM   13  C   UNL     1       1.862  31.956  48.429  1.00  0.00     0.128 C 
HETATM   14  C   UNL     1       2.985  32.491  47.551  1.00  0.00     0.033 C 
HETATM   15  C   UNL     1       4.232  31.613  47.647  1.00  0.00     0.013 C 
ENDROOT
BRANCH   3  16
HETATM   16  C   UNL     1       5.584  28.850  48.565  1.00  0.00     0.114 C 
BRANCH  16  17
HETATM   17  C   UNL     1       5.019  27.713  47.742  1.00  0.00     0.218 C 
HETATM   18  N   UNL     1       3.728  27.362  48.049  1.00  0.00    -0.359 N 
HETATM   19  H   UNL     1       3.128  28.101  48.423  1.00  0.00     0.162 HD
HETATM   20  O   UNL     1       5.704  27.128  46.906  1.00  0.00    -0.274 OA
BRANCH  18  21
HETATM   21  C   UNL     1       3.079  26.256  47.368  1.00  0.00     0.148 C 
BRANCH  21  22
HETATM   22  C   UNL     1       1.609  26.553  47.059  1.00  0.00     0.186 C 
BRANCH  22  23
HETATM   23  O   UNL     1       1.390  27.918  46.693  1.00  0.00    -0.394 OA
HETATM   24  C   UNL     1       0.118  28.126  46.092  1.00  0.00     0.201 C 
ENDBRANCH  22  23
ENDBRANCH  21  22
ENDBRANCH  18  21
ENDBRANCH  16  17
ENDBRANCH   3  16
BRANCH  11  25
HETATM   25  C   UNL     1       1.421  30.914  50.687  1.00  0.00     0.176 C 
BRANCH  25  26
HETATM   26  O   UNL     1       0.017  31.148  50.682  1.00  0.00    -0.400 OA
HETATM   27  H   UNL     1      -0.401  30.294  50.472  1.00  0.00     0.209 HD
ENDBRANCH  25  26
ENDBRANCH  11  25
BRANCH   7  28
HETATM   28  N   UNL     1       3.984  26.850  53.268  1.00  0.00    -0.334 N 
HETATM   29  H   UNL     1       3.164  26.341  52.957  1.00  0.00     0.168 HD
BRANCH  28  30
HETATM   30  C   UNL     1       4.992  25.937  53.670  1.00  0.00     0.051 A 
HETATM   31  C   UNL     1       5.600  25.918  54.928  1.00  0.00     0.145 A 
HETATM   32  N   UNL     1       6.570  25.043  55.307  1.00  0.00    -0.271 NA
HETATM   33  C   UNL     1       6.939  24.117  54.401  1.00  0.00     0.116 A 
HETATM   34  C   UNL     1       6.371  24.010  53.145  1.00  0.00     0.021 A 
HETATM   35  C   UNL     1       5.378  24.922  52.786  1.00  0.00     0.032 A 
ENDBRANCH  28  30
ENDBRANCH   7  28
BRANCH  13  36
HETATM   36  O   UNL     1       1.576  30.615  48.033  1.00  0.00    -0.395 OA
HETATM   37  H   UNL     1       1.414  30.610  47.072  1.00  0.00     0.210 HD
ENDBRANCH  13  36
TORSDOF 10
ENDMDL
MODEL 5
REMARK VINA RESULT:      -6.7      2.896      7.065
REMARK  10 active torsions:
REMARK  status: ('A' for Active; 'I' for Inactive)
REMARK    1  A    between atoms: C_3  and  C_4 
REMARK    2  A    between atoms: C_4  and  C_5 
REMARK       I    between atoms: C_5  and  N_6 
REMARK    3  A    between atoms: N_6  and  C_7 
REMARK    4  A    between atoms: C_7  and  C_8 
REMARK    5  A    between atoms: C_8  and  O_9 
REMARK    6  A    between atoms: C_15  and  N_16 
REMARK    7  A    between atoms: N_16  and  C_17 
REMARK    8  A    between atoms: C_26  and  C_27 
REMARK    9  A    between atoms: C_27  and  O_28 
REMARK   10  A    between atoms: C_30  and  O_31 
ROOT
HETATM    1  C   UNL     1       5.650  23.711  53.053  1.00  0.00     0.016 C 
HETATM    2  C   UNL     1       7.066  23.719  53.714  1.00  0.00    -0.030 C 
HETATM    3  C   UNL     1       7.780  25.119  53.447  1.00  0.00     0.056 C 
HETATM    4  C   UNL     1       7.285  26.168  54.416  1.00  0.00     0.056 C 
HETATM    5  C   UNL     1       6.475  25.897  55.498  1.00  0.00     0.012 C 
HETATM    6  S   UNL     1       6.101  27.330  56.330  1.00  0.00    -0.055 SA
HETATM    7  C   UNL     1       7.268  28.167  55.369  1.00  0.00     0.172 C 
HETATM    8  N   UNL     1       7.748  27.471  54.358  1.00  0.00    -0.227 NA
HETATM    9  C   UNL     1       6.005  24.553  55.924  1.00  0.00     0.055 C 
HETATM   10  C   UNL     1       6.881  23.448  55.268  1.00  0.00     0.012 C 
HETATM   11  C   UNL     1       8.208  23.064  56.069  1.00  0.00     0.008 C 
HETATM   12  C   UNL     1       7.769  22.103  57.214  1.00  0.00     0.020 C 
HETATM   13  C   UNL     1       9.201  22.272  55.159  1.00  0.00     0.128 C 
HETATM   14  C   UNL     1       8.493  21.564  54.013  1.00  0.00     0.033 C 
HETATM   15  C   UNL     1       7.873  22.566  53.039  1.00  0.00     0.013 C 
ENDROOT
BRANCH   3  16
HETATM   16  C   UNL     1       7.633  25.590  51.989  1.00  0.00     0.114 C 
BRANCH  16  17
HETATM   17  C   UNL     1       6.256  26.136  51.681  1.00  0.00     0.218 C 
HETATM   18  N   UNL     1       5.866  26.021  50.370  1.00  0.00    -0.359 N 
HETATM   19  H   UNL     1       6.261  25.239  49.841  1.00  0.00     0.162 HD
HETATM   20  O   UNL     1       5.579  26.688  52.546  1.00  0.00    -0.274 OA
BRANCH  18  21
HETATM   21  C   UNL     1       4.586  26.546  49.928  1.00  0.00     0.148 C 
BRANCH  21  22
HETATM   22  C   UNL     1       4.635  27.038  48.479  1.00  0.00     0.186 C 
BRANCH  22  23
HETATM   23  O   UNL     1       4.253  26.027  47.543  1.00  0.00    -0.394 OA
HETATM   24  C   UNL     1       3.128  25.274  47.980  1.00  0.00     0.201 C 
ENDBRANCH  22  23
ENDBRANCH  21  22
ENDBRANCH  18  21
ENDBRANCH  16  17
ENDBRANCH   3  16
BRANCH  11  25
HETATM   25  C   UNL     1       8.980  24.240  56.728  1.00  0.00     0.176 C 
BRANCH  25  26
HETATM   26  O   UNL     1       8.750  24.329  58.130  1.00  0.00    -0.400 OA
HETATM   27  H   UNL     1       8.002  24.941  58.245  1.00  0.00     0.209 HD
ENDBRANCH  25  26
ENDBRANCH  11  25
BRANCH   7  28
HETATM   28  N   UNL     1       7.625  29.427  55.724  1.00  0.00    -0.334 N 
HETATM   29  H   UNL     1       6.855  29.979  56.085  1.00  0.00     0.168 HD
BRANCH  28  30
HETATM   30  C   UNL     1       8.802  29.701  56.465  1.00  0.00     0.051 A 
HETATM   31  C   UNL     1      10.105  29.561  55.980  1.00  0.00     0.145 A 
HETATM   32  N   UNL     1      11.231  29.821  56.697  1.00  0.00    -0.271 NA
HETATM   33  C   UNL     1      11.059  30.270  57.955  1.00  0.00     0.116 A 
HETATM   34  C   UNL     1       9.817  30.493  58.522  1.00  0.00     0.021 A 
HETATM   35  C   UNL     1       8.681  30.219  57.760  1.00  0.00     0.032 A 
ENDBRANCH  28  30
ENDBRANCH   7  28
BRANCH  13  36
HETATM   36  O   UNL     1      10.195  23.139  54.614  1.00  0.00    -0.395 OA
HETATM   37  H   UNL     1      10.074  24.024  55.005  1.00  0.00     0.210 HD
ENDBRANCH  13  36
TORSDOF 10
ENDMDL
MODEL 6
REMARK VINA RESULT:      -6.7      3.178      7.523
REMARK  10 active torsions:
REMARK  status: ('A' for Active; 'I' for Inactive)
REMARK    1  A    between atoms: C_3  and  C_4 
REMARK    2  A    between atoms: C_4  and  C_5 
REMARK       I    between atoms: C_5  and  N_6 
REMARK    3  A    between atoms: N_6  and  C_7 
REMARK    4  A    between atoms: C_7  and  C_8 
REMARK    5  A    between atoms: C_8  and  O_9 
REMARK    6  A    between atoms: C_15  and  N_16 
REMARK    7  A    between atoms: N_16  and  C_17 
REMARK    8  A    between atoms: C_26  and  C_27 
REMARK    9  A    between atoms: C_27  and  O_28 
REMARK   10  A    between atoms: C_30  and  O_31 
ROOT
HETATM    1  C   UNL     1       5.881  28.990  48.686  1.00  0.00     0.016 C 
HETATM    2  C   UNL     1       4.425  28.523  49.011  1.00  0.00    -0.030 C 
HETATM    3  C   UNL     1       4.373  27.890  50.472  1.00  0.00     0.056 C 
HETATM    4  C   UNL     1       4.297  28.973  51.524  1.00  0.00     0.056 C 
HETATM    5  C   UNL     1       4.104  30.308  51.244  1.00  0.00     0.012 C 
HETATM    6  S   UNL     1       4.109  31.221  52.676  1.00  0.00    -0.055 SA
HETATM    7  C   UNL     1       4.080  29.752  53.586  1.00  0.00     0.172 C 
HETATM    8  N   UNL     1       4.267  28.659  52.872  1.00  0.00    -0.227 NA
HETATM    9  C   UNL     1       3.886  30.896  49.897  1.00  0.00     0.055 C 
HETATM   10  C   UNL     1       3.469  29.786  48.891  1.00  0.00     0.012 C 
HETATM   11  C   UNL     1       1.905  29.470  48.832  1.00  0.00     0.008 C 
HETATM   12  C   UNL     1       1.264  30.580  47.946  1.00  0.00     0.020 C 
HETATM   13  C   UNL     1       1.637  28.104  48.123  1.00  0.00     0.128 C 
HETATM   14  C   UNL     1       2.765  27.713  47.180  1.00  0.00     0.033 C 
HETATM   15  C   UNL     1       4.061  27.445  47.943  1.00  0.00     0.013 C 
ENDROOT
BRANCH   3  16
HETATM   16  C   UNL     1       5.545  26.928  50.743  1.00  0.00     0.114 C 
BRANCH  16  17
HETATM   17  C   UNL     1       5.215  25.871  51.774  1.00  0.00     0.218 C 
HETATM   18  N   UNL     1       5.750  26.089  53.020  1.00  0.00    -0.359 N 
HETATM   19  H   UNL     1       5.910  27.064  53.285  1.00  0.00     0.162 HD
HETATM   20  O   UNL     1       4.562  24.873  51.479  1.00  0.00    -0.274 OA
BRANCH  18  21
HETATM   21  C   UNL     1       5.551  25.129  54.090  1.00  0.00     0.148 C 
BRANCH  21  22
HETATM   22  C   UNL     1       6.875  24.565  54.612  1.00  0.00     0.186 C 
BRANCH  22  23
HETATM   23  O   UNL     1       7.855  24.421  53.580  1.00  0.00    -0.394 OA
HETATM   24  C   UNL     1       7.907  23.100  53.055  1.00  0.00     0.201 C 
ENDBRANCH  22  23
ENDBRANCH  21  22
ENDBRANCH  18  21
ENDBRANCH  16  17
ENDBRANCH   3  16
BRANCH  11  25
HETATM   25  C   UNL     1       1.151  29.474  50.190  1.00  0.00     0.176 C 
BRANCH  25  26
HETATM   26  O   UNL     1       0.471  30.701  50.435  1.00  0.00    -0.400 OA
HETATM   27  H   UNL     1      -0.472  30.528  50.265  1.00  0.00     0.209 HD
ENDBRANCH  25  26
ENDBRANCH  11  25
BRANCH   7  28
HETATM   28  N   UNL     1       3.843  29.813  54.921  1.00  0.00    -0.334 N 
HETATM   29  H   UNL     1       2.999  29.328  55.204  1.00  0.00     0.168 HD
BRANCH  28  30
HETATM   30  C   UNL     1       4.863  29.606  55.883  1.00  0.00     0.051 A 
HETATM   31  C   UNL     1       5.573  30.620  56.530  1.00  0.00     0.145 A 
HETATM   32  N   UNL     1       6.555  30.415  57.449  1.00  0.00    -0.271 NA
HETATM   33  C   UNL     1       6.831  29.135  57.766  1.00  0.00     0.116 A 
HETATM   34  C   UNL     1       6.159  28.054  57.226  1.00  0.00     0.021 A 
HETATM   35  C   UNL     1       5.156  28.297  56.287  1.00  0.00     0.032 A 
ENDBRANCH  28  30
ENDBRANCH   7  28
BRANCH  13  36
HETATM   36  O   UNL     1       1.461  27.060  49.080  1.00  0.00    -0.395 OA
HETATM   37  H   UNL     1       1.898  26.258  48.738  1.00  0.00     0.210 HD
ENDBRANCH  13  36
TORSDOF 10
ENDMDL
MODEL 7
REMARK VINA RESULT:      -6.7      3.960      8.006
REMARK  10 active torsions:
REMARK  status: ('A' for Active; 'I' for Inactive)
REMARK    1  A    between atoms: C_3  and  C_4 
REMARK    2  A    between atoms: C_4  and  C_5 
REMARK       I    between atoms: C_5  and  N_6 
REMARK    3  A    between atoms: N_6  and  C_7 
REMARK    4  A    between atoms: C_7  and  C_8 
REMARK    5  A    between atoms: C_8  and  O_9 
REMARK    6  A    between atoms: C_15  and  N_16 
REMARK    7  A    between atoms: N_16  and  C_17 
REMARK    8  A    between atoms: C_26  and  C_27 
REMARK    9  A    between atoms: C_27  and  O_28 
REMARK   10  A    between atoms: C_30  and  O_31 
ROOT
HETATM    1  C   UNL     1       5.545  27.929  47.120  1.00  0.00     0.016 C 
HETATM    2  C   UNL     1       4.168  27.958  47.861  1.00  0.00    -0.030 C 
HETATM    3  C   UNL     1       4.398  28.194  49.420  1.00  0.00     0.056 C 
HETATM    4  C   UNL     1       4.624  29.660  49.713  1.00  0.00     0.056 C 
HETATM    5  C   UNL     1       4.461  30.666  48.786  1.00  0.00     0.012 C 
HETATM    6  S   UNL     1       4.840  32.172  49.474  1.00  0.00    -0.055 SA
HETATM    7  C   UNL     1       4.916  31.418  51.028  1.00  0.00     0.172 C 
HETATM    8  N   UNL     1       4.870  30.101  51.002  1.00  0.00    -0.227 NA
HETATM    9  C   UNL     1       3.992  30.498  47.386  1.00  0.00     0.055 C 
HETATM   10  C   UNL     1       3.293  29.119  47.219  1.00  0.00     0.012 C 
HETATM   11  C   UNL     1       1.737  29.093  47.577  1.00  0.00     0.008 C 
HETATM   12  C   UNL     1       0.991  29.675  46.339  1.00  0.00     0.020 C 
HETATM   13  C   UNL     1       1.232  27.628  47.772  1.00  0.00     0.128 C 
HETATM   14  C   UNL     1       2.098  26.617  47.035  1.00  0.00     0.033 C 
HETATM   15  C   UNL     1       3.509  26.564  47.618  1.00  0.00     0.013 C 
ENDROOT
BRANCH   3  16
HETATM   16  C   UNL     1       5.535  27.327  49.989  1.00  0.00     0.114 C 
BRANCH  16  17
HETATM   17  C   UNL     1       5.111  26.509  51.189  1.00  0.00     0.218 C 
HETATM   18  N   UNL     1       5.271  27.133  52.402  1.00  0.00    -0.359 N 
HETATM   19  H   UNL     1       5.213  28.154  52.403  1.00  0.00     0.162 HD
HETATM   20  O   UNL     1       4.708  25.354  51.065  1.00  0.00    -0.274 OA
BRANCH  18  21
HETATM   21  C   UNL     1       4.947  26.444  53.638  1.00  0.00     0.148 C 
BRANCH  21  22
HETATM   22  C   UNL     1       6.171  25.763  54.256  1.00  0.00     0.186 C 
BRANCH  22  23
HETATM   23  O   UNL     1       6.122  24.339  54.144  1.00  0.00    -0.394 OA
HETATM   24  C   UNL     1       7.060  23.832  53.203  1.00  0.00     0.201 C 
ENDBRANCH  22  23
ENDBRANCH  21  22
ENDBRANCH  18  21
ENDBRANCH  16  17
ENDBRANCH   3  16
BRANCH  11  25
HETATM   25  C   UNL     1       1.301  29.930  48.811  1.00  0.00     0.176 C 
BRANCH  25  26
HETATM   26  O   UNL     1       0.276  30.868  48.501  1.00  0.00    -0.400 OA
HETATM   27  H   UNL     1       0.727  31.667  48.175  1.00  0.00     0.209 HD
ENDBRANCH  25  26
ENDBRANCH  11  25
BRANCH   7  28
HETATM   28  N   UNL     1       4.982  32.202  52.133  1.00  0.00    -0.334 N 
HETATM   29  H   UNL     1       5.311  33.142  51.943  1.00  0.00     0.168 HD
BRANCH  28  30
HETATM   30  C   UNL     1       3.942  32.243  53.097  1.00  0.00     0.051 A 
HETATM   31  C   UNL     1       2.735  32.928  52.945  1.00  0.00     0.145 A 
HETATM   32  N   UNL     1       1.743  32.967  53.875  1.00  0.00    -0.271 NA
HETATM   33  C   UNL     1       1.945  32.266  55.007  1.00  0.00     0.116 A 
HETATM   34  C   UNL     1       3.080  31.511  55.244  1.00  0.00     0.021 A 
HETATM   35  C   UNL     1       4.078  31.491  54.270  1.00  0.00     0.032 A 
ENDBRANCH  28  30
ENDBRANCH   7  28
BRANCH  13  36
HETATM   36  O   UNL     1       1.203  27.279  49.156  1.00  0.00    -0.395 OA
HETATM   37  H   UNL     1       2.021  27.610  49.570  1.00  0.00     0.210 HD
ENDBRANCH  13  36
TORSDOF 10
ENDMDL
MODEL 8
REMARK VINA RESULT:      -6.6      7.242     10.665
REMARK  10 active torsions:
REMARK  status: ('A' for Active; 'I' for Inactive)
REMARK    1  A    between atoms: C_3  and  C_4 
REMARK    2  A    between atoms: C_4  and  C_5 
REMARK       I    between atoms: C_5  and  N_6 
REMARK    3  A    between atoms: N_6  and  C_7 
REMARK    4  A    between atoms: C_7  and  C_8 
REMARK    5  A    between atoms: C_8  and  O_9 
REMARK    6  A    between atoms: C_15  and  N_16 
REMARK    7  A    between atoms: N_16  and  C_17 
REMARK    8  A    between atoms: C_26  and  C_27 
REMARK    9  A    between atoms: C_27  and  O_28 
REMARK   10  A    between atoms: C_30  and  O_31 
ROOT
HETATM    1  C   UNL     1       2.523  33.848  63.327  1.00  0.00     0.016 C 
HETATM    2  C   UNL     1       3.706  34.806  62.968  1.00  0.00    -0.030 C 
HETATM    3  C   UNL     1       4.810  34.014  62.136  1.00  0.00     0.056 C 
HETATM    4  C   UNL     1       4.411  33.908  60.681  1.00  0.00     0.056 C 
HETATM    5  C   UNL     1       3.339  34.571  60.125  1.00  0.00     0.012 C 
HETATM    6  S   UNL     1       3.187  34.177  58.480  1.00  0.00    -0.055 SA
HETATM    7  C   UNL     1       4.719  33.381  58.552  1.00  0.00     0.172 C 
HETATM    8  N   UNL     1       5.208  33.239  59.768  1.00  0.00    -0.227 NA
HETATM    9  C   UNL     1       2.443  35.527  60.826  1.00  0.00     0.055 C 
HETATM   10  C   UNL     1       3.113  36.024  62.139  1.00  0.00     0.012 C 
HETATM   11  C   UNL     1       4.075  37.288  61.978  1.00  0.00     0.008 C 
HETATM   12  C   UNL     1       3.151  38.540  61.921  1.00  0.00     0.020 C 
HETATM   13  C   UNL     1       4.996  37.453  63.229  1.00  0.00     0.128 C 
HETATM   14  C   UNL     1       4.398  36.812  64.473  1.00  0.00     0.033 C 
HETATM   15  C   UNL     1       4.303  35.294  64.326  1.00  0.00     0.013 C 
ENDROOT
BRANCH   3  16
HETATM   16  C   UNL     1       5.123  32.630  62.732  1.00  0.00     0.114 C 
BRANCH  16  17
HETATM   17  C   UNL     1       6.594  32.279  62.670  1.00  0.00     0.218 C 
HETATM   18  N   UNL     1       6.978  31.589  61.547  1.00  0.00    -0.359 N 
HETATM   19  H   UNL     1       6.431  31.754  60.698  1.00  0.00     0.162 HD
HETATM   20  O   UNL     1       7.356  32.553  63.594  1.00  0.00    -0.274 OA
BRANCH  18  21
HETATM   21  C   UNL     1       8.351  31.148  61.381  1.00  0.00     0.148 C 
BRANCH  21  22
HETATM   22  C   UNL     1       9.224  32.220  60.723  1.00  0.00     0.186 C 
BRANCH  22  23
HETATM   23  O   UNL     1       8.986  32.336  59.318  1.00  0.00    -0.394 OA
HETATM   24  C   UNL     1       9.899  31.568  58.543  1.00  0.00     0.201 C 
ENDBRANCH  22  23
ENDBRANCH  21  22
ENDBRANCH  18  21
ENDBRANCH  16  17
ENDBRANCH   3  16
BRANCH  11  25
HETATM   25  C   UNL     1       4.967  37.317  60.707  1.00  0.00     0.176 C 
BRANCH  25  26
HETATM   26  O   UNL     1       5.836  38.445  60.674  1.00  0.00    -0.400 OA
HETATM   27  H   UNL     1       6.713  38.121  60.946  1.00  0.00     0.209 HD
ENDBRANCH  25  26
ENDBRANCH  11  25
BRANCH   7  28
HETATM   28  N   UNL     1       5.313  32.999  57.393  1.00  0.00    -0.334 N 
HETATM   29  H   UNL     1       6.202  33.456  57.225  1.00  0.00     0.168 HD
BRANCH  28  30
HETATM   30  C   UNL     1       5.387  31.641  56.991  1.00  0.00     0.051 A 
HETATM   31  C   UNL     1       4.792  31.112  55.844  1.00  0.00     0.145 A 
HETATM   32  N   UNL     1       4.861  29.807  55.465  1.00  0.00    -0.271 NA
HETATM   33  C   UNL     1       5.584  28.986  56.251  1.00  0.00     0.116 A 
HETATM   34  C   UNL     1       6.257  29.410  57.383  1.00  0.00     0.021 A 
HETATM   35  C   UNL     1       6.167  30.754  57.743  1.00  0.00     0.032 A 
ENDBRANCH  28  30
ENDBRANCH   7  28
BRANCH  13  36
HETATM   36  O   UNL     1       6.281  36.879  62.996  1.00  0.00    -0.395 OA
HETATM   37  H   UNL     1       6.917  37.605  62.857  1.00  0.00     0.210 HD
ENDBRANCH  13  36
TORSDOF 10
ENDMDL
MODEL 9
REMARK VINA RESULT:      -6.5      4.620      7.871
REMARK  10 active torsions:
REMARK  status: ('A' for Active; 'I' for Inactive)
REMARK    1  A    between atoms: C_3  and  C_4 
REMARK    2  A    between atoms: C_4  and  C_5 
REMARK       I    between atoms: C_5  and  N_6 
REMARK    3  A    between atoms: N_6  and  C_7 
REMARK    4  A    between atoms: C_7  and  C_8 
REMARK    5  A    between atoms: C_8  and  O_9 
REMARK    6  A    between atoms: C_15  and  N_16 
REMARK    7  A    between atoms: N_16  and  C_17 
REMARK    8  A    between atoms: C_26  and  C_27 
REMARK    9  A    between atoms: C_27  and  O_28 
REMARK   10  A    between atoms: C_30  and  O_31 
ROOT
HETATM    1  C   UNL     1       3.204  30.748  58.616  1.00  0.00     0.016 C 
HETATM    2  C   UNL     1       3.977  31.785  57.739  1.00  0.00    -0.030 C 
HETATM    3  C   UNL     1       5.433  31.230  57.402  1.00  0.00     0.056 C 
HETATM    4  C   UNL     1       5.380  30.248  56.253  1.00  0.00     0.056 C 
HETATM    5  C   UNL     1       4.258  30.017  55.486  1.00  0.00     0.012 C 
HETATM    6  S   UNL     1       4.574  28.825  54.319  1.00  0.00    -0.055 SA
HETATM    7  C   UNL     1       6.252  28.903  54.725  1.00  0.00     0.172 C 
HETATM    8  N   UNL     1       6.525  29.616  55.800  1.00  0.00    -0.227 NA
HETATM    9  C   UNL     1       2.953  30.717  55.613  1.00  0.00     0.055 C 
HETATM   10  C   UNL     1       3.130  32.035  56.418  1.00  0.00     0.012 C 
HETATM   11  C   UNL     1       3.551  33.311  55.555  1.00  0.00     0.008 C 
HETATM   12  C   UNL     1       2.247  33.839  54.885  1.00  0.00     0.020 C 
HETATM   13  C   UNL     1       4.091  34.454  56.473  1.00  0.00     0.128 C 
HETATM   14  C   UNL     1       3.564  34.349  57.896  1.00  0.00     0.033 C 
HETATM   15  C   UNL     1       4.082  33.089  58.590  1.00  0.00     0.013 C 
ENDROOT
BRANCH   3  16
HETATM   16  C   UNL     1       6.133  30.619  58.629  1.00  0.00     0.114 C 
BRANCH  16  17
HETATM   17  C   UNL     1       7.007  31.611  59.365  1.00  0.00     0.218 C 
HETATM   18  N   UNL     1       6.702  31.777  60.694  1.00  0.00    -0.359 N 
HETATM   19  H   UNL     1       6.283  30.975  61.172  1.00  0.00     0.162 HD
HETATM   20  O   UNL     1       7.881  32.248  58.782  1.00  0.00    -0.274 OA
BRANCH  18  21
HETATM   21  C   UNL     1       7.432  32.733  61.507  1.00  0.00     0.148 C 
BRANCH  21  22
HETATM   22  C   UNL     1       8.022  32.088  62.764  1.00  0.00     0.186 C 
BRANCH  22  23
HETATM   23  O   UNL     1       8.311  30.699  62.584  1.00  0.00    -0.394 OA
HETATM   24  C   UNL     1       9.513  30.481  61.855  1.00  0.00     0.201 C 
ENDBRANCH  22  23
ENDBRANCH  21  22
ENDBRANCH  18  21
ENDBRANCH  16  17
ENDBRANCH   3  16
BRANCH  11  25
HETATM   25  C   UNL     1       4.583  33.065  54.420  1.00  0.00     0.176 C 
BRANCH  25  26
HETATM   26  O   UNL     1       4.927  34.258  53.725  1.00  0.00    -0.400 OA
HETATM   27  H   UNL     1       5.787  34.543  54.083  1.00  0.00     0.209 HD
ENDBRANCH  25  26
ENDBRANCH  11  25
BRANCH   7  28
HETATM   28  N   UNL     1       7.150  28.278  53.921  1.00  0.00    -0.334 N 
HETATM   29  H   UNL     1       8.030  28.774  53.837  1.00  0.00     0.168 HD
BRANCH  28  30
HETATM   30  C   UNL     1       7.388  26.882  53.993  1.00  0.00     0.051 A 
HETATM   31  C   UNL     1       7.381  26.128  55.168  1.00  0.00     0.145 A 
HETATM   32  N   UNL     1       7.615  24.789  55.231  1.00  0.00    -0.271 NA
HETATM   33  C   UNL     1       7.841  24.157  54.063  1.00  0.00     0.116 A 
HETATM   34  C   UNL     1       7.822  24.794  52.836  1.00  0.00     0.021 A 
HETATM   35  C   UNL     1       7.578  26.167  52.804  1.00  0.00     0.032 A 
ENDBRANCH  28  30
ENDBRANCH   7  28
BRANCH  13  36
HETATM   36  O   UNL     1       5.518  34.442  56.514  1.00  0.00    -0.395 OA
HETATM   37  H   UNL     1       5.798  34.715  57.407  1.00  0.00     0.210 HD
ENDBRANCH  13  36
TORSDOF 10
ENDMDL
MODEL 10
REMARK VINA RESULT:      -6.4      6.502     10.450
REMARK  10 active torsions:
REMARK  status: ('A' for Active; 'I' for Inactive)
REMARK    1  A    between atoms: C_3  and  C_4 
REMARK    2  A    between atoms: C_4  and  C_5 
REMARK       I    between atoms: C_5  and  N_6 
REMARK    3  A    between atoms: N_6  and  C_7 
REMARK    4  A    between atoms: C_7  and  C_8 
REMARK    5  A    between atoms: C_8  and  O_9 
REMARK    6  A    between atoms: C_15  and  N_16 
REMARK    7  A    between atoms: N_16  and  C_17 
REMARK    8  A    between atoms: C_26  and  C_27 
REMARK    9  A    between atoms: C_27  and  O_28 
REMARK   10  A    between atoms: C_30  and  O_31 
ROOT
HETATM    1  C   UNL     1       4.957  36.622  59.719  1.00  0.00     0.016 C 
HETATM    2  C   UNL     1       4.018  35.441  60.127  1.00  0.00    -0.030 C 
HETATM    3  C   UNL     1       4.341  34.160  59.235  1.00  0.00     0.056 C 
HETATM    4  C   UNL     1       5.550  33.426  59.769  1.00  0.00     0.056 C 
HETATM    5  C   UNL     1       6.164  33.719  60.967  1.00  0.00     0.012 C 
HETATM    6  S   UNL     1       7.507  32.708  61.208  1.00  0.00    -0.055 SA
HETATM    7  C   UNL     1       7.012  31.765  59.846  1.00  0.00     0.172 C 
HETATM    8  N   UNL     1       6.034  32.293  59.138  1.00  0.00    -0.227 NA
HETATM    9  C   UNL     1       5.722  34.744  61.948  1.00  0.00     0.055 C 
HETATM   10  C   UNL     1       4.246  35.147  61.671  1.00  0.00     0.012 C 
HETATM   11  C   UNL     1       3.144  34.228  62.373  1.00  0.00     0.008 C 
HETATM   12  C   UNL     1       3.048  34.708  63.852  1.00  0.00     0.020 C 
HETATM   13  C   UNL     1       1.739  34.447  61.727  1.00  0.00     0.128 C 
HETATM   14  C   UNL     1       1.617  35.809  61.059  1.00  0.00     0.033 C 
HETATM   15  C   UNL     1       2.559  35.928  59.862  1.00  0.00     0.013 C 
ENDROOT
BRANCH   3  16
HETATM   16  C   UNL     1       4.506  34.503  57.744  1.00  0.00     0.114 C 
BRANCH  16  17
HETATM   17  C   UNL     1       3.705  33.595  56.837  1.00  0.00     0.218 C 
HETATM   18  N   UNL     1       4.422  32.579  56.254  1.00  0.00    -0.359 N 
HETATM   19  H   UNL     1       5.234  32.236  56.772  1.00  0.00     0.162 HD
HETATM   20  O   UNL     1       2.516  33.806  56.611  1.00  0.00    -0.274 OA
BRANCH  18  21
HETATM   21  C   UNL     1       3.786  31.663  55.324  1.00  0.00     0.148 C 
BRANCH  21  22
HETATM   22  C   UNL     1       3.529  30.291  55.953  1.00  0.00     0.186 C 
BRANCH  22  23
HETATM   23  O   UNL     1       4.132  30.156  57.243  1.00  0.00    -0.394 OA
HETATM   24  C   UNL     1       5.133  29.147  57.276  1.00  0.00     0.201 C 
ENDBRANCH  22  23
ENDBRANCH  21  22
ENDBRANCH  18  21
ENDBRANCH  16  17
ENDBRANCH   3  16
BRANCH  11  25
HETATM   25  C   UNL     1       3.438  32.703  62.404  1.00  0.00     0.176 C 
BRANCH  25  26
HETATM   26  O   UNL     1       4.320  32.337  63.460  1.00  0.00    -0.400 OA
HETATM   27  H   UNL     1       4.922  33.092  63.585  1.00  0.00     0.209 HD
ENDBRANCH  25  26
ENDBRANCH  11  25
BRANCH   7  28
HETATM   28  N   UNL     1       7.618  30.570  59.623  1.00  0.00    -0.334 N 
HETATM   29  H   UNL     1       6.966  29.802  59.510  1.00  0.00     0.168 HD
BRANCH  28  30
HETATM   30  C   UNL     1       8.696  30.425  58.714  1.00  0.00     0.051 A 
HETATM   31  C   UNL     1       9.754  31.326  58.575  1.00  0.00     0.145 A 
HETATM   32  N   UNL     1      10.783  31.184  57.698  1.00  0.00    -0.271 NA
HETATM   33  C   UNL     1      10.780  30.074  56.933  1.00  0.00     0.116 A 
HETATM   34  C   UNL     1       9.810  29.092  57.020  1.00  0.00     0.021 A 
HETATM   35  C   UNL     1       8.769  29.266  57.931  1.00  0.00     0.032 A 
ENDBRANCH  28  30
ENDBRANCH   7  28
BRANCH  13  36
HETATM   36  O   UNL     1       1.463  33.438  60.755  1.00  0.00    -0.395 OA
HETATM   37  H   UNL     1       0.717  33.741  60.206  1.00  0.00     0.210 HD
ENDBRANCH  13  36
TORSDOF 10
ENDMDL
