MODEL 1
REMARK VINA RESULT:     -10.1      0.000      0.000
REMARK  7 active torsions:
REMARK  status: ('A' for Active; 'I' for Inactive)
REMARK    1  A    between atoms: N_7  and  C_8 
REMARK    2  A    between atoms: C_8  and  C_9 
REMARK       I    between atoms: C_9  and  N_10 
REMARK    3  A    between atoms: N_10  and  C_11 
REMARK    4  A    between atoms: C_11  and  C_12 
REMARK    5  A    between atoms: C_12  and  C_13 
REMARK    6  A    between atoms: C_12  and  C_23 
REMARK    7  A    between atoms: C_26  and  O_27 
ROOT
HETATM    1  C   UNL     1       5.424  27.299  56.172  1.00  0.00     0.136 C 
ENDROOT
BRANCH   1   2
HETATM    2  N   UNL     1       4.620  27.171  54.968  1.00  0.00    -0.359 N 
HETATM    3  C   UNL     1       4.269  28.287  54.232  1.00  0.00     0.236 C 
HETATM    4  O   UNL     1       4.549  29.432  54.579  1.00  0.00    -0.272 OA
HETATM    5  H   UNL     1       4.569  26.263  54.514  1.00  0.00     0.162 HD
BRANCH   3   6
HETATM    6  C   UNL     1       3.435  28.000  52.986  1.00  0.00     0.239 C 
BRANCH   6   7
HETATM    7  N   UNL     1       4.221  28.191  51.786  1.00  0.00    -0.259 N 
HETATM    8  C   UNL     1       5.230  27.378  51.398  1.00  0.00     0.326 A 
HETATM    9  N   UNL     1       5.744  27.842  50.217  1.00  0.00    -0.324 N 
HETATM   10  O   UNL     1       5.655  26.407  52.001  1.00  0.00    -0.247 OA
HETATM   11  C   UNL     1       5.056  29.021  49.718  1.00  0.00     0.119 A 
HETATM   12  H   UNL     1       6.528  27.383  49.773  1.00  0.00     0.165 HD
HETATM   13  C   UNL     1       4.314  28.729  48.391  1.00  0.00     0.019 C 
HETATM   14  C   UNL     1       4.044  29.201  50.882  1.00  0.00     0.257 A 
HETATM   15  C   UNL     1       6.025  30.208  49.645  1.00  0.00     0.041 C 
HETATM   16  C   UNL     1       5.207  28.016  47.362  1.00  0.00     0.013 C 
HETATM   17  C   UNL     1       3.732  30.015  47.776  1.00  0.00     0.007 C 
HETATM   18  C   UNL     1       4.760  31.136  47.655  1.00  0.00     0.001 C 
HETATM   19  C   UNL     1       5.412  31.449  48.996  1.00  0.00     0.003 C 
HETATM   20  O   UNL     1       3.204  30.087  50.961  1.00  0.00    -0.270 OA
ENDBRANCH   6   7
ENDBRANCH   3   6
ENDBRANCH   1   2
BRANCH   1  21
HETATM   21  C   UNL     1       6.961  27.203  56.033  1.00  0.00     0.071 C 
BRANCH  21  22
HETATM   22  C   UNL     1       7.578  25.865  56.374  1.00  0.00    -0.020 A 
HETATM   23  C   UNL     1       7.848  24.805  55.433  1.00  0.00    -0.001 A 
HETATM   24  C   UNL     1       8.413  23.741  56.137  1.00  0.00     0.042 A 
HETATM   25  C   UNL     1       7.671  24.659  54.040  1.00  0.00     0.014 A 
HETATM   26  C   UNL     1       8.802  22.544  55.526  1.00  0.00     0.030 A 
HETATM   27  N   UNL     1       8.495  24.129  57.451  1.00  0.00    -0.365 N 
HETATM   28  C   UNL     1       8.616  22.427  54.147  1.00  0.00     0.002 A 
HETATM   29  C   UNL     1       8.059  23.469  53.411  1.00  0.00     0.001 A 
HETATM   30  H   UNL     1       8.882  23.562  58.192  1.00  0.00     0.165 HD
HETATM   31  C   UNL     1       8.005  25.396  57.605  1.00  0.00     0.097 A 
ENDBRANCH  21  22
BRANCH  21  32
HETATM   32  C   UNL     1       7.803  28.264  56.727  1.00  0.00    -0.048 A 
HETATM   33  C   UNL     1       7.294  28.899  57.873  1.00  0.00     0.011 A 
HETATM   34  C   UNL     1       8.032  29.880  58.543  1.00  0.00     0.037 A 
HETATM   35  C   UNL     1       9.294  30.257  58.086  1.00  0.00     0.068 A 
HETATM   36  C   UNL     1       9.809  29.645  56.945  1.00  0.00     0.037 A 
HETATM   37  C   UNL     1       9.071  28.661  56.274  1.00  0.00     0.011 A 
BRANCH  35  38
HETATM   38  O   UNL     1       9.908  31.224  58.831  1.00  0.00    -0.356 OA
HETATM   39  C   UNL     1       9.074  32.022  59.660  1.00  0.00     0.210 C 
ENDBRANCH  35  38
ENDBRANCH  21  32
ENDBRANCH   1  21
TORSDOF 7
ENDMDL
MODEL 2
REMARK VINA RESULT:     -10.0      1.638      2.241
REMARK  7 active torsions:
REMARK  status: ('A' for Active; 'I' for Inactive)
REMARK    1  A    between atoms: N_7  and  C_8 
REMARK    2  A    between atoms: C_8  and  C_9 
REMARK       I    between atoms: C_9  and  N_10 
REMARK    3  A    between atoms: N_10  and  C_11 
REMARK    4  A    between atoms: C_11  and  C_12 
REMARK    5  A    between atoms: C_12  and  C_13 
REMARK    6  A    between atoms: C_12  and  C_23 
REMARK    7  A    between atoms: C_26  and  O_27 
ROOT
HETATM    1  C   UNL     1       5.322  28.537  54.976  1.00  0.00     0.136 C 
ENDROOT
BRANCH   1   2
HETATM    2  N   UNL     1       5.028  29.463  53.895  1.00  0.00    -0.359 N 
HETATM    3  C   UNL     1       3.911  29.286  53.100  1.00  0.00     0.236 C 
HETATM    4  O   UNL     1       3.157  28.323  53.211  1.00  0.00    -0.272 OA
HETATM    5  H   UNL     1       5.464  30.381  53.911  1.00  0.00     0.162 HD
BRANCH   3   6
HETATM    6  C   UNL     1       3.722  30.342  52.013  1.00  0.00     0.239 C 
BRANCH   6   7
HETATM    7  N   UNL     1       3.922  29.770  50.699  1.00  0.00    -0.259 N 
HETATM    8  C   UNL     1       5.118  29.699  50.073  1.00  0.00     0.326 A 
HETATM    9  N   UNL     1       4.948  29.091  48.859  1.00  0.00    -0.324 N 
HETATM   10  O   UNL     1       6.182  30.132  50.485  1.00  0.00    -0.247 OA
HETATM   11  C   UNL     1       3.576  28.679  48.613  1.00  0.00     0.119 A 
HETATM   12  H   UNL     1       5.726  28.965  48.225  1.00  0.00     0.165 HD
HETATM   13  C   UNL     1       3.449  27.137  48.539  1.00  0.00     0.019 C 
HETATM   14  C   UNL     1       2.942  29.217  49.924  1.00  0.00     0.257 A 
HETATM   15  C   UNL     1       3.013  29.413  47.390  1.00  0.00     0.041 C 
HETATM   16  C   UNL     1       4.493  26.505  47.604  1.00  0.00     0.013 C 
HETATM   17  C   UNL     1       2.033  26.710  48.109  1.00  0.00     0.007 C 
HETATM   18  C   UNL     1       1.557  27.413  46.842  1.00  0.00     0.001 C 
HETATM   19  C   UNL     1       1.623  28.929  46.982  1.00  0.00     0.003 C 
HETATM   20  O   UNL     1       1.759  29.132  50.227  1.00  0.00    -0.270 OA
ENDBRANCH   6   7
ENDBRANCH   3   6
ENDBRANCH   1   2
BRANCH   1  21
HETATM   21  C   UNL     1       6.797  28.134  55.206  1.00  0.00     0.071 C 
BRANCH  21  22
HETATM   22  C   UNL     1       7.061  26.655  55.391  1.00  0.00    -0.020 A 
HETATM   23  C   UNL     1       7.372  25.724  54.334  1.00  0.00    -0.001 A 
HETATM   24  C   UNL     1       7.542  24.464  54.910  1.00  0.00     0.042 A 
HETATM   25  C   UNL     1       7.535  25.841  52.936  1.00  0.00     0.014 A 
HETATM   26  C   UNL     1       7.858  23.322  54.166  1.00  0.00     0.030 A 
HETATM   27  N   UNL     1       7.352  24.612  56.261  1.00  0.00    -0.365 N 
HETATM   28  C   UNL     1       8.013  23.468  52.786  1.00  0.00     0.002 A 
HETATM   29  C   UNL     1       7.855  24.709  52.177  1.00  0.00     0.001 A 
HETATM   30  H   UNL     1       7.432  23.865  56.936  1.00  0.00     0.165 HD
HETATM   31  C   UNL     1       7.070  25.917  56.562  1.00  0.00     0.097 A 
ENDBRANCH  21  22
BRANCH  21  32
HETATM   32  C   UNL     1       7.567  28.857  56.301  1.00  0.00    -0.048 A 
HETATM   33  C   UNL     1       6.856  29.474  57.345  1.00  0.00     0.011 A 
HETATM   34  C   UNL     1       7.521  30.150  58.372  1.00  0.00     0.037 A 
HETATM   35  C   UNL     1       8.913  30.233  58.383  1.00  0.00     0.068 A 
HETATM   36  C   UNL     1       9.633  29.637  57.351  1.00  0.00     0.037 A 
HETATM   37  C   UNL     1       8.967  28.958  56.323  1.00  0.00     0.011 A 
BRANCH  35  38
HETATM   38  O   UNL     1       9.438  30.921  59.442  1.00  0.00    -0.356 OA
HETATM   39  C   UNL     1       8.953  30.577  60.734  1.00  0.00     0.210 C 
ENDBRANCH  35  38
ENDBRANCH  21  32
ENDBRANCH   1  21
TORSDOF 7
ENDMDL
MODEL 3
REMARK VINA RESULT:      -9.7      1.908      2.880
REMARK  7 active torsions:
REMARK  status: ('A' for Active; 'I' for Inactive)
REMARK    1  A    between atoms: N_7  and  C_8 
REMARK    2  A    between atoms: C_8  and  C_9 
REMARK       I    between atoms: C_9  and  N_10 
REMARK    3  A    between atoms: N_10  and  C_11 
REMARK    4  A    between atoms: C_11  and  C_12 
REMARK    5  A    between atoms: C_12  and  C_13 
REMARK    6  A    between atoms: C_12  and  C_23 
REMARK    7  A    between atoms: C_26  and  O_27 
ROOT
HETATM    1  C   UNL     1       5.884  26.282  54.042  1.00  0.00     0.136 C 
ENDROOT
BRANCH   1   2
HETATM    2  N   UNL     1       5.758  27.357  53.073  1.00  0.00    -0.359 N 
HETATM    3  C   UNL     1       5.508  27.081  51.741  1.00  0.00     0.236 C 
HETATM    4  O   UNL     1       5.448  25.938  51.295  1.00  0.00    -0.272 OA
HETATM    5  H   UNL     1       5.560  28.294  53.413  1.00  0.00     0.162 HD
BRANCH   3   6
HETATM    6  C   UNL     1       5.386  28.309  50.842  1.00  0.00     0.239 C 
BRANCH   6   7
HETATM    7  N   UNL     1       4.013  28.513  50.432  1.00  0.00    -0.259 N 
HETATM    8  C   UNL     1       3.004  28.821  51.278  1.00  0.00     0.326 A 
HETATM    9  N   UNL     1       1.848  28.955  50.557  1.00  0.00    -0.324 N 
HETATM   10  O   UNL     1       3.077  28.931  52.490  1.00  0.00    -0.247 OA
HETATM   11  C   UNL     1       2.038  28.765  49.129  1.00  0.00     0.119 A 
HETATM   12  H   UNL     1       0.969  29.161  51.014  1.00  0.00     0.165 HD
HETATM   13  C   UNL     1       1.773  30.070  48.340  1.00  0.00     0.019 C 
HETATM   14  C   UNL     1       3.556  28.436  49.147  1.00  0.00     0.257 A 
HETATM   15  C   UNL     1       1.222  27.561  48.641  1.00  0.00     0.041 C 
HETATM   16  C   UNL     1       0.443  30.735  48.733  1.00  0.00     0.013 C 
HETATM   17  C   UNL     1       1.807  29.826  46.820  1.00  0.00     0.007 C 
HETATM   18  C   UNL     1       0.915  28.668  46.382  1.00  0.00     0.001 C 
HETATM   19  C   UNL     1       1.258  27.382  47.124  1.00  0.00     0.003 C 
HETATM   20  O   UNL     1       4.237  28.179  48.164  1.00  0.00    -0.270 OA
ENDBRANCH   6   7
ENDBRANCH   3   6
ENDBRANCH   1   2
BRANCH   1  21
HETATM   21  C   UNL     1       7.162  26.232  54.911  1.00  0.00     0.071 C 
BRANCH  21  22
HETATM   22  C   UNL     1       7.471  24.904  55.566  1.00  0.00    -0.020 A 
HETATM   23  C   UNL     1       7.647  23.651  54.871  1.00  0.00    -0.001 A 
HETATM   24  C   UNL     1       7.913  22.667  55.824  1.00  0.00     0.042 A 
HETATM   25  C   UNL     1       7.614  23.267  53.512  1.00  0.00     0.014 A 
HETATM   26  C   UNL     1       8.140  21.327  55.492  1.00  0.00     0.030 A 
HETATM   27  N   UNL     1       7.909  23.285  57.049  1.00  0.00    -0.365 N 
HETATM   28  C   UNL     1       8.102  20.976  54.141  1.00  0.00     0.002 A 
HETATM   29  C   UNL     1       7.844  21.931  53.162  1.00  0.00     0.001 A 
HETATM   30  H   UNL     1       8.092  22.818  57.926  1.00  0.00     0.165 HD
HETATM   31  C   UNL     1       7.651  24.621  56.908  1.00  0.00     0.097 A 
ENDBRANCH  21  22
BRANCH  21  32
HETATM   32  C   UNL     1       7.332  27.300  55.982  1.00  0.00    -0.048 A 
HETATM   33  C   UNL     1       6.188  27.881  56.556  1.00  0.00     0.011 A 
HETATM   34  C   UNL     1       6.296  28.865  57.543  1.00  0.00     0.037 A 
HETATM   35  C   UNL     1       7.546  29.298  57.982  1.00  0.00     0.068 A 
HETATM   36  C   UNL     1       8.690  28.741  57.417  1.00  0.00     0.037 A 
HETATM   37  C   UNL     1       8.583  27.753  56.428  1.00  0.00     0.011 A 
BRANCH  35  38
HETATM   38  O   UNL     1       7.511  30.263  58.950  1.00  0.00    -0.356 OA
HETATM   39  C   UNL     1       8.683  30.422  59.739  1.00  0.00     0.210 C 
ENDBRANCH  35  38
ENDBRANCH  21  32
ENDBRANCH   1  21
TORSDOF 7
ENDMDL
MODEL 4
REMARK VINA RESULT:      -9.6      2.626      5.503
REMARK  7 active torsions:
REMARK  status: ('A' for Active; 'I' for Inactive)
REMARK    1  A    between atoms: N_7  and  C_8 
REMARK    2  A    between atoms: C_8  and  C_9 
REMARK       I    between atoms: C_9  and  N_10 
REMARK    3  A    between atoms: N_10  and  C_11 
REMARK    4  A    between atoms: C_11  and  C_12 
REMARK    5  A    between atoms: C_12  and  C_13 
REMARK    6  A    between atoms: C_12  and  C_23 
REMARK    7  A    between atoms: C_26  and  O_27 
ROOT
HETATM    1  C   UNL     1       4.584  25.786  52.984  1.00  0.00     0.136 C 
ENDROOT
BRANCH   1   2
HETATM    2  N   UNL     1       4.668  26.973  52.151  1.00  0.00    -0.359 N 
HETATM    3  C   UNL     1       3.977  28.122  52.488  1.00  0.00     0.236 C 
HETATM    4  O   UNL     1       3.214  28.185  53.450  1.00  0.00    -0.272 OA
HETATM    5  H   UNL     1       5.447  27.056  51.503  1.00  0.00     0.162 HD
BRANCH   3   6
HETATM    6  C   UNL     1       4.170  29.294  51.529  1.00  0.00     0.239 C 
BRANCH   6   7
HETATM    7  N   UNL     1       3.950  28.880  50.160  1.00  0.00    -0.259 N 
HETATM    8  C   UNL     1       4.928  28.463  49.324  1.00  0.00     0.326 A 
HETATM    9  N   UNL     1       4.370  28.138  48.117  1.00  0.00    -0.324 N 
HETATM   10  O   UNL     1       6.122  28.412  49.568  1.00  0.00    -0.247 OA
HETATM   11  C   UNL     1       2.926  28.298  48.093  1.00  0.00     0.119 A 
HETATM   12  H   UNL     1       4.943  27.826  47.345  1.00  0.00     0.165 HD
HETATM   13  C   UNL     1       2.204  26.939  47.923  1.00  0.00     0.019 C 
HETATM   14  C   UNL     1       2.736  28.841  49.535  1.00  0.00     0.257 A 
HETATM   15  C   UNL     1       2.526  29.353  47.053  1.00  0.00     0.041 C 
HETATM   16  C   UNL     1       2.782  26.106  46.767  1.00  0.00     0.013 C 
HETATM   17  C   UNL     1       0.688  27.127  47.726  1.00  0.00     0.007 C 
HETATM   18  C   UNL     1       0.350  28.127  46.624  1.00  0.00     0.001 C 
HETATM   19  C   UNL     1       1.015  29.477  46.867  1.00  0.00     0.003 C 
HETATM   20  O   UNL     1       1.666  29.155  50.040  1.00  0.00    -0.270 OA
ENDBRANCH   6   7
ENDBRANCH   3   6
ENDBRANCH   1   2
BRANCH   1  21
HETATM   21  C   UNL     1       5.549  25.672  54.187  1.00  0.00     0.071 C 
BRANCH  21  22
HETATM   22  C   UNL     1       6.413  26.882  54.463  1.00  0.00    -0.020 A 
HETATM   23  C   UNL     1       6.206  27.830  55.532  1.00  0.00    -0.001 A 
HETATM   24  C   UNL     1       7.208  28.797  55.447  1.00  0.00     0.042 A 
HETATM   25  C   UNL     1       5.259  27.947  56.573  1.00  0.00     0.014 A 
HETATM   26  C   UNL     1       7.309  29.871  56.338  1.00  0.00     0.030 A 
HETATM   27  N   UNL     1       8.002  28.458  54.380  1.00  0.00    -0.365 N 
HETATM   28  C   UNL     1       6.359  29.961  57.358  1.00  0.00     0.002 A 
HETATM   29  C   UNL     1       5.348  29.012  57.477  1.00  0.00     0.001 A 
HETATM   30  H   UNL     1       8.822  28.972  54.090  1.00  0.00     0.165 HD
HETATM   31  C   UNL     1       7.541  27.315  53.788  1.00  0.00     0.097 A 
ENDBRANCH  21  22
BRANCH  21  32
HETATM   32  C   UNL     1       6.463  24.457  54.250  1.00  0.00    -0.048 A 
HETATM   33  C   UNL     1       6.867  23.843  53.052  1.00  0.00     0.011 A 
HETATM   34  C   UNL     1       7.706  22.724  53.062  1.00  0.00     0.037 A 
HETATM   35  C   UNL     1       8.160  22.186  54.265  1.00  0.00     0.068 A 
HETATM   36  C   UNL     1       7.761  22.775  55.461  1.00  0.00     0.037 A 
HETATM   37  C   UNL     1       6.921  23.898  55.452  1.00  0.00     0.011 A 
BRANCH  35  38
HETATM   38  O   UNL     1       8.973  21.094  54.134  1.00  0.00    -0.356 OA
HETATM   39  C   UNL     1       9.176  20.303  55.298  1.00  0.00     0.210 C 
ENDBRANCH  35  38
ENDBRANCH  21  32
ENDBRANCH   1  21
TORSDOF 7
ENDMDL
MODEL 5
REMARK VINA RESULT:      -9.5      2.613      5.732
REMARK  7 active torsions:
REMARK  status: ('A' for Active; 'I' for Inactive)
REMARK    1  A    between atoms: N_7  and  C_8 
REMARK    2  A    between atoms: C_8  and  C_9 
REMARK       I    between atoms: C_9  and  N_10 
REMARK    3  A    between atoms: N_10  and  C_11 
REMARK    4  A    between atoms: C_11  and  C_12 
REMARK    5  A    between atoms: C_12  and  C_13 
REMARK    6  A    between atoms: C_12  and  C_23 
REMARK    7  A    between atoms: C_26  and  O_27 
ROOT
HETATM    1  C   UNL     1       4.915  25.890  53.476  1.00  0.00     0.136 C 
ENDROOT
BRANCH   1   2
HETATM    2  N   UNL     1       4.875  27.082  52.645  1.00  0.00    -0.359 N 
HETATM    3  C   UNL     1       5.151  27.009  51.293  1.00  0.00     0.236 C 
HETATM    4  O   UNL     1       5.506  25.972  50.738  1.00  0.00    -0.272 OA
HETATM    5  H   UNL     1       4.367  27.893  52.987  1.00  0.00     0.162 HD
BRANCH   3   6
HETATM    6  C   UNL     1       5.057  28.337  50.545  1.00  0.00     0.239 C 
BRANCH   6   7
HETATM    7  N   UNL     1       3.696  28.598  50.130  1.00  0.00    -0.259 N 
HETATM    8  C   UNL     1       2.722  29.051  50.952  1.00  0.00     0.326 A 
HETATM    9  N   UNL     1       1.568  29.200  50.232  1.00  0.00    -0.324 N 
HETATM   10  O   UNL     1       2.821  29.263  52.149  1.00  0.00    -0.247 OA
HETATM   11  C   UNL     1       1.724  28.870  48.825  1.00  0.00     0.119 A 
HETATM   12  H   UNL     1       0.713  29.506  50.675  1.00  0.00     0.165 HD
HETATM   13  C   UNL     1       1.538  30.115  47.924  1.00  0.00     0.019 C 
HETATM   14  C   UNL     1       3.216  28.439  48.860  1.00  0.00     0.257 A 
HETATM   15  C   UNL     1       0.821  27.688  48.454  1.00  0.00     0.041 C 
HETATM   16  C   UNL     1       0.264  30.904  48.266  1.00  0.00     0.013 C 
HETATM   17  C   UNL     1       1.534  29.734  46.432  1.00  0.00     0.007 C 
HETATM   18  C   UNL     1       0.558  28.607  46.107  1.00  0.00     0.001 C 
HETATM   19  C   UNL     1       0.823  27.371  46.959  1.00  0.00     0.003 C 
HETATM   20  O   UNL     1       3.864  28.049  47.899  1.00  0.00    -0.270 OA
ENDBRANCH   6   7
ENDBRANCH   3   6
ENDBRANCH   1   2
BRANCH   1  21
HETATM   21  C   UNL     1       6.064  25.757  54.502  1.00  0.00     0.071 C 
BRANCH  21  22
HETATM   22  C   UNL     1       6.999  26.942  54.611  1.00  0.00    -0.020 A 
HETATM   23  C   UNL     1       7.339  27.627  55.835  1.00  0.00    -0.001 A 
HETATM   24  C   UNL     1       8.221  28.660  55.516  1.00  0.00     0.042 A 
HETATM   25  C   UNL     1       6.983  27.454  57.190  1.00  0.00     0.014 A 
HETATM   26  C   UNL     1       8.757  29.527  56.474  1.00  0.00     0.030 A 
HETATM   27  N   UNL     1       8.423  28.610  54.159  1.00  0.00    -0.365 N 
HETATM   28  C   UNL     1       8.387  29.333  57.806  1.00  0.00     0.002 A 
HETATM   29  C   UNL     1       7.513  28.311  58.163  1.00  0.00     0.001 A 
HETATM   30  H   UNL     1       9.034  29.231  53.648  1.00  0.00     0.165 HD
HETATM   31  C   UNL     1       7.703  27.586  53.608  1.00  0.00     0.097 A 
ENDBRANCH  21  22
BRANCH  21  32
HETATM   32  C   UNL     1       6.938  24.514  54.429  1.00  0.00    -0.048 A 
HETATM   33  C   UNL     1       7.191  23.927  53.177  1.00  0.00     0.011 A 
HETATM   34  C   UNL     1       7.988  22.784  53.063  1.00  0.00     0.037 A 
HETATM   35  C   UNL     1       8.551  22.193  54.193  1.00  0.00     0.068 A 
HETATM   36  C   UNL     1       8.303  22.755  55.443  1.00  0.00     0.037 A 
HETATM   37  C   UNL     1       7.505  23.902  55.558  1.00  0.00     0.011 A 
BRANCH  35  38
HETATM   38  O   UNL     1       9.308  21.083  53.943  1.00  0.00    -0.356 OA
HETATM   39  C   UNL     1       8.737  20.094  53.096  1.00  0.00     0.210 C 
ENDBRANCH  35  38
ENDBRANCH  21  32
ENDBRANCH   1  21
TORSDOF 7
ENDMDL
MODEL 6
REMARK VINA RESULT:      -9.5      2.315      5.215
REMARK  7 active torsions:
REMARK  status: ('A' for Active; 'I' for Inactive)
REMARK    1  A    between atoms: N_7  and  C_8 
REMARK    2  A    between atoms: C_8  and  C_9 
REMARK       I    between atoms: C_9  and  N_10 
REMARK    3  A    between atoms: N_10  and  C_11 
REMARK    4  A    between atoms: C_11  and  C_12 
REMARK    5  A    between atoms: C_12  and  C_13 
REMARK    6  A    between atoms: C_12  and  C_23 
REMARK    7  A    between atoms: C_26  and  O_27 
ROOT
HETATM    1  C   UNL     1       4.862  27.825  55.446  1.00  0.00     0.136 C 
ENDROOT
BRANCH   1   2
HETATM    2  N   UNL     1       4.767  28.861  54.432  1.00  0.00    -0.359 N 
HETATM    3  C   UNL     1       3.862  28.751  53.392  1.00  0.00     0.236 C 
HETATM    4  O   UNL     1       3.151  27.763  53.228  1.00  0.00    -0.272 OA
HETATM    5  H   UNL     1       5.143  29.782  54.644  1.00  0.00     0.162 HD
BRANCH   3   6
HETATM    6  C   UNL     1       3.865  29.920  52.411  1.00  0.00     0.239 C 
BRANCH   6   7
HETATM    7  N   UNL     1       4.004  29.450  51.049  1.00  0.00    -0.259 N 
HETATM    8  C   UNL     1       5.189  29.197  50.448  1.00  0.00     0.326 A 
HETATM    9  N   UNL     1       4.954  28.756  49.174  1.00  0.00    -0.324 N 
HETATM   10  O   UNL     1       6.298  29.362  50.928  1.00  0.00    -0.247 OA
HETATM   11  C   UNL     1       3.540  28.658  48.854  1.00  0.00     0.119 A 
HETATM   12  H   UNL     1       5.718  28.537  48.549  1.00  0.00     0.165 HD
HETATM   13  C   UNL     1       3.110  27.190  48.617  1.00  0.00     0.019 C 
HETATM   14  C   UNL     1       2.969  29.185  50.198  1.00  0.00     0.257 A 
HETATM   15  C   UNL     1       3.190  29.607  47.700  1.00  0.00     0.041 C 
HETATM   16  C   UNL     1       4.046  26.451  47.646  1.00  0.00     0.013 C 
HETATM   17  C   UNL     1       1.658  27.103  48.112  1.00  0.00     0.007 C 
HETATM   18  C   UNL     1       1.389  28.008  46.913  1.00  0.00     0.001 C 
HETATM   19  C   UNL     1       1.750  29.458  47.211  1.00  0.00     0.003 C 
HETATM   20  O   UNL     1       1.781  29.314  50.462  1.00  0.00    -0.270 OA
ENDBRANCH   6   7
ENDBRANCH   3   6
ENDBRANCH   1   2
BRANCH   1  21
HETATM   21  C   UNL     1       6.232  27.141  55.661  1.00  0.00     0.071 C 
BRANCH  21  22
HETATM   22  C   UNL     1       7.449  28.026  55.505  1.00  0.00    -0.020 A 
HETATM   23  C   UNL     1       8.079  28.773  56.566  1.00  0.00    -0.001 A 
HETATM   24  C   UNL     1       9.163  29.462  56.020  1.00  0.00     0.042 A 
HETATM   25  C   UNL     1       7.830  28.919  57.949  1.00  0.00     0.014 A 
HETATM   26  C   UNL     1      10.001  30.288  56.777  1.00  0.00     0.030 A 
HETATM   27  N   UNL     1       9.205  29.148  54.684  1.00  0.00    -0.365 N 
HETATM   28  C   UNL     1       9.732  30.412  58.141  1.00  0.00     0.002 A 
HETATM   29  C   UNL     1       8.662  29.737  58.722  1.00  0.00     0.001 A 
HETATM   30  H   UNL     1       9.900  29.490  54.038  1.00  0.00     0.165 HD
HETATM   31  C   UNL     1       8.190  28.287  54.366  1.00  0.00     0.097 A 
ENDBRANCH  21  22
BRANCH  21  32
HETATM   32  C   UNL     1       6.516  25.863  54.883  1.00  0.00    -0.048 A 
HETATM   33  C   UNL     1       7.441  24.940  55.400  1.00  0.00     0.011 A 
HETATM   34  C   UNL     1       7.733  23.753  54.721  1.00  0.00     0.037 A 
HETATM   35  C   UNL     1       7.115  23.458  53.507  1.00  0.00     0.068 A 
HETATM   36  C   UNL     1       6.204  24.367  52.975  1.00  0.00     0.037 A 
HETATM   37  C   UNL     1       5.909  25.556  53.656  1.00  0.00     0.011 A 
BRANCH  35  38
HETATM   38  O   UNL     1       7.488  22.268  52.947  1.00  0.00    -0.356 OA
HETATM   39  C   UNL     1       8.612  21.614  53.522  1.00  0.00     0.210 C 
ENDBRANCH  35  38
ENDBRANCH  21  32
ENDBRANCH   1  21
TORSDOF 7
ENDMDL
MODEL 7
REMARK VINA RESULT:      -9.4      1.632      2.210
REMARK  7 active torsions:
REMARK  status: ('A' for Active; 'I' for Inactive)
REMARK    1  A    between atoms: N_7  and  C_8 
REMARK    2  A    between atoms: C_8  and  C_9 
REMARK       I    between atoms: C_9  and  N_10 
REMARK    3  A    between atoms: N_10  and  C_11 
REMARK    4  A    between atoms: C_11  and  C_12 
REMARK    5  A    between atoms: C_12  and  C_13 
REMARK    6  A    between atoms: C_12  and  C_23 
REMARK    7  A    between atoms: C_26  and  O_27 
ROOT
HETATM    1  C   UNL     1       6.078  27.201  54.230  1.00  0.00     0.136 C 
ENDROOT
BRANCH   1   2
HETATM    2  N   UNL     1       6.217  27.057  52.791  1.00  0.00    -0.359 N 
HETATM    3  C   UNL     1       5.418  26.171  52.091  1.00  0.00     0.236 C 
HETATM    4  O   UNL     1       4.612  25.423  52.637  1.00  0.00    -0.272 OA
HETATM    5  H   UNL     1       6.678  27.799  52.272  1.00  0.00     0.162 HD
BRANCH   3   6
HETATM    6  C   UNL     1       5.666  26.136  50.585  1.00  0.00     0.239 C 
BRANCH   6   7
HETATM    7  N   UNL     1       4.770  27.039  49.895  1.00  0.00    -0.259 N 
HETATM    8  C   UNL     1       3.764  26.642  49.083  1.00  0.00     0.326 A 
HETATM    9  N   UNL     1       3.113  27.749  48.610  1.00  0.00    -0.324 N 
HETATM   10  O   UNL     1       3.486  25.495  48.776  1.00  0.00    -0.247 OA
HETATM   11  C   UNL     1       3.653  28.995  49.127  1.00  0.00     0.119 A 
HETATM   12  H   UNL     1       2.341  27.663  47.963  1.00  0.00     0.165 HD
HETATM   13  C   UNL     1       2.631  29.728  50.030  1.00  0.00     0.019 C 
HETATM   14  C   UNL     1       4.809  28.403  49.979  1.00  0.00     0.257 A 
HETATM   15  C   UNL     1       4.202  29.852  47.979  1.00  0.00     0.041 C 
HETATM   16  C   UNL     1       1.245  29.846  49.376  1.00  0.00     0.013 C 
HETATM   17  C   UNL     1       3.139  31.124  50.437  1.00  0.00     0.007 C 
HETATM   18  C   UNL     1       3.597  31.962  49.247  1.00  0.00     0.001 C 
HETATM   19  C   UNL     1       4.659  31.240  48.427  1.00  0.00     0.003 C 
HETATM   20  O   UNL     1       5.606  29.051  50.641  1.00  0.00    -0.270 OA
ENDBRANCH   6   7
ENDBRANCH   3   6
ENDBRANCH   1   2
BRANCH   1  21
HETATM   21  C   UNL     1       7.336  27.002  55.106  1.00  0.00     0.071 C 
BRANCH  21  22
HETATM   22  C   UNL     1       7.488  25.643  55.753  1.00  0.00    -0.020 A 
HETATM   23  C   UNL     1       7.755  24.409  55.052  1.00  0.00    -0.001 A 
HETATM   24  C   UNL     1       7.820  23.385  55.998  1.00  0.00     0.042 A 
HETATM   25  C   UNL     1       7.958  24.073  53.696  1.00  0.00     0.014 A 
HETATM   26  C   UNL     1       8.069  22.051  55.660  1.00  0.00     0.030 A 
HETATM   27  N   UNL     1       7.611  23.961  57.226  1.00  0.00    -0.365 N 
HETATM   28  C   UNL     1       8.266  21.747  54.311  1.00  0.00     0.002 A 
HETATM   29  C   UNL     1       8.212  22.743  53.340  1.00  0.00     0.001 A 
HETATM   30  H   UNL     1       7.621  23.458  58.102  1.00  0.00     0.165 HD
HETATM   31  C   UNL     1       7.417  25.308  57.094  1.00  0.00     0.097 A 
ENDBRANCH  21  22
BRANCH  21  32
HETATM   32  C   UNL     1       7.619  28.036  56.186  1.00  0.00    -0.048 A 
HETATM   33  C   UNL     1       6.543  28.718  56.779  1.00  0.00     0.011 A 
HETATM   34  C   UNL     1       6.755  29.676  57.775  1.00  0.00     0.037 A 
HETATM   35  C   UNL     1       8.046  29.982  58.203  1.00  0.00     0.068 A 
HETATM   36  C   UNL     1       9.125  29.323  57.620  1.00  0.00     0.037 A 
HETATM   37  C   UNL     1       8.913  28.361  56.623  1.00  0.00     0.011 A 
BRANCH  35  38
HETATM   38  O   UNL     1       8.115  30.935  59.181  1.00  0.00    -0.356 OA
HETATM   39  C   UNL     1       8.736  30.556  60.403  1.00  0.00     0.210 C 
ENDBRANCH  35  38
ENDBRANCH  21  32
ENDBRANCH   1  21
TORSDOF 7
ENDMDL
MODEL 8
REMARK VINA RESULT:      -9.3      2.398      8.053
REMARK  7 active torsions:
REMARK  status: ('A' for Active; 'I' for Inactive)
REMARK    1  A    between atoms: N_7  and  C_8 
REMARK    2  A    between atoms: C_8  and  C_9 
REMARK       I    between atoms: C_9  and  N_10 
REMARK    3  A    between atoms: N_10  and  C_11 
REMARK    4  A    between atoms: C_11  and  C_12 
REMARK    5  A    between atoms: C_12  and  C_13 
REMARK    6  A    between atoms: C_12  and  C_23 
REMARK    7  A    between atoms: C_26  and  O_27 
ROOT
HETATM    1  C   UNL     1       4.059  30.479  52.066  1.00  0.00     0.136 C 
ENDROOT
BRANCH   1   2
HETATM    2  N   UNL     1       4.041  29.378  53.014  1.00  0.00    -0.359 N 
HETATM    3  C   UNL     1       4.297  29.598  54.355  1.00  0.00     0.236 C 
HETATM    4  O   UNL     1       4.614  30.697  54.803  1.00  0.00    -0.272 OA
HETATM    5  H   UNL     1       3.561  28.522  52.752  1.00  0.00     0.162 HD
BRANCH   3   6
HETATM    6  C   UNL     1       4.230  28.352  55.234  1.00  0.00     0.239 C 
BRANCH   6   7
HETATM    7  N   UNL     1       5.454  27.587  55.137  1.00  0.00    -0.259 N 
HETATM    8  C   UNL     1       6.534  27.775  55.929  1.00  0.00     0.326 A 
HETATM    9  N   UNL     1       7.505  26.876  55.576  1.00  0.00    -0.324 N 
HETATM   10  O   UNL     1       6.662  28.622  56.797  1.00  0.00    -0.247 OA
HETATM   11  C   UNL     1       7.095  25.984  54.504  1.00  0.00     0.119 A 
HETATM   12  H   UNL     1       8.404  26.872  56.037  1.00  0.00     0.165 HD
HETATM   13  C   UNL     1       6.996  24.517  54.991  1.00  0.00     0.019 C 
HETATM   14  C   UNL     1       5.680  26.572  54.251  1.00  0.00     0.257 A 
HETATM   15  C   UNL     1       7.997  26.177  53.279  1.00  0.00     0.041 C 
HETATM   16  C   UNL     1       8.246  24.068  55.765  1.00  0.00     0.013 C 
HETATM   17  C   UNL     1       6.730  23.553  53.820  1.00  0.00     0.007 C 
HETATM   18  C   UNL     1       7.707  23.736  52.663  1.00  0.00     0.001 C 
HETATM   19  C   UNL     1       7.719  25.175  52.160  1.00  0.00     0.003 C 
HETATM   20  O   UNL     1       4.885  26.171  53.413  1.00  0.00    -0.270 OA
ENDBRANCH   6   7
ENDBRANCH   3   6
ENDBRANCH   1   2
BRANCH   1  21
HETATM   21  C   UNL     1       3.882  30.149  50.565  1.00  0.00     0.071 C 
BRANCH  21  22
HETATM   22  C   UNL     1       4.265  28.748  50.142  1.00  0.00    -0.020 A 
HETATM   23  C   UNL     1       3.482  27.891  49.285  1.00  0.00    -0.001 A 
HETATM   24  C   UNL     1       4.172  26.687  49.138  1.00  0.00     0.042 A 
HETATM   25  C   UNL     1       2.250  28.035  48.611  1.00  0.00     0.014 A 
HETATM   26  C   UNL     1       3.694  25.625  48.363  1.00  0.00     0.030 A 
HETATM   27  N   UNL     1       5.331  26.798  49.864  1.00  0.00    -0.365 N 
HETATM   28  C   UNL     1       2.473  25.796  47.708  1.00  0.00     0.002 A 
HETATM   29  C   UNL     1       1.759  26.984  47.828  1.00  0.00     0.001 A 
HETATM   30  H   UNL     1       6.038  26.081  49.927  1.00  0.00     0.165 HD
HETATM   31  C   UNL     1       5.401  28.026  50.464  1.00  0.00     0.097 A 
ENDBRANCH  21  22
BRANCH  21  32
HETATM   32  C   UNL     1       4.505  31.099  49.553  1.00  0.00    -0.048 A 
HETATM   33  C   UNL     1       5.738  31.705  49.852  1.00  0.00     0.011 A 
HETATM   34  C   UNL     1       6.348  32.584  48.951  1.00  0.00     0.037 A 
HETATM   35  C   UNL     1       5.744  32.886  47.732  1.00  0.00     0.068 A 
HETATM   36  C   UNL     1       4.517  32.303  47.424  1.00  0.00     0.037 A 
HETATM   37  C   UNL     1       3.906  31.420  48.325  1.00  0.00     0.011 A 
BRANCH  35  38
HETATM   38  O   UNL     1       6.443  33.758  46.945  1.00  0.00    -0.356 OA
HETATM   39  C   UNL     1       6.626  33.389  45.584  1.00  0.00     0.210 C 
ENDBRANCH  35  38
ENDBRANCH  21  32
ENDBRANCH   1  21
TORSDOF 7
ENDMDL
MODEL 9
REMARK VINA RESULT:      -9.2      8.514     11.994
REMARK  7 active torsions:
REMARK  status: ('A' for Active; 'I' for Inactive)
REMARK    1  A    between atoms: N_7  and  C_8 
REMARK    2  A    between atoms: C_8  and  C_9 
REMARK       I    between atoms: C_9  and  N_10 
REMARK    3  A    between atoms: N_10  and  C_11 
REMARK    4  A    between atoms: C_11  and  C_12 
REMARK    5  A    between atoms: C_12  and  C_13 
REMARK    6  A    between atoms: C_12  and  C_23 
REMARK    7  A    between atoms: C_26  and  O_27 
ROOT
HETATM    1  C   UNL     1       4.135  32.206  62.089  1.00  0.00     0.136 C 
ENDROOT
BRANCH   1   2
HETATM    2  N   UNL     1       3.056  33.168  61.945  1.00  0.00    -0.359 N 
HETATM    3  C   UNL     1       2.485  33.408  60.709  1.00  0.00     0.236 C 
HETATM    4  O   UNL     1       2.891  32.887  59.673  1.00  0.00    -0.272 OA
HETATM    5  H   UNL     1       2.533  33.437  62.775  1.00  0.00     0.162 HD
BRANCH   3   6
HETATM    6  C   UNL     1       1.353  34.433  60.712  1.00  0.00     0.239 C 
BRANCH   6   7
HETATM    7  N   UNL     1       1.768  35.658  60.063  1.00  0.00    -0.259 N 
HETATM    8  C   UNL     1       1.356  36.047  58.835  1.00  0.00     0.326 A 
HETATM    9  N   UNL     1       1.927  37.254  58.537  1.00  0.00    -0.324 N 
HETATM   10  O   UNL     1       0.626  35.425  58.081  1.00  0.00    -0.247 OA
HETATM   11  C   UNL     1       2.762  37.772  59.609  1.00  0.00     0.119 A 
HETATM   12  H   UNL     1       1.763  37.704  57.647  1.00  0.00     0.165 HD
HETATM   13  C   UNL     1       2.173  39.069  60.214  1.00  0.00     0.019 C 
HETATM   14  C   UNL     1       2.611  36.588  60.602  1.00  0.00     0.257 A 
HETATM   15  C   UNL     1       4.214  37.907  59.132  1.00  0.00     0.041 C 
HETATM   16  C   UNL     1       1.788  40.099  59.138  1.00  0.00     0.013 C 
HETATM   17  C   UNL     1       3.140  39.708  61.227  1.00  0.00     0.007 C 
HETATM   18  C   UNL     1       4.550  39.891  60.671  1.00  0.00     0.001 C 
HETATM   19  C   UNL     1       5.126  38.578  60.158  1.00  0.00     0.003 C 
HETATM   20  O   UNL     1       3.140  36.515  61.703  1.00  0.00    -0.270 OA
ENDBRANCH   6   7
ENDBRANCH   3   6
ENDBRANCH   1   2
BRANCH   1  21
HETATM   21  C   UNL     1       5.453  32.684  62.741  1.00  0.00     0.071 C 
BRANCH  21  22
HETATM   22  C   UNL     1       5.463  34.106  63.256  1.00  0.00    -0.020 A 
HETATM   23  C   UNL     1       4.976  34.530  64.546  1.00  0.00    -0.001 A 
HETATM   24  C   UNL     1       5.158  35.911  64.639  1.00  0.00     0.042 A 
HETATM   25  C   UNL     1       4.404  33.861  65.650  1.00  0.00     0.014 A 
HETATM   26  C   UNL     1       4.794  36.653  65.769  1.00  0.00     0.030 A 
HETATM   27  N   UNL     1       5.738  36.319  63.465  1.00  0.00    -0.365 N 
HETATM   28  C   UNL     1       4.231  35.964  66.845  1.00  0.00     0.002 A 
HETATM   29  C   UNL     1       4.039  34.587  66.790  1.00  0.00     0.001 A 
HETATM   30  H   UNL     1       6.002  37.271  63.257  1.00  0.00     0.165 HD
HETATM   31  C   UNL     1       5.930  35.251  62.632  1.00  0.00     0.097 A 
ENDBRANCH  21  22
BRANCH  21  32
HETATM   32  C   UNL     1       6.742  32.493  61.954  1.00  0.00    -0.048 A 
HETATM   33  C   UNL     1       6.692  32.482  60.550  1.00  0.00     0.011 A 
HETATM   34  C   UNL     1       7.851  32.310  59.787  1.00  0.00     0.037 A 
HETATM   35  C   UNL     1       9.089  32.139  60.403  1.00  0.00     0.068 A 
HETATM   36  C   UNL     1       9.157  32.137  61.794  1.00  0.00     0.037 A 
HETATM   37  C   UNL     1       7.996  32.311  62.559  1.00  0.00     0.011 A 
BRANCH  35  38
HETATM   38  O   UNL     1      10.141  31.981  59.543  1.00  0.00    -0.356 OA
HETATM   39  C   UNL     1       9.899  31.219  58.368  1.00  0.00     0.210 C 
ENDBRANCH  35  38
ENDBRANCH  21  32
ENDBRANCH   1  21
TORSDOF 7
ENDMDL
MODEL 10
REMARK VINA RESULT:      -8.9      2.345      5.048
REMARK  7 active torsions:
REMARK  status: ('A' for Active; 'I' for Inactive)
REMARK    1  A    between atoms: N_7  and  C_8 
REMARK    2  A    between atoms: C_8  and  C_9 
REMARK       I    between atoms: C_9  and  N_10 
REMARK    3  A    between atoms: N_10  and  C_11 
REMARK    4  A    between atoms: C_11  and  C_12 
REMARK    5  A    between atoms: C_12  and  C_13 
REMARK    6  A    between atoms: C_12  and  C_23 
REMARK    7  A    between atoms: C_26  and  O_27 
ROOT
HETATM    1  C   UNL     1       7.200  27.825  53.984  1.00  0.00     0.136 C 
ENDROOT
BRANCH   1   2
HETATM    2  N   UNL     1       6.171  27.839  52.958  1.00  0.00    -0.359 N 
HETATM    3  C   UNL     1       6.086  26.818  52.031  1.00  0.00     0.236 C 
HETATM    4  O   UNL     1       6.897  25.896  51.975  1.00  0.00    -0.272 OA
HETATM    5  H   UNL     1       5.353  28.425  53.101  1.00  0.00     0.162 HD
BRANCH   3   6
HETATM    6  C   UNL     1       4.947  26.957  51.023  1.00  0.00     0.239 C 
BRANCH   6   7
HETATM    7  N   UNL     1       4.584  28.347  50.846  1.00  0.00    -0.259 N 
HETATM    8  C   UNL     1       3.715  29.014  51.640  1.00  0.00     0.326 A 
HETATM    9  N   UNL     1       3.615  30.306  51.199  1.00  0.00    -0.324 N 
HETATM   10  O   UNL     1       3.084  28.554  52.577  1.00  0.00    -0.247 OA
HETATM   11  C   UNL     1       4.470  30.589  50.059  1.00  0.00     0.119 A 
HETATM   12  H   UNL     1       2.991  30.963  51.648  1.00  0.00     0.165 HD
HETATM   13  C   UNL     1       5.577  31.610  50.417  1.00  0.00     0.019 C 
HETATM   14  C   UNL     1       5.074  29.171  49.873  1.00  0.00     0.257 A 
HETATM   15  C   UNL     1       3.621  30.987  48.845  1.00  0.00     0.041 C 
HETATM   16  C   UNL     1       5.023  32.852  51.135  1.00  0.00     0.013 C 
HETATM   17  C   UNL     1       6.373  32.039  49.170  1.00  0.00     0.007 C 
HETATM   18  C   UNL     1       5.480  32.500  48.022  1.00  0.00     0.001 C 
HETATM   19  C   UNL     1       4.454  31.437  47.646  1.00  0.00     0.003 C 
HETATM   20  O   UNL     1       5.882  28.851  49.011  1.00  0.00    -0.270 OA
ENDBRANCH   6   7
ENDBRANCH   3   6
ENDBRANCH   1   2
BRANCH   1  21
HETATM   21  C   UNL     1       6.800  27.383  55.410  1.00  0.00     0.071 C 
BRANCH  21  22
HETATM   22  C   UNL     1       7.096  28.368  56.520  1.00  0.00    -0.020 A 
HETATM   23  C   UNL     1       8.356  29.044  56.723  1.00  0.00    -0.001 A 
HETATM   24  C   UNL     1       8.226  29.861  57.847  1.00  0.00     0.042 A 
HETATM   25  C   UNL     1       9.594  29.040  56.045  1.00  0.00     0.014 A 
HETATM   26  C   UNL     1       9.266  30.665  58.328  1.00  0.00     0.030 A 
HETATM   27  N   UNL     1       6.944  29.704  58.311  1.00  0.00    -0.365 N 
HETATM   28  C   UNL     1      10.479  30.641  57.637  1.00  0.00     0.002 A 
HETATM   29  C   UNL     1      10.643  29.842  56.509  1.00  0.00     0.001 A 
HETATM   30  H   UNL     1       6.561  30.190  59.109  1.00  0.00     0.165 HD
HETATM   31  C   UNL     1       6.258  28.820  57.525  1.00  0.00     0.097 A 
ENDBRANCH  21  22
BRANCH  21  32
HETATM   32  C   UNL     1       7.281  26.022  55.892  1.00  0.00    -0.048 A 
HETATM   33  C   UNL     1       6.775  24.863  55.280  1.00  0.00     0.011 A 
HETATM   34  C   UNL     1       7.189  23.591  55.690  1.00  0.00     0.037 A 
HETATM   35  C   UNL     1       8.113  23.442  56.723  1.00  0.00     0.068 A 
HETATM   36  C   UNL     1       8.617  24.581  57.347  1.00  0.00     0.037 A 
HETATM   37  C   UNL     1       8.204  25.855  56.936  1.00  0.00     0.011 A 
BRANCH  35  38
HETATM   38  O   UNL     1       8.432  22.148  57.025  1.00  0.00    -0.356 OA
HETATM   39  C   UNL     1       8.942  21.348  55.966  1.00  0.00     0.210 C 
ENDBRANCH  35  38
ENDBRANCH  21  32
ENDBRANCH   1  21
TORSDOF 7
ENDMDL
