MODEL 1
REMARK VINA RESULT:      -8.9      0.000      0.000
REMARK  6 active torsions:
REMARK  status: ('A' for Active; 'I' for Inactive)
REMARK    1  A    between atoms: C_2  and  C_3 
REMARK    2  A    between atoms: C_3  and  O_4 
REMARK    3  A    between atoms: O_4  and  C_5 
REMARK    4  A    between atoms: C_8  and  C_9 
REMARK    5  A    between atoms: C_9  and  N_10 
REMARK       I    between atoms: N_10  and  C_11 
REMARK       I    between atoms: C_11  and  N_12 
REMARK    6  A    between atoms: N_12  and  C_13 
ROOT
HETATM    1  N   UNL     1       8.145  30.667  61.101  1.00  0.00    -0.339 N 
HETATM    2  C   UNL     1       8.065  30.882  59.752  1.00  0.00     0.316 C 
HETATM    3  N   UNL     1       7.546  29.802  59.085  1.00  0.00    -0.338 N 
HETATM    4  O   UNL     1       8.455  31.902  59.202  1.00  0.00    -0.247 OA
HETATM    5  H   UNL     1       7.736  29.831  61.488  1.00  0.00     0.164 HD
HETATM    6  H   UNL     1       6.868  29.255  59.595  1.00  0.00     0.164 HD
ENDROOT
BRANCH   1   7
HETATM    7  C   UNL     1       8.599  31.706  61.994  1.00  0.00     0.164 C 
BRANCH   7   8
HETATM    8  C   UNL     1       7.487  32.225  62.857  1.00  0.00    -0.021 A 
HETATM    9  C   UNL     1       6.157  32.021  62.501  1.00  0.00     0.128 A 
HETATM   10  N   UNL     1       5.098  32.419  63.245  1.00  0.00    -0.235 NA
HETATM   11  C   UNL     1       5.371  33.050  64.413  1.00  0.00     0.186 A 
HETATM   12  C   UNL     1       6.667  33.315  64.851  1.00  0.00     0.087 A 
HETATM   13  C   UNL     1       7.735  32.896  64.058  1.00  0.00     0.038 A 
HETATM   14 CL   UNL     1       6.997  34.123  66.337  1.00  0.00    -0.080 Cl
BRANCH  11  15
HETATM   15  O   UNL     1       4.323  33.446  65.221  1.00  0.00    -0.333 OA
BRANCH  15  16
HETATM   16  C   UNL     1       3.431  34.377  64.605  1.00  0.00     0.181 C 
BRANCH  16  17
HETATM   17  C   UNL     1       3.592  35.744  65.291  1.00  0.00     0.002 C 
HETATM   18  C   UNL     1       4.728  36.535  64.647  1.00  0.00     0.011 C 
HETATM   19  C   UNL     1       3.834  35.593  66.795  1.00  0.00     0.011 C 
ENDBRANCH  16  17
ENDBRANCH  15  16
ENDBRANCH  11  15
ENDBRANCH   7   8
ENDBRANCH   1   7
BRANCH   3  20
HETATM   20  C   UNL     1       7.378  29.853  57.629  1.00  0.00     0.090 C 
HETATM   21  C   UNL     1       5.991  29.307  57.182  1.00  0.00     0.067 C 
HETATM   22  C   UNL     1       6.019  27.827  57.033  1.00  0.00    -0.013 A 
HETATM   23  C   UNL     1       7.179  27.091  56.981  1.00  0.00     0.035 A 
HETATM   24  C   UNL     1       4.994  26.879  56.871  1.00  0.00     0.148 A 
HETATM   25  N   UNL     1       6.809  25.794  56.792  1.00  0.00    -0.282 N 
HETATM   26  C   UNL     1       8.562  27.606  57.109  1.00  0.00     0.061 C 
HETATM   27  H   UNL     1       7.396  24.972  56.693  1.00  0.00     0.189 HD
HETATM   28  N   UNL     1       5.474  25.638  56.734  1.00  0.00    -0.187 NA
HETATM   29  C   UNL     1       8.556  29.136  56.920  1.00  0.00     0.031 C 
ENDBRANCH   3  20
TORSDOF 6
ENDMDL
MODEL 2
REMARK VINA RESULT:      -8.6      1.046      1.495
REMARK  6 active torsions:
REMARK  status: ('A' for Active; 'I' for Inactive)
REMARK    1  A    between atoms: C_2  and  C_3 
REMARK    2  A    between atoms: C_3  and  O_4 
REMARK    3  A    between atoms: O_4  and  C_5 
REMARK    4  A    between atoms: C_8  and  C_9 
REMARK    5  A    between atoms: C_9  and  N_10 
REMARK       I    between atoms: N_10  and  C_11 
REMARK       I    between atoms: C_11  and  N_12 
REMARK    6  A    between atoms: N_12  and  C_13 
ROOT
HETATM    1  N   UNL     1       8.161  30.550  60.995  1.00  0.00    -0.339 N 
HETATM    2  C   UNL     1       8.516  30.479  59.676  1.00  0.00     0.316 C 
HETATM    3  N   UNL     1       7.920  29.423  59.034  1.00  0.00    -0.338 N 
HETATM    4  O   UNL     1       9.308  31.243  59.143  1.00  0.00    -0.247 OA
HETATM    5  H   UNL     1       7.447  29.930  61.343  1.00  0.00     0.164 HD
HETATM    6  H   UNL     1       7.005  29.164  59.371  1.00  0.00     0.164 HD
ENDROOT
BRANCH   1   7
HETATM    7  C   UNL     1       8.623  31.630  61.834  1.00  0.00     0.164 C 
BRANCH   7   8
HETATM    8  C   UNL     1       7.528  32.165  62.708  1.00  0.00    -0.021 A 
HETATM    9  C   UNL     1       6.192  32.014  62.347  1.00  0.00     0.128 A 
HETATM   10  N   UNL     1       5.147  32.429  63.099  1.00  0.00    -0.235 NA
HETATM   11  C   UNL     1       5.439  33.021  64.283  1.00  0.00     0.186 A 
HETATM   12  C   UNL     1       6.742  33.231  64.728  1.00  0.00     0.087 A 
HETATM   13  C   UNL     1       7.797  32.796  63.926  1.00  0.00     0.038 A 
HETATM   14 CL   UNL     1       7.097  33.991  66.234  1.00  0.00    -0.080 Cl
BRANCH  11  15
HETATM   15  O   UNL     1       4.403  33.432  65.100  1.00  0.00    -0.333 OA
BRANCH  15  16
HETATM   16  C   UNL     1       3.548  34.413  64.510  1.00  0.00     0.181 C 
BRANCH  16  17
HETATM   17  C   UNL     1       4.320  35.739  64.400  1.00  0.00     0.002 C 
HETATM   18  C   UNL     1       4.447  36.400  65.770  1.00  0.00     0.011 C 
HETATM   19  C   UNL     1       3.655  36.696  63.407  1.00  0.00     0.011 C 
ENDBRANCH  16  17
ENDBRANCH  15  16
ENDBRANCH  11  15
ENDBRANCH   7   8
ENDBRANCH   1   7
BRANCH   3  20
HETATM   20  C   UNL     1       8.178  29.194  57.609  1.00  0.00     0.090 C 
HETATM   21  C   UNL     1       7.168  29.956  56.703  1.00  0.00     0.067 C 
HETATM   22  C   UNL     1       5.920  29.169  56.509  1.00  0.00    -0.013 A 
HETATM   23  C   UNL     1       5.811  27.832  56.814  1.00  0.00     0.035 A 
HETATM   24  C   UNL     1       4.666  29.511  55.976  1.00  0.00     0.148 A 
HETATM   25  N   UNL     1       4.553  27.453  56.458  1.00  0.00    -0.282 N 
HETATM   26  C   UNL     1       6.856  26.973  57.416  1.00  0.00     0.061 C 
HETATM   27  H   UNL     1       4.120  26.537  56.525  1.00  0.00     0.189 HD
HETATM   28  N   UNL     1       3.828  28.468  55.954  1.00  0.00    -0.187 NA
HETATM   29  C   UNL     1       8.223  27.675  57.302  1.00  0.00     0.031 C 
ENDBRANCH   3  20
TORSDOF 6
ENDMDL
MODEL 3
REMARK VINA RESULT:      -8.6      9.382     12.542
REMARK  6 active torsions:
REMARK  status: ('A' for Active; 'I' for Inactive)
REMARK    1  A    between atoms: C_2  and  C_3 
REMARK    2  A    between atoms: C_3  and  O_4 
REMARK    3  A    between atoms: O_4  and  C_5 
REMARK    4  A    between atoms: C_8  and  C_9 
REMARK    5  A    between atoms: C_9  and  N_10 
REMARK       I    between atoms: N_10  and  C_11 
REMARK       I    between atoms: C_11  and  N_12 
REMARK    6  A    between atoms: N_12  and  C_13 
ROOT
HETATM    1  N   UNL     1       4.206  26.999  52.402  1.00  0.00    -0.339 N 
HETATM    2  C   UNL     1       4.744  27.588  51.292  1.00  0.00     0.316 C 
HETATM    3  N   UNL     1       4.088  27.228  50.142  1.00  0.00    -0.338 N 
HETATM    4  O   UNL     1       5.726  28.317  51.317  1.00  0.00    -0.247 OA
HETATM    5  H   UNL     1       3.352  26.471  52.310  1.00  0.00     0.164 HD
HETATM    6  H   UNL     1       3.101  27.042  50.241  1.00  0.00     0.164 HD
ENDROOT
BRANCH   1   7
HETATM    7  C   UNL     1       4.706  27.301  53.722  1.00  0.00     0.164 C 
BRANCH   7   8
HETATM    8  C   UNL     1       5.551  26.186  54.266  1.00  0.00    -0.021 A 
HETATM    9  C   UNL     1       5.667  24.982  53.578  1.00  0.00     0.128 A 
HETATM   10  N   UNL     1       6.441  23.946  53.979  1.00  0.00    -0.235 NA
HETATM   11  C   UNL     1       7.148  24.114  55.123  1.00  0.00     0.186 A 
HETATM   12  C   UNL     1       7.089  25.275  55.891  1.00  0.00     0.087 A 
HETATM   13  C   UNL     1       6.278  26.322  55.453  1.00  0.00     0.038 A 
HETATM   14 CL   UNL     1       7.990  25.471  57.347  1.00  0.00    -0.080 Cl
BRANCH  11  15
HETATM   15  O   UNL     1       7.976  23.096  55.554  1.00  0.00    -0.333 OA
BRANCH  15  16
HETATM   16  C   UNL     1       8.814  22.553  54.531  1.00  0.00     0.181 C 
BRANCH  16  17
HETATM   17  C   UNL     1       8.601  21.031  54.474  1.00  0.00     0.002 C 
HETATM   18  C   UNL     1       7.879  20.640  53.187  1.00  0.00     0.011 C 
HETATM   19  C   UNL     1       7.825  20.525  55.693  1.00  0.00     0.011 C 
ENDBRANCH  16  17
ENDBRANCH  15  16
ENDBRANCH  11  15
ENDBRANCH   7   8
ENDBRANCH   1   7
BRANCH   3  20
HETATM   20  C   UNL     1       4.522  27.771  48.851  1.00  0.00     0.090 C 
HETATM   21  C   UNL     1       3.535  28.844  48.308  1.00  0.00     0.067 C 
HETATM   22  C   UNL     1       2.413  28.213  47.560  1.00  0.00    -0.013 A 
HETATM   23  C   UNL     1       2.425  26.904  47.136  1.00  0.00     0.035 A 
HETATM   24  C   UNL     1       1.193  28.724  47.087  1.00  0.00     0.148 A 
HETATM   25  N   UNL     1       1.264  26.706  46.453  1.00  0.00    -0.282 N 
HETATM   26  C   UNL     1       3.491  25.904  47.377  1.00  0.00     0.061 C 
HETATM   27  H   UNL     1       0.935  25.866  45.986  1.00  0.00     0.189 HD
HETATM   28  N   UNL     1       0.487  27.803  46.420  1.00  0.00    -0.187 NA
HETATM   29  C   UNL     1       4.773  26.625  47.837  1.00  0.00     0.031 C 
ENDBRANCH   3  20
TORSDOF 6
ENDMDL
MODEL 4
REMARK VINA RESULT:      -8.4      5.217     11.084
REMARK  6 active torsions:
REMARK  status: ('A' for Active; 'I' for Inactive)
REMARK    1  A    between atoms: C_2  and  C_3 
REMARK    2  A    between atoms: C_3  and  O_4 
REMARK    3  A    between atoms: O_4  and  C_5 
REMARK    4  A    between atoms: C_8  and  C_9 
REMARK    5  A    between atoms: C_9  and  N_10 
REMARK       I    between atoms: N_10  and  C_11 
REMARK       I    between atoms: C_11  and  N_12 
REMARK    6  A    between atoms: N_12  and  C_13 
ROOT
HETATM    1  N   UNL     1       5.646  27.845  57.121  1.00  0.00    -0.339 N 
HETATM    2  C   UNL     1       6.406  28.972  56.979  1.00  0.00     0.316 C 
HETATM    3  N   UNL     1       6.890  29.427  58.179  1.00  0.00    -0.338 N 
HETATM    4  O   UNL     1       6.595  29.535  55.910  1.00  0.00    -0.247 OA
HETATM    5  H   UNL     1       5.597  27.398  58.023  1.00  0.00     0.164 HD
HETATM    6  H   UNL     1       7.083  28.718  58.872  1.00  0.00     0.164 HD
ENDROOT
BRANCH   1   7
HETATM    7  C   UNL     1       5.100  27.165  55.970  1.00  0.00     0.164 C 
BRANCH   7   8
HETATM    8  C   UNL     1       6.029  26.105  55.456  1.00  0.00    -0.021 A 
HETATM    9  C   UNL     1       6.368  25.012  56.248  1.00  0.00     0.128 A 
HETATM   10  N   UNL     1       7.164  23.994  55.844  1.00  0.00    -0.235 NA
HETATM   11  C   UNL     1       7.647  24.058  54.578  1.00  0.00     0.186 A 
HETATM   12  C   UNL     1       7.378  25.116  53.713  1.00  0.00     0.087 A 
HETATM   13  C   UNL     1       6.558  26.151  54.163  1.00  0.00     0.038 A 
HETATM   14 CL   UNL     1       8.004  25.185  52.109  1.00  0.00    -0.080 Cl
BRANCH  11  15
HETATM   15  O   UNL     1       8.438  23.026  54.111  1.00  0.00    -0.333 OA
BRANCH  15  16
HETATM   16  C   UNL     1       9.102  22.288  55.139  1.00  0.00     0.181 C 
BRANCH  16  17
HETATM   17  C   UNL     1       8.729  20.803  55.001  1.00  0.00     0.002 C 
HETATM   18  C   UNL     1       8.216  20.508  53.594  1.00  0.00     0.011 C 
HETATM   19  C   UNL     1       7.689  20.386  56.045  1.00  0.00     0.011 C 
ENDBRANCH  16  17
ENDBRANCH  15  16
ENDBRANCH  11  15
ENDBRANCH   7   8
ENDBRANCH   1   7
BRANCH   3  20
HETATM   20  C   UNL     1       7.735  30.625  58.221  1.00  0.00     0.090 C 
HETATM   21  C   UNL     1       8.935  30.458  59.197  1.00  0.00     0.067 C 
HETATM   22  C   UNL     1       8.545  30.799  60.592  1.00  0.00    -0.013 A 
HETATM   23  C   UNL     1       7.389  31.472  60.914  1.00  0.00     0.035 A 
HETATM   24  C   UNL     1       9.191  30.600  61.824  1.00  0.00     0.148 A 
HETATM   25  N   UNL     1       7.402  31.641  62.265  1.00  0.00    -0.282 N 
HETATM   26  C   UNL     1       6.335  31.921  59.977  1.00  0.00     0.061 C 
HETATM   27  H   UNL     1       6.719  32.106  62.856  1.00  0.00     0.189 HD
HETATM   28  N   UNL     1       8.490  31.104  62.846  1.00  0.00    -0.187 NA
HETATM   29  C   UNL     1       6.882  31.881  58.536  1.00  0.00     0.031 C 
ENDBRANCH   3  20
TORSDOF 6
ENDMDL
MODEL 5
REMARK VINA RESULT:      -8.1      4.087      6.901
REMARK  6 active torsions:
REMARK  status: ('A' for Active; 'I' for Inactive)
REMARK    1  A    between atoms: C_2  and  C_3 
REMARK    2  A    between atoms: C_3  and  O_4 
REMARK    3  A    between atoms: O_4  and  C_5 
REMARK    4  A    between atoms: C_8  and  C_9 
REMARK    5  A    between atoms: C_9  and  N_10 
REMARK       I    between atoms: N_10  and  C_11 
REMARK       I    between atoms: C_11  and  N_12 
REMARK    6  A    between atoms: N_12  and  C_13 
ROOT
HETATM    1  N   UNL     1       6.729  28.217  54.917  1.00  0.00    -0.339 N 
HETATM    2  C   UNL     1       5.993  27.065  54.896  1.00  0.00     0.316 C 
HETATM    3  N   UNL     1       6.659  26.034  54.281  1.00  0.00    -0.338 N 
HETATM    4  O   UNL     1       4.855  26.977  55.334  1.00  0.00    -0.247 OA
HETATM    5  H   UNL     1       7.687  28.192  54.603  1.00  0.00     0.164 HD
HETATM    6  H   UNL     1       7.663  26.043  54.377  1.00  0.00     0.164 HD
ENDROOT
BRANCH   1   7
HETATM    7  C   UNL     1       6.238  29.402  55.580  1.00  0.00     0.164 C 
BRANCH   7   8
HETATM    8  C   UNL     1       7.204  29.904  56.613  1.00  0.00    -0.021 A 
HETATM    9  C   UNL     1       6.752  30.606  57.726  1.00  0.00     0.128 A 
HETATM   10  N   UNL     1       7.552  31.054  58.722  1.00  0.00    -0.235 NA
HETATM   11  C   UNL     1       8.877  30.784  58.614  1.00  0.00     0.186 A 
HETATM   12  C   UNL     1       9.429  30.101  57.533  1.00  0.00     0.087 A 
HETATM   13  C   UNL     1       8.577  29.657  56.521  1.00  0.00     0.038 A 
HETATM   14 CL   UNL     1      11.116  29.770  57.408  1.00  0.00    -0.080 Cl
BRANCH  11  15
HETATM   15  O   UNL     1       9.727  31.194  59.622  1.00  0.00    -0.333 OA
BRANCH  15  16
HETATM   16  C   UNL     1       9.185  32.212  60.466  1.00  0.00     0.181 C 
BRANCH  16  17
HETATM   17  C   UNL     1       9.346  31.776  61.932  1.00  0.00     0.002 C 
HETATM   18  C   UNL     1       9.416  30.255  62.034  1.00  0.00     0.011 C 
HETATM   19  C   UNL     1       8.211  32.316  62.807  1.00  0.00     0.011 C 
ENDBRANCH  16  17
ENDBRANCH  15  16
ENDBRANCH  11  15
ENDBRANCH   7   8
ENDBRANCH   1   7
BRANCH   3  20
HETATM   20  C   UNL     1       6.026  24.716  54.173  1.00  0.00     0.090 C 
HETATM   21  C   UNL     1       6.401  23.789  55.365  1.00  0.00     0.067 C 
HETATM   22  C   UNL     1       7.689  23.087  55.115  1.00  0.00    -0.013 A 
HETATM   23  C   UNL     1       8.290  23.020  53.880  1.00  0.00     0.035 A 
HETATM   24  C   UNL     1       8.532  22.342  55.956  1.00  0.00     0.148 A 
HETATM   25  N   UNL     1       9.412  22.264  54.033  1.00  0.00    -0.282 N 
HETATM   26  C   UNL     1       7.813  23.650  52.627  1.00  0.00     0.061 C 
HETATM   27  H   UNL     1      10.097  21.990  53.335  1.00  0.00     0.189 HD
HETATM   28  N   UNL     1       9.588  21.847  55.300  1.00  0.00    -0.187 NA
HETATM   29  C   UNL     1       6.341  24.074  52.797  1.00  0.00     0.031 C 
ENDBRANCH   3  20
TORSDOF 6
ENDMDL
MODEL 6
REMARK VINA RESULT:      -7.9      8.430     11.618
REMARK  6 active torsions:
REMARK  status: ('A' for Active; 'I' for Inactive)
REMARK    1  A    between atoms: C_2  and  C_3 
REMARK    2  A    between atoms: C_3  and  O_4 
REMARK    3  A    between atoms: O_4  and  C_5 
REMARK    4  A    between atoms: C_8  and  C_9 
REMARK    5  A    between atoms: C_9  and  N_10 
REMARK       I    between atoms: N_10  and  C_11 
REMARK       I    between atoms: C_11  and  N_12 
REMARK    6  A    between atoms: N_12  and  C_13 
ROOT
HETATM    1  N   UNL     1       6.191  28.683  53.908  1.00  0.00    -0.339 N 
HETATM    2  C   UNL     1       5.061  28.945  53.183  1.00  0.00     0.316 C 
HETATM    3  N   UNL     1       5.347  29.329  51.898  1.00  0.00    -0.338 N 
HETATM    4  O   UNL     1       3.929  28.886  53.643  1.00  0.00    -0.247 OA
HETATM    5  H   UNL     1       7.083  28.682  53.440  1.00  0.00     0.164 HD
HETATM    6  H   UNL     1       6.178  28.923  51.493  1.00  0.00     0.164 HD
ENDROOT
BRANCH   1   7
HETATM    7  C   UNL     1       6.109  28.197  55.265  1.00  0.00     0.164 C 
BRANCH   7   8
HETATM    8  C   UNL     1       6.528  26.760  55.368  1.00  0.00    -0.021 A 
HETATM    9  C   UNL     1       5.980  25.797  54.525  1.00  0.00     0.128 A 
HETATM   10  N   UNL     1       6.335  24.491  54.526  1.00  0.00    -0.235 NA
HETATM   11  C   UNL     1       7.294  24.116  55.407  1.00  0.00     0.186 A 
HETATM   12  C   UNL     1       7.893  25.000  56.303  1.00  0.00     0.087 A 
HETATM   13  C   UNL     1       7.501  26.338  56.279  1.00  0.00     0.038 A 
HETATM   14 CL   UNL     1       9.108  24.505  57.421  1.00  0.00    -0.080 Cl
BRANCH  11  15
HETATM   15  O   UNL     1       7.712  22.799  55.422  1.00  0.00    -0.333 OA
BRANCH  15  16
HETATM   16  C   UNL     1       8.689  22.485  54.428  1.00  0.00     0.181 C 
BRANCH  16  17
HETATM   17  C   UNL     1       8.734  20.959  54.243  1.00  0.00     0.002 C 
HETATM   18  C   UNL     1       8.126  20.565  52.900  1.00  0.00     0.011 C 
HETATM   19  C   UNL     1       8.019  20.234  55.385  1.00  0.00     0.011 C 
ENDBRANCH  16  17
ENDBRANCH  15  16
ENDBRANCH  11  15
ENDBRANCH   7   8
ENDBRANCH   1   7
BRANCH   3  20
HETATM   20  C   UNL     1       4.257  29.642  50.969  1.00  0.00     0.090 C 
HETATM   21  C   UNL     1       3.591  28.358  50.396  1.00  0.00     0.067 C 
HETATM   22  C   UNL     1       4.332  27.852  49.208  1.00  0.00    -0.013 A 
HETATM   23  C   UNL     1       5.270  28.593  48.527  1.00  0.00     0.035 A 
HETATM   24  C   UNL     1       4.259  26.641  48.500  1.00  0.00     0.148 A 
HETATM   25  N   UNL     1       5.690  27.824  47.485  1.00  0.00    -0.282 N 
HETATM   26  C   UNL     1       5.736  29.957  48.863  1.00  0.00     0.061 C 
HETATM   27  H   UNL     1       6.367  28.046  46.761  1.00  0.00     0.189 HD
HETATM   28  N   UNL     1       5.093  26.619  47.455  1.00  0.00    -0.187 NA
HETATM   29  C   UNL     1       4.750  30.603  49.856  1.00  0.00     0.031 C 
ENDBRANCH   3  20
TORSDOF 6
ENDMDL
MODEL 7
REMARK VINA RESULT:      -7.8      3.224      5.124
REMARK  6 active torsions:
REMARK  status: ('A' for Active; 'I' for Inactive)
REMARK    1  A    between atoms: C_2  and  C_3 
REMARK    2  A    between atoms: C_3  and  O_4 
REMARK    3  A    between atoms: O_4  and  C_5 
REMARK    4  A    between atoms: C_8  and  C_9 
REMARK    5  A    between atoms: C_9  and  N_10 
REMARK       I    between atoms: N_10  and  C_11 
REMARK       I    between atoms: C_11  and  N_12 
REMARK    6  A    between atoms: N_12  and  C_13 
ROOT
HETATM    1  N   UNL     1       8.606  28.558  56.502  1.00  0.00    -0.339 N 
HETATM    2  C   UNL     1       8.015  27.434  57.007  1.00  0.00     0.316 C 
HETATM    3  N   UNL     1       7.350  26.719  56.043  1.00  0.00    -0.338 N 
HETATM    4  O   UNL     1       8.040  27.125  58.190  1.00  0.00    -0.247 OA
HETATM    5  H   UNL     1       8.605  28.707  55.505  1.00  0.00     0.164 HD
HETATM    6  H   UNL     1       7.743  26.764  55.114  1.00  0.00     0.164 HD
ENDROOT
BRANCH   1   7
HETATM    7  C   UNL     1       9.416  29.413  57.337  1.00  0.00     0.164 C 
BRANCH   7   8
HETATM    8  C   UNL     1       8.583  30.181  58.321  1.00  0.00    -0.021 A 
HETATM    9  C   UNL     1       8.963  30.270  59.658  1.00  0.00     0.128 A 
HETATM   10  N   UNL     1       8.291  30.976  60.596  1.00  0.00    -0.235 NA
HETATM   11  C   UNL     1       7.182  31.641  60.188  1.00  0.00     0.186 A 
HETATM   12  C   UNL     1       6.712  31.604  58.877  1.00  0.00     0.087 A 
HETATM   13  C   UNL     1       7.425  30.862  57.935  1.00  0.00     0.038 A 
HETATM   14 CL   UNL     1       5.297  32.451  58.375  1.00  0.00    -0.080 Cl
BRANCH  11  15
HETATM   15  O   UNL     1       6.482  32.402  61.104  1.00  0.00    -0.333 OA
BRANCH  15  16
HETATM   16  C   UNL     1       6.626  31.964  62.457  1.00  0.00     0.181 C 
BRANCH  16  17
HETATM   17  C   UNL     1       6.364  33.156  63.393  1.00  0.00     0.002 C 
HETATM   18  C   UNL     1       6.206  34.443  62.588  1.00  0.00     0.011 C 
HETATM   19  C   UNL     1       7.478  33.312  64.432  1.00  0.00     0.011 C 
ENDBRANCH  16  17
ENDBRANCH  15  16
ENDBRANCH  11  15
ENDBRANCH   7   8
ENDBRANCH   1   7
BRANCH   3  20
HETATM   20  C   UNL     1       6.660  25.475  56.399  1.00  0.00     0.090 C 
HETATM   21  C   UNL     1       7.646  24.277  56.521  1.00  0.00     0.067 C 
HETATM   22  C   UNL     1       7.895  23.649  55.195  1.00  0.00    -0.013 A 
HETATM   23  C   UNL     1       7.119  23.887  54.084  1.00  0.00     0.035 A 
HETATM   24  C   UNL     1       8.847  22.710  54.763  1.00  0.00     0.148 A 
HETATM   25  N   UNL     1       7.619  23.107  53.086  1.00  0.00    -0.282 N 
HETATM   26  C   UNL     1       5.968  24.813  53.990  1.00  0.00     0.061 C 
HETATM   27  H   UNL     1       7.293  23.011  52.129  1.00  0.00     0.189 HD
HETATM   28  N   UNL     1       8.686  22.387  53.475  1.00  0.00    -0.187 NA
HETATM   29  C   UNL     1       5.501  25.193  55.409  1.00  0.00     0.031 C 
ENDBRANCH   3  20
TORSDOF 6
ENDMDL
MODEL 8
REMARK VINA RESULT:      -7.3      7.010     10.621
REMARK  6 active torsions:
REMARK  status: ('A' for Active; 'I' for Inactive)
REMARK    1  A    between atoms: C_2  and  C_3 
REMARK    2  A    between atoms: C_3  and  O_4 
REMARK    3  A    between atoms: O_4  and  C_5 
REMARK    4  A    between atoms: C_8  and  C_9 
REMARK    5  A    between atoms: C_9  and  N_10 
REMARK       I    between atoms: N_10  and  C_11 
REMARK       I    between atoms: C_11  and  N_12 
REMARK    6  A    between atoms: N_12  and  C_13 
ROOT
HETATM    1  N   UNL     1       4.328  26.160  52.272  1.00  0.00    -0.339 N 
HETATM    2  C   UNL     1       4.976  26.404  51.092  1.00  0.00     0.316 C 
HETATM    3  N   UNL     1       4.207  27.129  50.217  1.00  0.00    -0.338 N 
HETATM    4  O   UNL     1       6.094  25.984  50.831  1.00  0.00    -0.247 OA
HETATM    5  H   UNL     1       3.438  26.601  52.441  1.00  0.00     0.164 HD
HETATM    6  H   UNL     1       3.565  27.785  50.638  1.00  0.00     0.164 HD
ENDROOT
BRANCH   1   7
HETATM    7  C   UNL     1       4.989  25.472  53.356  1.00  0.00     0.164 C 
BRANCH   7   8
HETATM    8  C   UNL     1       5.624  26.431  54.319  1.00  0.00    -0.021 A 
HETATM    9  C   UNL     1       6.996  26.399  54.553  1.00  0.00     0.128 A 
HETATM   10  N   UNL     1       7.651  27.254  55.372  1.00  0.00    -0.235 NA
HETATM   11  C   UNL     1       6.906  28.202  55.992  1.00  0.00     0.186 A 
HETATM   12  C   UNL     1       5.525  28.309  55.835  1.00  0.00     0.087 A 
HETATM   13  C   UNL     1       4.881  27.408  54.987  1.00  0.00     0.038 A 
HETATM   14 CL   UNL     1       4.592  29.517  56.634  1.00  0.00    -0.080 Cl
BRANCH  11  15
HETATM   15  O   UNL     1       7.536  29.118  56.812  1.00  0.00    -0.333 OA
BRANCH  15  16
HETATM   16  C   UNL     1       8.805  29.561  56.327  1.00  0.00     0.181 C 
BRANCH  16  17
HETATM   17  C   UNL     1       9.784  29.646  57.510  1.00  0.00     0.002 C 
HETATM   18  C   UNL     1       9.514  30.899  58.339  1.00  0.00     0.011 C 
HETATM   19  C   UNL     1      11.240  29.625  57.037  1.00  0.00     0.011 C 
ENDBRANCH  16  17
ENDBRANCH  15  16
ENDBRANCH  11  15
ENDBRANCH   7   8
ENDBRANCH   1   7
BRANCH   3  20
HETATM   20  C   UNL     1       4.741  27.492  48.901  1.00  0.00     0.090 C 
HETATM   21  C   UNL     1       4.006  28.721  48.292  1.00  0.00     0.067 C 
HETATM   22  C   UNL     1       2.771  28.307  47.573  1.00  0.00    -0.013 A 
HETATM   23  C   UNL     1       2.498  27.005  47.222  1.00  0.00     0.035 A 
HETATM   24  C   UNL     1       1.687  29.042  47.064  1.00  0.00     0.148 A 
HETATM   25  N   UNL     1       1.317  27.025  46.543  1.00  0.00    -0.282 N 
HETATM   26  C   UNL     1       3.323  25.814  47.526  1.00  0.00     0.061 C 
HETATM   27  H   UNL     1       0.812  26.252  46.122  1.00  0.00     0.189 HD
HETATM   28  N   UNL     1       0.795  28.261  46.445  1.00  0.00    -0.187 NA
HETATM   29  C   UNL     1       4.733  26.265  47.954  1.00  0.00     0.031 C 
ENDBRANCH   3  20
TORSDOF 6
ENDMDL
MODEL 9
REMARK VINA RESULT:      -6.9      2.189      2.725
REMARK  6 active torsions:
REMARK  status: ('A' for Active; 'I' for Inactive)
REMARK    1  A    between atoms: C_2  and  C_3 
REMARK    2  A    between atoms: C_3  and  O_4 
REMARK    3  A    between atoms: O_4  and  C_5 
REMARK    4  A    between atoms: C_8  and  C_9 
REMARK    5  A    between atoms: C_9  and  N_10 
REMARK       I    between atoms: N_10  and  C_11 
REMARK       I    between atoms: C_11  and  N_12 
REMARK    6  A    between atoms: N_12  and  C_13 
ROOT
HETATM    1  N   UNL     1       4.536  30.919  58.945  1.00  0.00    -0.339 N 
HETATM    2  C   UNL     1       5.481  30.854  57.959  1.00  0.00     0.316 C 
HETATM    3  N   UNL     1       6.032  29.602  57.850  1.00  0.00    -0.338 N 
HETATM    4  O   UNL     1       5.825  31.813  57.282  1.00  0.00    -0.247 OA
HETATM    5  H   UNL     1       4.254  30.071  59.409  1.00  0.00     0.164 HD
HETATM    6  H   UNL     1       5.420  28.833  58.077  1.00  0.00     0.164 HD
ENDROOT
BRANCH   1   7
HETATM    7  C   UNL     1       3.785  32.130  59.177  1.00  0.00     0.164 C 
BRANCH   7   8
HETATM    8  C   UNL     1       4.153  32.773  60.482  1.00  0.00    -0.021 A 
HETATM    9  C   UNL     1       3.194  33.431  61.246  1.00  0.00     0.128 A 
HETATM   10  N   UNL     1       3.436  33.999  62.451  1.00  0.00    -0.235 NA
HETATM   11  C   UNL     1       4.699  33.903  62.932  1.00  0.00     0.186 A 
HETATM   12  C   UNL     1       5.733  33.278  62.238  1.00  0.00     0.087 A 
HETATM   13  C   UNL     1       5.451  32.708  60.997  1.00  0.00     0.038 A 
HETATM   14 CL   UNL     1       7.336  33.170  62.862  1.00  0.00    -0.080 Cl
BRANCH  11  15
HETATM   15  O   UNL     1       4.986  34.440  64.172  1.00  0.00    -0.333 OA
BRANCH  15  16
HETATM   16  C   UNL     1       4.586  33.617  65.271  1.00  0.00     0.181 C 
BRANCH  16  17
HETATM   17  C   UNL     1       5.066  34.269  66.578  1.00  0.00     0.002 C 
HETATM   18  C   UNL     1       4.652  35.738  66.626  1.00  0.00     0.011 C 
HETATM   19  C   UNL     1       6.582  34.139  66.747  1.00  0.00     0.011 C 
ENDBRANCH  16  17
ENDBRANCH  15  16
ENDBRANCH  11  15
ENDBRANCH   7   8
ENDBRANCH   1   7
BRANCH   3  20
HETATM   20  C   UNL     1       7.060  29.341  56.837  1.00  0.00     0.090 C 
HETATM   21  C   UNL     1       6.442  28.891  55.482  1.00  0.00     0.067 C 
HETATM   22  C   UNL     1       6.187  27.425  55.467  1.00  0.00    -0.013 A 
HETATM   23  C   UNL     1       6.721  26.553  56.388  1.00  0.00     0.035 A 
HETATM   24  C   UNL     1       5.461  26.605  54.588  1.00  0.00     0.148 A 
HETATM   25  N   UNL     1       6.310  25.306  56.027  1.00  0.00    -0.282 N 
HETATM   26  C   UNL     1       7.572  26.902  57.549  1.00  0.00     0.061 C 
HETATM   27  H   UNL     1       6.519  24.414  56.465  1.00  0.00     0.189 HD
HETATM   28  N   UNL     1       5.526  25.314  54.934  1.00  0.00    -0.187 NA
HETATM   29  C   UNL     1       8.110  28.336  57.375  1.00  0.00     0.031 C 
ENDBRANCH   3  20
TORSDOF 6
ENDMDL
MODEL 10
REMARK VINA RESULT:      -6.9      6.862     11.938
REMARK  6 active torsions:
REMARK  status: ('A' for Active; 'I' for Inactive)
REMARK    1  A    between atoms: C_2  and  C_3 
REMARK    2  A    between atoms: C_3  and  O_4 
REMARK    3  A    between atoms: O_4  and  C_5 
REMARK    4  A    between atoms: C_8  and  C_9 
REMARK    5  A    between atoms: C_9  and  N_10 
REMARK       I    between atoms: N_10  and  C_11 
REMARK       I    between atoms: C_11  and  N_12 
REMARK    6  A    between atoms: N_12  and  C_13 
ROOT
HETATM    1  N   UNL     1       4.992  30.463  54.426  1.00  0.00    -0.339 N 
HETATM    2  C   UNL     1       5.347  29.634  55.454  1.00  0.00     0.316 C 
HETATM    3  N   UNL     1       6.643  29.834  55.858  1.00  0.00    -0.338 N 
HETATM    4  O   UNL     1       4.608  28.783  55.927  1.00  0.00    -0.247 OA
HETATM    5  H   UNL     1       5.630  31.189  54.139  1.00  0.00     0.164 HD
HETATM    6  H   UNL     1       6.990  30.777  55.767  1.00  0.00     0.164 HD
ENDROOT
BRANCH   1   7
HETATM    7  C   UNL     1       3.647  30.463  53.900  1.00  0.00     0.164 C 
BRANCH   7   8
HETATM    8  C   UNL     1       3.614  30.055  52.456  1.00  0.00    -0.021 A 
HETATM    9  C   UNL     1       3.943  28.757  52.076  1.00  0.00     0.128 A 
HETATM   10  N   UNL     1       3.898  28.300  50.803  1.00  0.00    -0.235 NA
HETATM   11  C   UNL     1       3.495  29.176  49.850  1.00  0.00     0.186 A 
HETATM   12  C   UNL     1       3.157  30.499  50.126  1.00  0.00     0.087 A 
HETATM   13  C   UNL     1       3.220  30.940  51.448  1.00  0.00     0.038 A 
HETATM   14 CL   UNL     1       2.652  31.602  48.902  1.00  0.00    -0.080 Cl
BRANCH  11  15
HETATM   15  O   UNL     1       3.401  28.745  48.541  1.00  0.00    -0.333 OA
BRANCH  15  16
HETATM   16  C   UNL     1       3.841  27.400  48.337  1.00  0.00     0.181 C 
BRANCH  16  17
HETATM   17  C   UNL     1       2.609  26.500  48.150  1.00  0.00     0.002 C 
HETATM   18  C   UNL     1       3.027  25.116  47.660  1.00  0.00     0.011 C 
HETATM   19  C   UNL     1       1.598  27.124  47.184  1.00  0.00     0.011 C 
ENDBRANCH  16  17
ENDBRANCH  15  16
ENDBRANCH  11  15
ENDBRANCH   7   8
ENDBRANCH   1   7
BRANCH   3  20
HETATM   20  C   UNL     1       7.198  29.038  56.957  1.00  0.00     0.090 C 
HETATM   21  C   UNL     1       7.311  29.861  58.273  1.00  0.00     0.067 C 
HETATM   22  C   UNL     1       8.581  30.634  58.316  1.00  0.00    -0.013 A 
HETATM   23  C   UNL     1       9.641  30.401  57.470  1.00  0.00     0.035 A 
HETATM   24  C   UNL     1       9.027  31.664  59.162  1.00  0.00     0.148 A 
HETATM   25  N   UNL     1      10.630  31.261  57.840  1.00  0.00    -0.282 N 
HETATM   26  C   UNL     1       9.695  29.411  56.371  1.00  0.00     0.061 C 
HETATM   27  H   UNL     1      11.561  31.367  57.450  1.00  0.00     0.189 HD
HETATM   28  N   UNL     1      10.272  32.054  58.866  1.00  0.00    -0.187 NA
HETATM   29  C   UNL     1       8.546  28.397  56.539  1.00  0.00     0.031 C 
ENDBRANCH   3  20
TORSDOF 6
ENDMDL
