MODEL 1
REMARK VINA RESULT:      -9.3      0.000      0.000
REMARK  9 active torsions:
REMARK  status: ('A' for Active; 'I' for Inactive)
REMARK       I    between atoms: C_2  and  N_3 
REMARK    1  A    between atoms: N_3  and  C_4 
REMARK    2  A    between atoms: C_6  and  O_7 
REMARK    3  A    between atoms: O_7  and  C_8 
REMARK    4  A    between atoms: C_8  and  C_9 
REMARK    5  A    between atoms: C_9  and  C_10 
REMARK    6  A    between atoms: C_10  and  C_11 
REMARK    7  A    between atoms: C_11  and  N_12 
REMARK       I    between atoms: N_12  and  C_13 
REMARK    8  A    between atoms: C_13  and  C_14 
REMARK    9  A    between atoms: C_18  and  C_19 
ROOT
HETATM    1  C   UNL     1       9.958  29.884  57.084  1.00  0.00     0.217 C 
ENDROOT
BRANCH   1   2
HETATM    2  C   UNL     1       8.851  29.305  56.218  1.00  0.00    -0.085 C 
BRANCH   2   3
HETATM    3  C   UNL     1       7.901  28.809  55.474  1.00  0.00    -0.078 C 
BRANCH   3   4
HETATM    4  C   UNL     1       6.795  28.232  54.607  1.00  0.00     0.269 C 
BRANCH   4   5
HETATM    5  O   UNL     1       6.404  26.953  55.099  1.00  0.00    -0.339 OA
BRANCH   5   6
HETATM    6  C   UNL     1       6.890  25.873  54.405  1.00  0.00     0.072 A 
HETATM    7  C   UNL     1       6.966  24.559  54.882  1.00  0.00     0.066 A 
HETATM    8  C   UNL     1       7.468  23.531  54.078  1.00  0.00     0.037 A 
HETATM    9  C   UNL     1       7.908  23.836  52.785  1.00  0.00     0.029 A 
HETATM   10  C   UNL     1       7.842  25.144  52.304  1.00  0.00     0.005 A 
HETATM   11  C   UNL     1       7.331  26.158  53.113  1.00  0.00     0.037 A 
BRANCH   8  12
HETATM   12  N   UNL     1       7.559  22.183  54.492  1.00  0.00    -0.327 N 
HETATM   13  C   UNL     1       8.694  21.494  54.881  1.00  0.00     0.218 C 
HETATM   14  C   UNL     1       8.402  20.066  55.271  1.00  0.00     0.117 C 
HETATM   15  O   UNL     1       9.835  21.937  54.956  1.00  0.00    -0.274 OA
HETATM   16  H   UNL     1       6.684  21.672  54.520  1.00  0.00     0.169 HD
ENDBRANCH   8  12
ENDBRANCH   5   6
ENDBRANCH   4   5
ENDBRANCH   3   4
ENDBRANCH   2   3
ENDBRANCH   1   2
BRANCH   1  17
HETATM   17  N   UNL     1       9.452  30.092  58.415  1.00  0.00    -0.345 N 
HETATM   18  C   UNL     1       9.599  31.302  59.041  1.00  0.00     0.270 C 
HETATM   19  O   UNL     1      10.206  32.239  58.534  1.00  0.00    -0.266 OA
HETATM   20  H   UNL     1       8.858  29.382  58.816  1.00  0.00     0.163 HD
BRANCH  18  21
HETATM   21  C   UNL     1       8.977  31.404  60.334  1.00  0.00     0.120 A 
HETATM   22  N   UNL     1       9.087  30.402  61.261  1.00  0.00    -0.272 N 
HETATM   23  H   UNL     1       9.587  29.525  61.150  1.00  0.00     0.189 HD
HETATM   24  N   UNL     1       8.463  30.655  62.422  1.00  0.00    -0.173 NA
HETATM   25  C   UNL     1       7.911  31.862  62.238  1.00  0.00     0.096 A 
HETATM   26  C   UNL     1       8.200  32.368  60.947  1.00  0.00     0.071 A 
BRANCH  25  27
HETATM   27  C   UNL     1       7.102  32.539  63.304  1.00  0.00     0.035 A 
HETATM   28  S   UNL     1       5.394  32.618  63.319  1.00  0.00    -0.100 SA
HETATM   29  C   UNL     1       5.382  33.507  64.780  1.00  0.00     0.050 A 
HETATM   30  C   UNL     1       6.656  33.742  65.250  1.00  0.00     0.008 A 
HETATM   31  C   UNL     1       7.650  33.181  64.395  1.00  0.00     0.022 A 
ENDBRANCH  25  27
ENDBRANCH  18  21
ENDBRANCH   1  17
TORSDOF 9
ENDMDL
MODEL 2
REMARK VINA RESULT:      -8.8      1.577      1.695
REMARK  9 active torsions:
REMARK  status: ('A' for Active; 'I' for Inactive)
REMARK       I    between atoms: C_2  and  N_3 
REMARK    1  A    between atoms: N_3  and  C_4 
REMARK    2  A    between atoms: C_6  and  O_7 
REMARK    3  A    between atoms: O_7  and  C_8 
REMARK    4  A    between atoms: C_8  and  C_9 
REMARK    5  A    between atoms: C_9  and  C_10 
REMARK    6  A    between atoms: C_10  and  C_11 
REMARK    7  A    between atoms: C_11  and  N_12 
REMARK       I    between atoms: N_12  and  C_13 
REMARK    8  A    between atoms: C_13  and  C_14 
REMARK    9  A    between atoms: C_18  and  C_19 
ROOT
HETATM    1  C   UNL     1       8.114  29.882  57.789  1.00  0.00     0.217 C 
ENDROOT
BRANCH   1   2
HETATM    2  C   UNL     1       7.226  28.793  57.210  1.00  0.00    -0.085 C 
BRANCH   2   3
HETATM    3  C   UNL     1       6.464  27.858  56.713  1.00  0.00    -0.078 C 
BRANCH   3   4
HETATM    4  C   UNL     1       5.576  26.768  56.135  1.00  0.00     0.269 C 
BRANCH   4   5
HETATM    5  O   UNL     1       5.699  26.738  54.716  1.00  0.00    -0.339 OA
BRANCH   5   6
HETATM    6  C   UNL     1       6.448  25.707  54.205  1.00  0.00     0.072 A 
HETATM    7  C   UNL     1       6.596  24.439  54.780  1.00  0.00     0.066 A 
HETATM    8  C   UNL     1       7.375  23.456  54.161  1.00  0.00     0.037 A 
HETATM    9  C   UNL     1       8.018  23.762  52.956  1.00  0.00     0.029 A 
HETATM   10  C   UNL     1       7.880  25.025  52.379  1.00  0.00     0.005 A 
HETATM   11  C   UNL     1       7.094  25.992  53.003  1.00  0.00     0.037 A 
BRANCH   8  12
HETATM   12  N   UNL     1       7.555  22.154  54.679  1.00  0.00    -0.327 N 
HETATM   13  C   UNL     1       8.111  21.799  55.896  1.00  0.00     0.218 C 
HETATM   14  C   UNL     1       8.125  20.307  56.115  1.00  0.00     0.117 C 
HETATM   15  O   UNL     1       8.535  22.558  56.761  1.00  0.00    -0.274 OA
HETATM   16  H   UNL     1       7.221  21.398  54.094  1.00  0.00     0.169 HD
ENDBRANCH   8  12
ENDBRANCH   5   6
ENDBRANCH   4   5
ENDBRANCH   3   4
ENDBRANCH   2   3
ENDBRANCH   1   2
BRANCH   1  17
HETATM   17  N   UNL     1       7.529  30.365  59.011  1.00  0.00    -0.345 N 
HETATM   18  C   UNL     1       7.900  31.575  59.537  1.00  0.00     0.270 C 
HETATM   19  O   UNL     1       8.775  32.273  59.036  1.00  0.00    -0.266 OA
HETATM   20  H   UNL     1       6.735  29.870  59.389  1.00  0.00     0.163 HD
BRANCH  18  21
HETATM   21  C   UNL     1       7.180  31.979  60.715  1.00  0.00     0.120 A 
HETATM   22  N   UNL     1       5.819  31.858  60.797  1.00  0.00    -0.272 N 
HETATM   23  H   UNL     1       5.198  31.495  60.079  1.00  0.00     0.189 HD
HETATM   24  N   UNL     1       5.299  32.264  61.966  1.00  0.00    -0.173 NA
HETATM   25  C   UNL     1       6.362  32.680  62.666  1.00  0.00     0.096 A 
HETATM   26  C   UNL     1       7.559  32.526  61.926  1.00  0.00     0.071 A 
BRANCH  25  27
HETATM   27  C   UNL     1       6.236  33.228  64.057  1.00  0.00     0.035 A 
HETATM   28  S   UNL     1       4.755  33.660  64.796  1.00  0.00    -0.100 SA
HETATM   29  C   UNL     1       5.540  34.141  66.238  1.00  0.00     0.050 A 
HETATM   30  C   UNL     1       6.906  33.979  66.160  1.00  0.00     0.008 A 
HETATM   31  C   UNL     1       7.307  33.449  64.898  1.00  0.00     0.022 A 
ENDBRANCH  25  27
ENDBRANCH  18  21
ENDBRANCH   1  17
TORSDOF 9
ENDMDL
MODEL 3
REMARK VINA RESULT:      -8.7      1.803      3.085
REMARK  9 active torsions:
REMARK  status: ('A' for Active; 'I' for Inactive)
REMARK       I    between atoms: C_2  and  N_3 
REMARK    1  A    between atoms: N_3  and  C_4 
REMARK    2  A    between atoms: C_6  and  O_7 
REMARK    3  A    between atoms: O_7  and  C_8 
REMARK    4  A    between atoms: C_8  and  C_9 
REMARK    5  A    between atoms: C_9  and  C_10 
REMARK    6  A    between atoms: C_10  and  C_11 
REMARK    7  A    between atoms: C_11  and  N_12 
REMARK       I    between atoms: N_12  and  C_13 
REMARK    8  A    between atoms: C_13  and  C_14 
REMARK    9  A    between atoms: C_18  and  C_19 
ROOT
HETATM    1  C   UNL     1       8.090  28.892  57.176  1.00  0.00     0.217 C 
ENDROOT
BRANCH   1   2
HETATM    2  C   UNL     1       8.120  27.374  57.253  1.00  0.00    -0.085 C 
BRANCH   2   3
HETATM    3  C   UNL     1       8.147  26.072  57.318  1.00  0.00    -0.078 C 
BRANCH   3   4
HETATM    4  C   UNL     1       8.179  24.554  57.395  1.00  0.00     0.269 C 
BRANCH   4   5
HETATM    5  O   UNL     1       9.137  24.037  56.476  1.00  0.00    -0.339 OA
BRANCH   5   6
HETATM    6  C   UNL     1       8.638  23.618  55.268  1.00  0.00     0.072 A 
HETATM    7  C   UNL     1       7.941  24.413  54.350  1.00  0.00     0.066 A 
HETATM    8  C   UNL     1       7.490  23.881  53.137  1.00  0.00     0.037 A 
HETATM    9  C   UNL     1       7.736  22.532  52.856  1.00  0.00     0.029 A 
HETATM   10  C   UNL     1       8.425  21.732  53.768  1.00  0.00     0.005 A 
HETATM   11  C   UNL     1       8.876  22.277  54.969  1.00  0.00     0.037 A 
BRANCH   8  12
HETATM   12  N   UNL     1       6.794  24.629  52.162  1.00  0.00    -0.327 N 
HETATM   13  C   UNL     1       5.476  25.051  52.203  1.00  0.00     0.218 C 
HETATM   14  C   UNL     1       5.082  25.844  50.982  1.00  0.00     0.117 C 
HETATM   15  O   UNL     1       4.671  24.865  53.109  1.00  0.00    -0.274 OA
HETATM   16  H   UNL     1       7.333  24.900  51.348  1.00  0.00     0.169 HD
ENDBRANCH   8  12
ENDBRANCH   5   6
ENDBRANCH   4   5
ENDBRANCH   3   4
ENDBRANCH   2   3
ENDBRANCH   1   2
BRANCH   1  17
HETATM   17  N   UNL     1       7.924  29.425  58.502  1.00  0.00    -0.345 N 
HETATM   18  C   UNL     1       8.740  30.425  58.964  1.00  0.00     0.270 C 
HETATM   19  O   UNL     1       9.674  30.872  58.307  1.00  0.00    -0.266 OA
HETATM   20  H   UNL     1       7.104  29.158  59.025  1.00  0.00     0.163 HD
BRANCH  18  21
HETATM   21  C   UNL     1       8.416  30.926  60.273  1.00  0.00     0.120 A 
HETATM   22  N   UNL     1       8.740  30.229  61.406  1.00  0.00    -0.272 N 
HETATM   23  H   UNL     1       9.214  29.331  61.451  1.00  0.00     0.189 HD
HETATM   24  N   UNL     1       8.383  30.837  62.548  1.00  0.00    -0.173 NA
HETATM   25  C   UNL     1       7.790  31.967  62.142  1.00  0.00     0.096 A 
HETATM   26  C   UNL     1       7.782  32.066  60.729  1.00  0.00     0.071 A 
BRANCH  25  27
HETATM   27  C   UNL     1       7.227  32.965  63.111  1.00  0.00     0.035 A 
HETATM   28  S   UNL     1       5.978  34.073  62.742  1.00  0.00    -0.100 SA
HETATM   29  C   UNL     1       6.012  34.736  64.319  1.00  0.00     0.050 A 
HETATM   30  C   UNL     1       6.958  34.126  65.114  1.00  0.00     0.008 A 
HETATM   31  C   UNL     1       7.660  33.100  64.414  1.00  0.00     0.022 A 
ENDBRANCH  25  27
ENDBRANCH  18  21
ENDBRANCH   1  17
TORSDOF 9
ENDMDL
MODEL 4
REMARK VINA RESULT:      -8.6      3.857     11.410
REMARK  9 active torsions:
REMARK  status: ('A' for Active; 'I' for Inactive)
REMARK       I    between atoms: C_2  and  N_3 
REMARK    1  A    between atoms: N_3  and  C_4 
REMARK    2  A    between atoms: C_6  and  O_7 
REMARK    3  A    between atoms: O_7  and  C_8 
REMARK    4  A    between atoms: C_8  and  C_9 
REMARK    5  A    between atoms: C_9  and  C_10 
REMARK    6  A    between atoms: C_10  and  C_11 
REMARK    7  A    between atoms: C_11  and  N_12 
REMARK       I    between atoms: N_12  and  C_13 
REMARK    8  A    between atoms: C_13  and  C_14 
REMARK    9  A    between atoms: C_18  and  C_19 
ROOT
HETATM    1  C   UNL     1       6.411  28.683  57.400  1.00  0.00     0.217 C 
ENDROOT
BRANCH   1   2
HETATM    2  C   UNL     1       7.510  29.595  57.920  1.00  0.00    -0.085 C 
BRANCH   2   3
HETATM    3  C   UNL     1       8.452  30.379  58.367  1.00  0.00    -0.078 C 
BRANCH   3   4
HETATM    4  C   UNL     1       9.551  31.291  58.887  1.00  0.00     0.269 C 
BRANCH   4   5
HETATM    5  O   UNL     1       8.992  32.518  59.346  1.00  0.00    -0.339 OA
BRANCH   5   6
HETATM    6  C   UNL     1       8.279  32.447  60.517  1.00  0.00     0.072 A 
HETATM    7  C   UNL     1       6.908  32.693  60.658  1.00  0.00     0.066 A 
HETATM    8  C   UNL     1       6.282  32.576  61.904  1.00  0.00     0.037 A 
HETATM    9  C   UNL     1       7.051  32.218  63.017  1.00  0.00     0.029 A 
HETATM   10  C   UNL     1       8.419  31.977  62.886  1.00  0.00     0.005 A 
HETATM   11  C   UNL     1       9.029  32.090  61.638  1.00  0.00     0.037 A 
BRANCH   8  12
HETATM   12  N   UNL     1       4.902  32.796  62.112  1.00  0.00    -0.327 N 
HETATM   13  C   UNL     1       4.294  33.938  62.603  1.00  0.00     0.218 C 
HETATM   14  C   UNL     1       2.792  33.811  62.676  1.00  0.00     0.117 C 
HETATM   15  O   UNL     1       4.845  34.983  62.931  1.00  0.00    -0.274 OA
HETATM   16  H   UNL     1       4.291  32.029  61.855  1.00  0.00     0.169 HD
ENDBRANCH   8  12
ENDBRANCH   5   6
ENDBRANCH   4   5
ENDBRANCH   3   4
ENDBRANCH   2   3
ENDBRANCH   1   2
BRANCH   1  17
HETATM   17  N   UNL     1       6.966  27.381  57.140  1.00  0.00    -0.345 N 
HETATM   18  C   UNL     1       6.151  26.297  56.944  1.00  0.00     0.270 C 
HETATM   19  O   UNL     1       4.930  26.364  57.033  1.00  0.00    -0.266 OA
HETATM   20  H   UNL     1       7.955  27.312  56.955  1.00  0.00     0.163 HD
BRANCH  18  21
HETATM   21  C   UNL     1       6.828  25.073  56.610  1.00  0.00     0.120 A 
HETATM   22  N   UNL     1       7.691  24.472  57.487  1.00  0.00    -0.272 N 
HETATM   23  H   UNL     1       7.941  24.802  58.414  1.00  0.00     0.189 HD
HETATM   24  N   UNL     1       8.230  23.329  57.033  1.00  0.00    -0.173 NA
HETATM   25  C   UNL     1       7.709  23.189  55.808  1.00  0.00     0.096 A 
HETATM   26  C   UNL     1       6.831  24.255  55.497  1.00  0.00     0.071 A 
BRANCH  25  27
HETATM   27  C   UNL     1       8.050  22.025  54.925  1.00  0.00     0.035 A 
HETATM   28  S   UNL     1       8.789  20.582  55.469  1.00  0.00    -0.100 SA
HETATM   29  C   UNL     1       8.785  19.910  53.895  1.00  0.00     0.050 A 
HETATM   30  C   UNL     1       8.233  20.768  52.970  1.00  0.00     0.008 A 
HETATM   31  C   UNL     1       7.806  21.991  53.567  1.00  0.00     0.022 A 
ENDBRANCH  25  27
ENDBRANCH  18  21
ENDBRANCH   1  17
TORSDOF 9
ENDMDL
MODEL 5
REMARK VINA RESULT:      -8.5      3.589     11.143
REMARK  9 active torsions:
REMARK  status: ('A' for Active; 'I' for Inactive)
REMARK       I    between atoms: C_2  and  N_3 
REMARK    1  A    between atoms: N_3  and  C_4 
REMARK    2  A    between atoms: C_6  and  O_7 
REMARK    3  A    between atoms: O_7  and  C_8 
REMARK    4  A    between atoms: C_8  and  C_9 
REMARK    5  A    between atoms: C_9  and  C_10 
REMARK    6  A    between atoms: C_10  and  C_11 
REMARK    7  A    between atoms: C_11  and  N_12 
REMARK       I    between atoms: N_12  and  C_13 
REMARK    8  A    between atoms: C_13  and  C_14 
REMARK    9  A    between atoms: C_18  and  C_19 
ROOT
HETATM    1  C   UNL     1       5.739  29.174  57.417  1.00  0.00     0.217 C 
ENDROOT
BRANCH   1   2
HETATM    2  C   UNL     1       7.059  29.862  57.726  1.00  0.00    -0.085 C 
BRANCH   2   3
HETATM    3  C   UNL     1       8.191  30.451  57.992  1.00  0.00    -0.078 C 
BRANCH   3   4
HETATM    4  C   UNL     1       9.512  31.138  58.301  1.00  0.00     0.269 C 
BRANCH   4   5
HETATM    5  O   UNL     1       9.290  32.277  59.126  1.00  0.00    -0.339 OA
BRANCH   5   6
HETATM    6  C   UNL     1       8.862  32.013  60.404  1.00  0.00     0.072 A 
HETATM    7  C   UNL     1       7.924  32.762  61.125  1.00  0.00     0.066 A 
HETATM    8  C   UNL     1       7.551  32.389  62.421  1.00  0.00     0.037 A 
HETATM    9  C   UNL     1       8.141  31.258  62.996  1.00  0.00     0.029 A 
HETATM   10  C   UNL     1       9.081  30.510  62.286  1.00  0.00     0.005 A 
HETATM   11  C   UNL     1       9.437  30.888  60.993  1.00  0.00     0.037 A 
BRANCH   8  12
HETATM   12  N   UNL     1       6.601  33.090  63.197  1.00  0.00    -0.327 N 
HETATM   13  C   UNL     1       5.366  32.640  63.629  1.00  0.00     0.218 C 
HETATM   14  C   UNL     1       4.629  33.667  64.452  1.00  0.00     0.117 C 
HETATM   15  O   UNL     1       4.875  31.533  63.432  1.00  0.00    -0.274 OA
HETATM   16  H   UNL     1       6.869  34.025  63.479  1.00  0.00     0.169 HD
ENDBRANCH   8  12
ENDBRANCH   5   6
ENDBRANCH   4   5
ENDBRANCH   3   4
ENDBRANCH   2   3
ENDBRANCH   1   2
BRANCH   1  17
HETATM   17  N   UNL     1       6.005  27.921  56.761  1.00  0.00    -0.345 N 
HETATM   18  C   UNL     1       5.181  27.459  55.768  1.00  0.00     0.270 C 
HETATM   19  O   UNL     1       4.161  28.048  55.429  1.00  0.00    -0.266 OA
HETATM   20  H   UNL     1       6.888  27.467  56.939  1.00  0.00     0.163 HD
BRANCH  18  21
HETATM   21  C   UNL     1       5.604  26.238  55.138  1.00  0.00     0.120 A 
HETATM   22  N   UNL     1       5.051  25.812  53.960  1.00  0.00    -0.272 N 
HETATM   23  H   UNL     1       4.320  26.278  53.430  1.00  0.00     0.189 HD
HETATM   24  N   UNL     1       5.564  24.662  53.494  1.00  0.00    -0.173 NA
HETATM   25  C   UNL     1       6.477  24.319  54.412  1.00  0.00     0.096 A 
HETATM   26  C   UNL     1       6.535  25.269  55.460  1.00  0.00     0.071 A 
BRANCH  25  27
HETATM   27  C   UNL     1       7.303  23.073  54.287  1.00  0.00     0.035 A 
HETATM   28  S   UNL     1       7.932  22.193  55.612  1.00  0.00    -0.100 SA
HETATM   29  C   UNL     1       8.669  21.043  54.581  1.00  0.00     0.050 A 
HETATM   30  C   UNL     1       8.442  21.322  53.252  1.00  0.00     0.008 A 
HETATM   31  C   UNL     1       7.650  22.497  53.083  1.00  0.00     0.022 A 
ENDBRANCH  25  27
ENDBRANCH  18  21
ENDBRANCH   1  17
TORSDOF 9
ENDMDL
MODEL 6
REMARK VINA RESULT:      -8.3      4.246     12.485
REMARK  9 active torsions:
REMARK  status: ('A' for Active; 'I' for Inactive)
REMARK       I    between atoms: C_2  and  N_3 
REMARK    1  A    between atoms: N_3  and  C_4 
REMARK    2  A    between atoms: C_6  and  O_7 
REMARK    3  A    between atoms: O_7  and  C_8 
REMARK    4  A    between atoms: C_8  and  C_9 
REMARK    5  A    between atoms: C_9  and  C_10 
REMARK    6  A    between atoms: C_10  and  C_11 
REMARK    7  A    between atoms: C_11  and  N_12 
REMARK       I    between atoms: N_12  and  C_13 
REMARK    8  A    between atoms: C_13  and  C_14 
REMARK    9  A    between atoms: C_18  and  C_19 
ROOT
HETATM    1  C   UNL     1       9.004  31.536  61.984  1.00  0.00     0.217 C 
ENDROOT
BRANCH   1   2
HETATM    2  C   UNL     1       7.628  32.048  62.378  1.00  0.00    -0.085 C 
BRANCH   2   3
HETATM    3  C   UNL     1       6.447  32.486  62.715  1.00  0.00    -0.078 C 
BRANCH   3   4
HETATM    4  C   UNL     1       5.070  32.998  63.108  1.00  0.00     0.269 C 
BRANCH   4   5
HETATM    5  O   UNL     1       4.780  32.639  64.456  1.00  0.00    -0.339 OA
BRANCH   5   6
HETATM    6  C   UNL     1       4.748  33.677  65.354  1.00  0.00     0.072 A 
HETATM    7  C   UNL     1       5.719  33.950  66.325  1.00  0.00     0.066 A 
HETATM    8  C   UNL     1       5.589  35.049  67.181  1.00  0.00     0.037 A 
HETATM    9  C   UNL     1       4.462  35.870  67.062  1.00  0.00     0.029 A 
HETATM   10  C   UNL     1       3.487  35.600  66.101  1.00  0.00     0.005 A 
HETATM   11  C   UNL     1       3.633  34.507  65.249  1.00  0.00     0.037 A 
BRANCH   8  12
HETATM   12  N   UNL     1       6.538  35.390  68.171  1.00  0.00    -0.327 N 
HETATM   13  C   UNL     1       6.469  35.134  69.529  1.00  0.00     0.218 C 
HETATM   14  C   UNL     1       7.680  35.636  70.277  1.00  0.00     0.117 C 
HETATM   15  O   UNL     1       5.574  34.543  70.123  1.00  0.00    -0.274 OA
HETATM   16  H   UNL     1       7.370  35.862  67.838  1.00  0.00     0.169 HD
ENDBRANCH   8  12
ENDBRANCH   5   6
ENDBRANCH   4   5
ENDBRANCH   3   4
ENDBRANCH   2   3
ENDBRANCH   1   2
BRANCH   1  17
HETATM   17  N   UNL     1       8.889  30.759  60.779  1.00  0.00    -0.345 N 
HETATM   18  C   UNL     1       9.136  31.322  59.554  1.00  0.00     0.270 C 
HETATM   19  O   UNL     1       9.408  32.510  59.415  1.00  0.00    -0.266 OA
HETATM   20  H   UNL     1       8.773  29.761  60.864  1.00  0.00     0.163 HD
BRANCH  18  21
HETATM   21  C   UNL     1       9.067  30.418  58.438  1.00  0.00     0.120 A 
HETATM   22  N   UNL     1      10.066  30.359  57.503  1.00  0.00    -0.272 N 
HETATM   23  H   UNL     1      10.917  30.914  57.489  1.00  0.00     0.189 HD
HETATM   24  N   UNL     1       9.861  29.454  56.534  1.00  0.00    -0.173 NA
HETATM   25  C   UNL     1       8.674  28.914  56.840  1.00  0.00     0.096 A 
HETATM   26  C   UNL     1       8.137  29.487  58.018  1.00  0.00     0.071 A 
BRANCH  25  27
HETATM   27  C   UNL     1       8.047  27.840  56.001  1.00  0.00     0.035 A 
HETATM   28  S   UNL     1       7.694  27.995  54.335  1.00  0.00    -0.100 SA
HETATM   29  C   UNL     1       7.052  26.411  54.256  1.00  0.00     0.050 A 
HETATM   30  C   UNL     1       7.103  25.774  55.477  1.00  0.00     0.008 A 
HETATM   31  C   UNL     1       7.680  26.601  56.485  1.00  0.00     0.022 A 
ENDBRANCH  25  27
ENDBRANCH  18  21
ENDBRANCH   1  17
TORSDOF 9
ENDMDL
MODEL 7
REMARK VINA RESULT:      -8.3      3.853     11.917
REMARK  9 active torsions:
REMARK  status: ('A' for Active; 'I' for Inactive)
REMARK       I    between atoms: C_2  and  N_3 
REMARK    1  A    between atoms: N_3  and  C_4 
REMARK    2  A    between atoms: C_6  and  O_7 
REMARK    3  A    between atoms: O_7  and  C_8 
REMARK    4  A    between atoms: C_8  and  C_9 
REMARK    5  A    between atoms: C_9  and  C_10 
REMARK    6  A    between atoms: C_10  and  C_11 
REMARK    7  A    between atoms: C_11  and  N_12 
REMARK       I    between atoms: N_12  and  C_13 
REMARK    8  A    between atoms: C_13  and  C_14 
REMARK    9  A    between atoms: C_18  and  C_19 
ROOT
HETATM    1  C   UNL     1       6.073  29.558  55.807  1.00  0.00     0.217 C 
ENDROOT
BRANCH   1   2
HETATM    2  C   UNL     1       6.618  30.076  57.128  1.00  0.00    -0.085 C 
BRANCH   2   3
HETATM    3  C   UNL     1       7.086  30.519  58.262  1.00  0.00    -0.078 C 
BRANCH   3   4
HETATM    4  C   UNL     1       7.630  31.036  59.584  1.00  0.00     0.269 C 
BRANCH   4   5
HETATM    5  O   UNL     1       7.041  32.295  59.897  1.00  0.00    -0.339 OA
BRANCH   5   6
HETATM    6  C   UNL     1       7.114  32.676  61.214  1.00  0.00     0.072 A 
HETATM    7  C   UNL     1       6.274  33.600  61.847  1.00  0.00     0.066 A 
HETATM    8  C   UNL     1       6.432  33.901  63.205  1.00  0.00     0.037 A 
HETATM    9  C   UNL     1       7.455  33.272  63.923  1.00  0.00     0.029 A 
HETATM   10  C   UNL     1       8.300  32.354  63.297  1.00  0.00     0.005 A 
HETATM   11  C   UNL     1       8.127  32.057  61.947  1.00  0.00     0.037 A 
BRANCH   8  12
HETATM   12  N   UNL     1       5.612  34.811  63.907  1.00  0.00    -0.327 N 
HETATM   13  C   UNL     1       4.521  34.520  64.708  1.00  0.00     0.218 C 
HETATM   14  C   UNL     1       3.896  35.754  65.309  1.00  0.00     0.117 C 
HETATM   15  O   UNL     1       4.076  33.408  64.970  1.00  0.00    -0.274 OA
HETATM   16  H   UNL     1       5.867  35.788  63.824  1.00  0.00     0.169 HD
ENDBRANCH   8  12
ENDBRANCH   5   6
ENDBRANCH   4   5
ENDBRANCH   3   4
ENDBRANCH   2   3
ENDBRANCH   1   2
BRANCH   1  17
HETATM   17  N   UNL     1       6.195  28.124  55.779  1.00  0.00    -0.345 N 
HETATM   18  C   UNL     1       7.013  27.507  54.868  1.00  0.00     0.270 C 
HETATM   19  O   UNL     1       7.631  28.127  54.009  1.00  0.00    -0.266 OA
HETATM   20  H   UNL     1       5.789  27.595  56.535  1.00  0.00     0.163 HD
BRANCH  18  21
HETATM   21  C   UNL     1       7.110  26.078  55.000  1.00  0.00     0.120 A 
HETATM   22  N   UNL     1       6.561  25.420  56.067  1.00  0.00    -0.272 N 
HETATM   23  H   UNL     1       6.055  25.838  56.843  1.00  0.00     0.189 HD
HETATM   24  N   UNL     1       6.724  24.088  56.036  1.00  0.00    -0.173 NA
HETATM   25  C   UNL     1       7.419  23.873  54.913  1.00  0.00     0.096 A 
HETATM   26  C   UNL     1       7.689  25.085  54.234  1.00  0.00     0.071 A 
BRANCH  25  27
HETATM   27  C   UNL     1       7.831  22.496  54.481  1.00  0.00     0.035 A 
HETATM   28  S   UNL     1       8.539  21.330  55.513  1.00  0.00    -0.100 SA
HETATM   29  C   UNL     1       8.651  20.184  54.247  1.00  0.00     0.050 A 
HETATM   30  C   UNL     1       8.160  20.678  53.059  1.00  0.00     0.008 A 
HETATM   31  C   UNL     1       7.684  22.016  53.196  1.00  0.00     0.022 A 
ENDBRANCH  25  27
ENDBRANCH  18  21
ENDBRANCH   1  17
TORSDOF 9
ENDMDL
MODEL 8
REMARK VINA RESULT:      -8.3      2.269      3.747
REMARK  9 active torsions:
REMARK  status: ('A' for Active; 'I' for Inactive)
REMARK       I    between atoms: C_2  and  N_3 
REMARK    1  A    between atoms: N_3  and  C_4 
REMARK    2  A    between atoms: C_6  and  O_7 
REMARK    3  A    between atoms: O_7  and  C_8 
REMARK    4  A    between atoms: C_8  and  C_9 
REMARK    5  A    between atoms: C_9  and  C_10 
REMARK    6  A    between atoms: C_10  and  C_11 
REMARK    7  A    between atoms: C_11  and  N_12 
REMARK       I    between atoms: N_12  and  C_13 
REMARK    8  A    between atoms: C_13  and  C_14 
REMARK    9  A    between atoms: C_18  and  C_19 
ROOT
HETATM    1  C   UNL     1       8.658  28.405  57.143  1.00  0.00     0.217 C 
ENDROOT
BRANCH   1   2
HETATM    2  C   UNL     1       7.931  27.077  57.003  1.00  0.00    -0.085 C 
BRANCH   2   3
HETATM    3  C   UNL     1       7.307  25.938  56.883  1.00  0.00    -0.078 C 
BRANCH   3   4
HETATM    4  C   UNL     1       6.579  24.612  56.743  1.00  0.00     0.269 C 
BRANCH   4   5
HETATM    5  O   UNL     1       7.051  23.913  55.594  1.00  0.00    -0.339 OA
BRANCH   5   6
HETATM    6  C   UNL     1       6.800  24.516  54.386  1.00  0.00     0.072 A 
HETATM    7  C   UNL     1       5.716  25.354  54.099  1.00  0.00     0.066 A 
HETATM    8  C   UNL     1       5.567  25.927  52.831  1.00  0.00     0.037 A 
HETATM    9  C   UNL     1       6.517  25.640  51.843  1.00  0.00     0.029 A 
HETATM   10  C   UNL     1       7.597  24.801  52.121  1.00  0.00     0.005 A 
HETATM   11  C   UNL     1       7.737  24.244  53.390  1.00  0.00     0.037 A 
BRANCH   8  12
HETATM   12  N   UNL     1       4.507  26.791  52.479  1.00  0.00    -0.327 N 
HETATM   13  C   UNL     1       4.279  28.077  52.936  1.00  0.00     0.218 C 
HETATM   14  C   UNL     1       3.048  28.701  52.326  1.00  0.00     0.117 C 
HETATM   15  O   UNL     1       4.972  28.713  53.723  1.00  0.00    -0.274 OA
HETATM   16  H   UNL     1       3.850  26.427  51.800  1.00  0.00     0.169 HD
ENDBRANCH   8  12
ENDBRANCH   5   6
ENDBRANCH   4   5
ENDBRANCH   3   4
ENDBRANCH   2   3
ENDBRANCH   1   2
BRANCH   1  17
HETATM   17  N   UNL     1       8.044  29.169  58.195  1.00  0.00    -0.345 N 
HETATM   18  C   UNL     1       8.735  30.164  58.836  1.00  0.00     0.270 C 
HETATM   19  O   UNL     1       9.910  30.416  58.592  1.00  0.00    -0.266 OA
HETATM   20  H   UNL     1       7.052  29.062  58.347  1.00  0.00     0.163 HD
BRANCH  18  21
HETATM   21  C   UNL     1       7.980  30.906  59.810  1.00  0.00     0.120 A 
HETATM   22  N   UNL     1       6.765  31.457  59.503  1.00  0.00    -0.272 N 
HETATM   23  H   UNL     1       6.286  31.411  58.608  1.00  0.00     0.189 HD
HETATM   24  N   UNL     1       6.180  32.105  60.524  1.00  0.00    -0.173 NA
HETATM   25  C   UNL     1       7.057  31.984  61.529  1.00  0.00     0.096 A 
HETATM   26  C   UNL     1       8.199  31.247  61.130  1.00  0.00     0.071 A 
BRANCH  25  27
HETATM   27  C   UNL     1       6.802  32.575  62.884  1.00  0.00     0.035 A 
HETATM   28  S   UNL     1       5.249  32.915  63.515  1.00  0.00    -0.100 SA
HETATM   29  C   UNL     1       5.904  33.516  64.977  1.00  0.00     0.050 A 
HETATM   30  C   UNL     1       7.280  33.462  64.986  1.00  0.00     0.008 A 
HETATM   31  C   UNL     1       7.799  32.916  63.775  1.00  0.00     0.022 A 
ENDBRANCH  25  27
ENDBRANCH  18  21
ENDBRANCH   1  17
TORSDOF 9
ENDMDL
MODEL 9
REMARK VINA RESULT:      -7.9      3.734     11.269
REMARK  9 active torsions:
REMARK  status: ('A' for Active; 'I' for Inactive)
REMARK       I    between atoms: C_2  and  N_3 
REMARK    1  A    between atoms: N_3  and  C_4 
REMARK    2  A    between atoms: C_6  and  O_7 
REMARK    3  A    between atoms: O_7  and  C_8 
REMARK    4  A    between atoms: C_8  and  C_9 
REMARK    5  A    between atoms: C_9  and  C_10 
REMARK    6  A    between atoms: C_10  and  C_11 
REMARK    7  A    between atoms: C_11  and  N_12 
REMARK       I    between atoms: N_12  and  C_13 
REMARK    8  A    between atoms: C_13  and  C_14 
REMARK    9  A    between atoms: C_18  and  C_19 
ROOT
HETATM    1  C   UNL     1       5.004  29.187  54.230  1.00  0.00     0.217 C 
ENDROOT
BRANCH   1   2
HETATM    2  C   UNL     1       5.328  29.868  55.549  1.00  0.00    -0.085 C 
BRANCH   2   3
HETATM    3  C   UNL     1       5.607  30.453  56.681  1.00  0.00    -0.078 C 
BRANCH   3   4
HETATM    4  C   UNL     1       5.932  31.135  58.001  1.00  0.00     0.269 C 
BRANCH   4   5
HETATM    5  O   UNL     1       7.306  30.945  58.325  1.00  0.00    -0.339 OA
BRANCH   5   6
HETATM    6  C   UNL     1       7.641  31.149  59.641  1.00  0.00     0.072 A 
HETATM    7  C   UNL     1       6.904  31.897  60.567  1.00  0.00     0.066 A 
HETATM    8  C   UNL     1       7.336  32.026  61.891  1.00  0.00     0.037 A 
HETATM    9  C   UNL     1       8.528  31.403  62.279  1.00  0.00     0.029 A 
HETATM   10  C   UNL     1       9.270  30.661  61.360  1.00  0.00     0.005 A 
HETATM   11  C   UNL     1       8.825  30.534  60.046  1.00  0.00     0.037 A 
BRANCH   8  12
HETATM   12  N   UNL     1       6.634  32.753  62.879  1.00  0.00    -0.327 N 
HETATM   13  C   UNL     1       5.460  32.393  63.517  1.00  0.00     0.218 C 
HETATM   14  C   UNL     1       5.010  33.418  64.528  1.00  0.00     0.117 C 
HETATM   15  O   UNL     1       4.819  31.360  63.353  1.00  0.00    -0.274 OA
HETATM   16  H   UNL     1       7.053  33.631  63.159  1.00  0.00     0.169 HD
ENDBRANCH   8  12
ENDBRANCH   5   6
ENDBRANCH   4   5
ENDBRANCH   3   4
ENDBRANCH   2   3
ENDBRANCH   1   2
BRANCH   1  17
HETATM   17  N   UNL     1       5.678  27.918  54.178  1.00  0.00    -0.345 N 
HETATM   18  C   UNL     1       5.540  27.092  53.093  1.00  0.00     0.270 C 
HETATM   19  O   UNL     1       4.805  27.361  52.148  1.00  0.00    -0.266 OA
HETATM   20  H   UNL     1       6.370  27.716  54.884  1.00  0.00     0.163 HD
BRANCH  18  21
HETATM   21  C   UNL     1       6.332  25.892  53.129  1.00  0.00     0.120 A 
HETATM   22  N   UNL     1       7.446  25.747  52.348  1.00  0.00    -0.272 N 
HETATM   23  H   UNL     1       7.818  26.426  51.690  1.00  0.00     0.189 HD
HETATM   24  N   UNL     1       8.084  24.577  52.509  1.00  0.00    -0.173 NA
HETATM   25  C   UNL     1       7.346  23.929  53.420  1.00  0.00     0.096 A 
HETATM   26  C   UNL     1       6.239  24.708  53.834  1.00  0.00     0.071 A 
BRANCH  25  27
HETATM   27  C   UNL     1       7.702  22.553  53.901  1.00  0.00     0.035 A 
HETATM   28  S   UNL     1       7.800  22.099  55.547  1.00  0.00    -0.100 SA
HETATM   29  C   UNL     1       8.232  20.493  55.146  1.00  0.00     0.050 A 
HETATM   30  C   UNL     1       8.303  20.304  53.783  1.00  0.00     0.008 A 
HETATM   31  C   UNL     1       7.995  21.497  53.064  1.00  0.00     0.022 A 
ENDBRANCH  25  27
ENDBRANCH  18  21
ENDBRANCH   1  17
TORSDOF 9
ENDMDL
MODEL 10
REMARK VINA RESULT:      -7.8      4.534     12.783
REMARK  9 active torsions:
REMARK  status: ('A' for Active; 'I' for Inactive)
REMARK       I    between atoms: C_2  and  N_3 
REMARK    1  A    between atoms: N_3  and  C_4 
REMARK    2  A    between atoms: C_6  and  O_7 
REMARK    3  A    between atoms: O_7  and  C_8 
REMARK    4  A    between atoms: C_8  and  C_9 
REMARK    5  A    between atoms: C_9  and  C_10 
REMARK    6  A    between atoms: C_10  and  C_11 
REMARK    7  A    between atoms: C_11  and  N_12 
REMARK       I    between atoms: N_12  and  C_13 
REMARK    8  A    between atoms: C_13  and  C_14 
REMARK    9  A    between atoms: C_18  and  C_19 
ROOT
HETATM    1  C   UNL     1       9.433  31.462  60.842  1.00  0.00     0.217 C 
ENDROOT
BRANCH   1   2
HETATM    2  C   UNL     1       8.452  32.065  61.834  1.00  0.00    -0.085 C 
BRANCH   2   3
HETATM    3  C   UNL     1       7.610  32.583  62.685  1.00  0.00    -0.078 C 
BRANCH   3   4
HETATM    4  C   UNL     1       6.628  33.186  63.676  1.00  0.00     0.269 C 
BRANCH   4   5
HETATM    5  O   UNL     1       7.266  33.396  64.932  1.00  0.00    -0.339 OA
BRANCH   5   6
HETATM    6  C   UNL     1       6.456  33.844  65.945  1.00  0.00     0.072 A 
HETATM    7  C   UNL     1       6.883  34.271  67.208  1.00  0.00     0.066 A 
HETATM    8  C   UNL     1       5.965  34.723  68.162  1.00  0.00     0.037 A 
HETATM    9  C   UNL     1       4.603  34.733  67.839  1.00  0.00     0.029 A 
HETATM   10  C   UNL     1       4.169  34.304  66.584  1.00  0.00     0.005 A 
HETATM   11  C   UNL     1       5.095  33.864  65.641  1.00  0.00     0.037 A 
BRANCH   8  12
HETATM   12  N   UNL     1       6.329  35.180  69.448  1.00  0.00    -0.327 N 
HETATM   13  C   UNL     1       6.137  34.537  70.658  1.00  0.00     0.218 C 
HETATM   14  C   UNL     1       6.671  35.327  71.827  1.00  0.00     0.117 C 
HETATM   15  O   UNL     1       5.628  33.435  70.834  1.00  0.00    -0.274 OA
HETATM   16  H   UNL     1       6.800  36.076  69.479  1.00  0.00     0.169 HD
ENDBRANCH   8  12
ENDBRANCH   5   6
ENDBRANCH   4   5
ENDBRANCH   3   4
ENDBRANCH   2   3
ENDBRANCH   1   2
BRANCH   1  17
HETATM   17  N   UNL     1       8.770  30.423  60.100  1.00  0.00    -0.345 N 
HETATM   18  C   UNL     1       8.003  30.722  59.004  1.00  0.00     0.270 C 
HETATM   19  O   UNL     1       7.798  31.873  58.636  1.00  0.00    -0.266 OA
HETATM   20  H   UNL     1       9.004  29.464  60.309  1.00  0.00     0.163 HD
BRANCH  18  21
HETATM   21  C   UNL     1       7.465  29.587  58.303  1.00  0.00     0.120 A 
HETATM   22  N   UNL     1       6.158  29.551  57.898  1.00  0.00    -0.272 N 
HETATM   23  H   UNL     1       5.459  30.274  58.040  1.00  0.00     0.189 HD
HETATM   24  N   UNL     1       5.815  28.430  57.244  1.00  0.00    -0.173 NA
HETATM   25  C   UNL     1       6.939  27.702  57.237  1.00  0.00     0.096 A 
HETATM   26  C   UNL     1       7.996  28.380  57.890  1.00  0.00     0.071 A 
BRANCH  25  27
HETATM   27  C   UNL     1       7.005  26.346  56.598  1.00  0.00     0.035 A 
HETATM   28  S   UNL     1       8.040  25.084  57.112  1.00  0.00    -0.100 SA
HETATM   29  C   UNL     1       7.464  24.029  55.894  1.00  0.00     0.050 A 
HETATM   30  C   UNL     1       6.503  24.625  55.109  1.00  0.00     0.008 A 
HETATM   31  C   UNL     1       6.237  25.965  55.518  1.00  0.00     0.022 A 
ENDBRANCH  25  27
ENDBRANCH  18  21
ENDBRANCH   1  17
TORSDOF 9
ENDMDL
