MODEL 1
REMARK VINA RESULT:      -8.9      0.000      0.000
REMARK  6 active torsions:
REMARK  status: ('A' for Active; 'I' for Inactive)
REMARK    1  A    between atoms: C_2  and  C_3 
REMARK    2  A    between atoms: C_7  and  O_8 
REMARK    3  A    between atoms: O_8  and  C_9 
REMARK    4  A    between atoms: C_9  and  C_10 
REMARK       I    between atoms: C_10  and  N_11 
REMARK    5  A    between atoms: N_11  and  N_12 
REMARK    6  A    between atoms: C_13  and  C_14 
ROOT
HETATM    1  C   UNL     1       5.339  27.226  53.783  1.00  0.00     0.261 C 
HETATM    2  N   UNL     1       4.973  28.057  54.815  1.00  0.00    -0.246 N 
HETATM    3  O   UNL     1       4.519  26.432  53.313  1.00  0.00    -0.269 OA
HETATM    4  H   UNL     1       4.005  28.004  55.115  1.00  0.00     0.192 HD
ENDROOT
BRANCH   2   5
HETATM    5  N   UNL     1       5.834  28.946  55.380  1.00  0.00    -0.184 NA
HETATM    6  C   UNL     1       6.017  28.804  56.654  1.00  0.00     0.152 C 
BRANCH   6   7
HETATM    7  C   UNL     1       6.889  29.719  57.359  1.00  0.00     0.011 A 
HETATM    8  C   UNL     1       8.318  29.788  57.284  1.00  0.00     0.004 A 
HETATM    9  C   UNL     1       8.731  30.809  58.142  1.00  0.00     0.043 A 
HETATM   10  C   UNL     1       9.304  29.079  56.564  1.00  0.00     0.014 A 
HETATM   11  C   UNL     1      10.076  31.155  58.318  1.00  0.00     0.030 A 
HETATM   12  N   UNL     1       7.599  31.338  58.718  1.00  0.00    -0.364 N 
HETATM   13  C   UNL     1      11.031  30.437  57.591  1.00  0.00     0.002 A 
HETATM   14  C   UNL     1      10.653  29.415  56.726  1.00  0.00     0.001 A 
HETATM   15  H   UNL     1       7.597  32.092  59.391  1.00  0.00     0.165 HD
HETATM   16  C   UNL     1       6.486  30.695  58.251  1.00  0.00     0.102 A 
ENDBRANCH   6   7
ENDBRANCH   2   5
BRANCH   1  17
HETATM   17  C   UNL     1       6.780  27.297  53.291  1.00  0.00     0.280 C 
BRANCH  17  18
HETATM   18  O   UNL     1       7.640  26.601  54.183  1.00  0.00    -0.341 OA
BRANCH  18  19
HETATM   19  C   UNL     1       7.664  25.234  54.088  1.00  0.00     0.086 A 
HETATM   20  C   UNL     1       7.533  24.505  55.278  1.00  0.00     0.044 A 
HETATM   21  C   UNL     1       7.583  23.107  55.271  1.00  0.00     0.029 A 
HETATM   22 BR   UNL     1       7.270  25.374  56.949  1.00  0.00    -0.048 Br
HETATM   23  C   UNL     1       7.765  22.409  54.072  1.00  0.00    -0.057 A 
HETATM   24  C   UNL     1       7.902  23.136  52.884  1.00  0.00     0.010 A 
HETATM   25  C   UNL     1       7.852  24.535  52.891  1.00  0.00     0.039 A 
BRANCH  23  26
HETATM   26  C   UNL     1       7.854  20.905  54.062  1.00  0.00     0.034 C 
HETATM   27  C   UNL     1       8.366  20.377  52.731  1.00  0.00     0.010 C 
ENDBRANCH  23  26
ENDBRANCH  18  19
ENDBRANCH  17  18
ENDBRANCH   1  17
TORSDOF 6
ENDMDL
MODEL 2
REMARK VINA RESULT:      -8.6      2.579      8.199
REMARK  6 active torsions:
REMARK  status: ('A' for Active; 'I' for Inactive)
REMARK    1  A    between atoms: C_2  and  C_3 
REMARK    2  A    between atoms: C_7  and  O_8 
REMARK    3  A    between atoms: O_8  and  C_9 
REMARK    4  A    between atoms: C_9  and  C_10 
REMARK       I    between atoms: C_10  and  N_11 
REMARK    5  A    between atoms: N_11  and  N_12 
REMARK    6  A    between atoms: C_13  and  C_14 
ROOT
HETATM    1  C   UNL     1       5.937  28.295  55.451  1.00  0.00     0.261 C 
HETATM    2  N   UNL     1       5.606  27.015  55.074  1.00  0.00    -0.246 N 
HETATM    3  O   UNL     1       5.432  29.258  54.868  1.00  0.00    -0.269 OA
HETATM    4  H   UNL     1       4.908  26.928  54.342  1.00  0.00     0.192 HD
ENDROOT
BRANCH   2   5
HETATM    5  N   UNL     1       6.136  25.914  55.672  1.00  0.00    -0.184 NA
HETATM    6  C   UNL     1       6.944  25.221  54.935  1.00  0.00     0.152 C 
BRANCH   6   7
HETATM    7  C   UNL     1       7.537  24.012  55.465  1.00  0.00     0.011 A 
HETATM    8  C   UNL     1       7.833  22.805  54.752  1.00  0.00     0.004 A 
HETATM    9  C   UNL     1       8.383  21.905  55.666  1.00  0.00     0.043 A 
HETATM   10  C   UNL     1       7.686  22.390  53.410  1.00  0.00     0.014 A 
HETATM   11  C   UNL     1       8.792  20.614  55.309  1.00  0.00     0.030 A 
HETATM   12  N   UNL     1       8.420  22.538  56.888  1.00  0.00    -0.364 N 
HETATM   13  C   UNL     1       8.637  20.231  53.974  1.00  0.00     0.002 A 
HETATM   14  C   UNL     1       8.093  21.104  53.037  1.00  0.00     0.001 A 
HETATM   15  H   UNL     1       8.764  22.119  57.741  1.00  0.00     0.165 HD
HETATM   16  C   UNL     1       7.919  23.805  56.778  1.00  0.00     0.102 A 
ENDBRANCH   6   7
ENDBRANCH   2   5
BRANCH   1  17
HETATM   17  C   UNL     1       6.966  28.463  56.564  1.00  0.00     0.280 C 
BRANCH  17  18
HETATM   18  O   UNL     1       7.568  29.748  56.487  1.00  0.00    -0.341 OA
BRANCH  18  19
HETATM   19  C   UNL     1       7.973  30.319  57.665  1.00  0.00     0.086 A 
HETATM   20  C   UNL     1       9.349  30.329  57.934  1.00  0.00     0.044 A 
HETATM   21  C   UNL     1       9.842  30.861  59.131  1.00  0.00     0.029 A 
HETATM   22 BR   UNL     1      10.608  29.637  56.688  1.00  0.00    -0.048 Br
HETATM   23  C   UNL     1       8.966  31.394  60.083  1.00  0.00    -0.057 A 
HETATM   24  C   UNL     1       7.593  31.378  59.820  1.00  0.00     0.010 A 
HETATM   25  C   UNL     1       7.100  30.846  58.622  1.00  0.00     0.039 A 
BRANCH  23  26
HETATM   26  C   UNL     1       9.488  31.937  61.389  1.00  0.00     0.034 C 
HETATM   27  C   UNL     1       8.396  32.018  62.445  1.00  0.00     0.010 C 
ENDBRANCH  23  26
ENDBRANCH  18  19
ENDBRANCH  17  18
ENDBRANCH   1  17
TORSDOF 6
ENDMDL
MODEL 3
REMARK VINA RESULT:      -8.4      2.629      8.120
REMARK  6 active torsions:
REMARK  status: ('A' for Active; 'I' for Inactive)
REMARK    1  A    between atoms: C_2  and  C_3 
REMARK    2  A    between atoms: C_7  and  O_8 
REMARK    3  A    between atoms: O_8  and  C_9 
REMARK    4  A    between atoms: C_9  and  C_10 
REMARK       I    between atoms: C_10  and  N_11 
REMARK    5  A    between atoms: N_11  and  N_12 
REMARK    6  A    between atoms: C_13  and  C_14 
ROOT
HETATM    1  C   UNL     1       5.064  27.984  55.605  1.00  0.00     0.261 C 
HETATM    2  N   UNL     1       4.990  26.679  55.183  1.00  0.00    -0.246 N 
HETATM    3  O   UNL     1       4.391  28.852  55.042  1.00  0.00    -0.269 OA
HETATM    4  H   UNL     1       4.332  26.484  54.435  1.00  0.00     0.192 HD
ENDROOT
BRANCH   2   5
HETATM    5  N   UNL     1       5.712  25.680  55.757  1.00  0.00    -0.184 NA
HETATM    6  C   UNL     1       6.494  25.031  54.955  1.00  0.00     0.152 C 
BRANCH   6   7
HETATM    7  C   UNL     1       7.283  23.928  55.459  1.00  0.00     0.011 A 
HETATM    8  C   UNL     1       7.692  22.755  54.744  1.00  0.00     0.004 A 
HETATM    9  C   UNL     1       8.423  21.961  55.630  1.00  0.00     0.043 A 
HETATM   10  C   UNL     1       7.513  22.292  53.422  1.00  0.00     0.014 A 
HETATM   11  C   UNL     1       8.980  20.730  55.263  1.00  0.00     0.030 A 
HETATM   12  N   UNL     1       8.455  22.623  56.836  1.00  0.00    -0.364 N 
HETATM   13  C   UNL     1       8.788  20.297  53.948  1.00  0.00     0.002 A 
HETATM   14  C   UNL     1       8.066  21.065  53.039  1.00  0.00     0.001 A 
HETATM   15  H   UNL     1       8.912  22.276  57.668  1.00  0.00     0.165 HD
HETATM   16  C   UNL     1       7.778  23.807  56.743  1.00  0.00     0.102 A 
ENDBRANCH   6   7
ENDBRANCH   2   5
BRANCH   1  17
HETATM   17  C   UNL     1       6.025  28.308  56.744  1.00  0.00     0.280 C 
BRANCH  17  18
HETATM   18  O   UNL     1       6.649  29.565  56.518  1.00  0.00    -0.341 OA
BRANCH  18  19
HETATM   19  C   UNL     1       7.361  30.104  57.558  1.00  0.00     0.086 A 
HETATM   20  C   UNL     1       6.743  31.121  58.299  1.00  0.00     0.044 A 
HETATM   21  C   UNL     1       7.414  31.748  59.354  1.00  0.00     0.029 A 
HETATM   22 BR   UNL     1       4.967  31.686  57.920  1.00  0.00    -0.048 Br
HETATM   23  C   UNL     1       8.720  31.370  59.688  1.00  0.00    -0.057 A 
HETATM   24  C   UNL     1       9.340  30.361  58.944  1.00  0.00     0.010 A 
HETATM   25  C   UNL     1       8.667  29.733  57.889  1.00  0.00     0.039 A 
BRANCH  23  26
HETATM   26  C   UNL     1       9.461  32.066  60.801  1.00  0.00     0.034 C 
HETATM   27  C   UNL     1       8.765  31.889  62.142  1.00  0.00     0.010 C 
ENDBRANCH  23  26
ENDBRANCH  18  19
ENDBRANCH  17  18
ENDBRANCH   1  17
TORSDOF 6
ENDMDL
MODEL 4
REMARK VINA RESULT:      -8.4      3.265      6.958
REMARK  6 active torsions:
REMARK  status: ('A' for Active; 'I' for Inactive)
REMARK    1  A    between atoms: C_2  and  C_3 
REMARK    2  A    between atoms: C_7  and  O_8 
REMARK    3  A    between atoms: O_8  and  C_9 
REMARK    4  A    between atoms: C_9  and  C_10 
REMARK       I    between atoms: C_10  and  N_11 
REMARK    5  A    between atoms: N_11  and  N_12 
REMARK    6  A    between atoms: C_13  and  C_14 
ROOT
HETATM    1  C   UNL     1       7.555  27.956  55.417  1.00  0.00     0.261 C 
HETATM    2  N   UNL     1       7.597  26.997  56.401  1.00  0.00    -0.246 N 
HETATM    3  O   UNL     1       7.686  29.147  55.713  1.00  0.00    -0.269 OA
HETATM    4  H   UNL     1       7.784  27.326  57.343  1.00  0.00     0.192 HD
ENDROOT
BRANCH   2   5
HETATM    5  N   UNL     1       7.450  25.671  56.139  1.00  0.00    -0.184 NA
HETATM    6  C   UNL     1       8.361  24.903  56.646  1.00  0.00     0.152 C 
BRANCH   6   7
HETATM    7  C   UNL     1       8.315  23.478  56.400  1.00  0.00     0.011 A 
HETATM    8  C   UNL     1       8.208  22.818  55.132  1.00  0.00     0.004 A 
HETATM    9  C   UNL     1       8.186  21.444  55.377  1.00  0.00     0.043 A 
HETATM   10  C   UNL     1       8.130  23.260  53.793  1.00  0.00     0.014 A 
HETATM   11  C   UNL     1       8.088  20.492  54.356  1.00  0.00     0.030 A 
HETATM   12  N   UNL     1       8.274  21.274  56.740  1.00  0.00    -0.364 N 
HETATM   13  C   UNL     1       8.014  20.958  53.040  1.00  0.00     0.002 A 
HETATM   14  C   UNL     1       8.035  22.321  52.760  1.00  0.00     0.001 A 
HETATM   15  H   UNL     1       8.272  20.378  57.207  1.00  0.00     0.165 HD
HETATM   16  C   UNL     1       8.357  22.488  57.364  1.00  0.00     0.102 A 
ENDBRANCH   6   7
ENDBRANCH   2   5
BRANCH   1  17
HETATM   17  C   UNL     1       7.300  27.494  53.986  1.00  0.00     0.280 C 
BRANCH  17  18
HETATM   18  O   UNL     1       5.926  27.646  53.658  1.00  0.00    -0.341 OA
BRANCH  18  19
HETATM   19  C   UNL     1       5.602  27.680  52.327  1.00  0.00     0.086 A 
HETATM   20  C   UNL     1       5.188  26.478  51.736  1.00  0.00     0.044 A 
HETATM   21  C   UNL     1       4.874  26.419  50.374  1.00  0.00     0.029 A 
HETATM   22 BR   UNL     1       5.019  24.880  52.753  1.00  0.00    -0.048 Br
HETATM   23  C   UNL     1       4.968  27.564  49.575  1.00  0.00    -0.057 A 
HETATM   24  C   UNL     1       5.389  28.763  50.161  1.00  0.00     0.010 A 
HETATM   25  C   UNL     1       5.703  28.821  51.525  1.00  0.00     0.039 A 
BRANCH  23  26
HETATM   26  C   UNL     1       4.665  27.500  48.100  1.00  0.00     0.034 C 
HETATM   27  C   UNL     1       4.053  26.164  47.706  1.00  0.00     0.010 C 
ENDBRANCH  23  26
ENDBRANCH  18  19
ENDBRANCH  17  18
ENDBRANCH   1  17
TORSDOF 6
ENDMDL
MODEL 5
REMARK VINA RESULT:      -8.4      2.223      3.041
REMARK  6 active torsions:
REMARK  status: ('A' for Active; 'I' for Inactive)
REMARK    1  A    between atoms: C_2  and  C_3 
REMARK    2  A    between atoms: C_7  and  O_8 
REMARK    3  A    between atoms: O_8  and  C_9 
REMARK    4  A    between atoms: C_9  and  C_10 
REMARK       I    between atoms: C_10  and  N_11 
REMARK    5  A    between atoms: N_11  and  N_12 
REMARK    6  A    between atoms: C_13  and  C_14 
ROOT
HETATM    1  C   UNL     1       7.260  28.080  55.195  1.00  0.00     0.261 C 
HETATM    2  N   UNL     1       7.213  29.414  55.522  1.00  0.00    -0.246 N 
HETATM    3  O   UNL     1       7.748  27.728  54.117  1.00  0.00    -0.269 OA
HETATM    4  H   UNL     1       7.637  30.056  54.860  1.00  0.00     0.192 HD
ENDROOT
BRANCH   2   5
HETATM    5  N   UNL     1       6.680  29.864  56.690  1.00  0.00    -0.184 NA
HETATM    6  C   UNL     1       7.417  30.699  57.349  1.00  0.00     0.152 C 
BRANCH   6   7
HETATM    7  C   UNL     1       6.956  31.214  58.620  1.00  0.00     0.011 A 
HETATM    8  C   UNL     1       7.735  31.434  59.802  1.00  0.00     0.004 A 
HETATM    9  C   UNL     1       6.874  31.925  60.784  1.00  0.00     0.043 A 
HETATM   10  C   UNL     1       9.098  31.263  60.132  1.00  0.00     0.014 A 
HETATM   11  C   UNL     1       7.303  32.252  62.076  1.00  0.00     0.030 A 
HETATM   12  N   UNL     1       5.619  32.000  60.223  1.00  0.00    -0.364 N 
HETATM   13  C   UNL     1       8.657  32.074  62.374  1.00  0.00     0.002 A 
HETATM   14  C   UNL     1       9.543  31.588  61.418  1.00  0.00     0.001 A 
HETATM   15  H   UNL     1       4.792  32.316  60.709  1.00  0.00     0.165 HD
HETATM   16  C   UNL     1       5.658  31.580  58.922  1.00  0.00     0.102 A 
ENDBRANCH   6   7
ENDBRANCH   2   5
BRANCH   1  17
HETATM   17  C   UNL     1       6.653  27.085  56.179  1.00  0.00     0.280 C 
BRANCH  17  18
HETATM   18  O   UNL     1       5.999  26.037  55.478  1.00  0.00    -0.341 OA
BRANCH  18  19
HETATM   19  C   UNL     1       6.774  24.986  55.062  1.00  0.00     0.086 A 
HETATM   20  C   UNL     1       6.453  24.401  53.829  1.00  0.00     0.044 A 
HETATM   21  C   UNL     1       7.173  23.301  53.348  1.00  0.00     0.029 A 
HETATM   22 BR   UNL     1       5.041  25.076  52.748  1.00  0.00    -0.048 Br
HETATM   23  C   UNL     1       8.229  22.765  54.092  1.00  0.00    -0.057 A 
HETATM   24  C   UNL     1       8.546  23.343  55.326  1.00  0.00     0.010 A 
HETATM   25  C   UNL     1       7.826  24.444  55.807  1.00  0.00     0.039 A 
BRANCH  23  26
HETATM   26  C   UNL     1       8.985  21.559  53.596  1.00  0.00     0.034 C 
HETATM   27  C   UNL     1       8.053  20.502  53.025  1.00  0.00     0.010 C 
ENDBRANCH  23  26
ENDBRANCH  18  19
ENDBRANCH  17  18
ENDBRANCH   1  17
TORSDOF 6
ENDMDL
MODEL 6
REMARK VINA RESULT:      -8.3      2.988      7.079
REMARK  6 active torsions:
REMARK  status: ('A' for Active; 'I' for Inactive)
REMARK    1  A    between atoms: C_2  and  C_3 
REMARK    2  A    between atoms: C_7  and  O_8 
REMARK    3  A    between atoms: O_8  and  C_9 
REMARK    4  A    between atoms: C_9  and  C_10 
REMARK       I    between atoms: C_10  and  N_11 
REMARK    5  A    between atoms: N_11  and  N_12 
REMARK    6  A    between atoms: C_13  and  C_14 
ROOT
HETATM    1  C   UNL     1       5.283  27.150  50.798  1.00  0.00     0.261 C 
HETATM    2  N   UNL     1       5.891  25.925  50.931  1.00  0.00    -0.246 N 
HETATM    3  O   UNL     1       5.284  27.722  49.705  1.00  0.00    -0.269 OA
HETATM    4  H   UNL     1       6.283  25.522  50.085  1.00  0.00     0.192 HD
ENDROOT
BRANCH   2   5
HETATM    5  N   UNL     1       5.932  25.250  52.111  1.00  0.00    -0.184 NA
HETATM    6  C   UNL     1       7.054  24.661  52.373  1.00  0.00     0.152 C 
BRANCH   6   7
HETATM    7  C   UNL     1       7.192  23.888  53.588  1.00  0.00     0.011 A 
HETATM    8  C   UNL     1       7.686  22.550  53.715  1.00  0.00     0.004 A 
HETATM    9  C   UNL     1       7.627  22.209  55.068  1.00  0.00     0.043 A 
HETATM   10  C   UNL     1       8.184  21.591  52.806  1.00  0.00     0.014 A 
HETATM   11  C   UNL     1       8.035  20.962  55.556  1.00  0.00     0.030 A 
HETATM   12  N   UNL     1       7.114  23.297  55.737  1.00  0.00    -0.364 N 
HETATM   13  C   UNL     1       8.525  20.033  54.633  1.00  0.00     0.002 A 
HETATM   14  C   UNL     1       8.599  20.341  53.278  1.00  0.00     0.001 A 
HETATM   15  H   UNL     1       6.951  23.332  56.734  1.00  0.00     0.165 HD
HETATM   16  C   UNL     1       6.854  24.312  54.860  1.00  0.00     0.102 A 
ENDBRANCH   6   7
ENDBRANCH   2   5
BRANCH   1  17
HETATM   17  C   UNL     1       4.663  27.773  52.045  1.00  0.00     0.280 C 
BRANCH  17  18
HETATM   18  O   UNL     1       5.502  28.803  52.548  1.00  0.00    -0.341 OA
BRANCH  18  19
HETATM   19  C   UNL     1       6.011  28.632  53.810  1.00  0.00     0.086 A 
HETATM   20  C   UNL     1       5.344  29.274  54.863  1.00  0.00     0.044 A 
HETATM   21  C   UNL     1       5.819  29.179  56.176  1.00  0.00     0.029 A 
HETATM   22 BR   UNL     1       3.763  30.287  54.565  1.00  0.00    -0.048 Br
HETATM   23  C   UNL     1       6.972  28.439  56.461  1.00  0.00    -0.057 A 
HETATM   24  C   UNL     1       7.643  27.804  55.410  1.00  0.00     0.010 A 
HETATM   25  C   UNL     1       7.167  27.899  54.096  1.00  0.00     0.039 A 
BRANCH  23  26
HETATM   26  C   UNL     1       7.508  28.362  57.867  1.00  0.00     0.034 C 
HETATM   27  C   UNL     1       8.276  29.619  58.250  1.00  0.00     0.010 C 
ENDBRANCH  23  26
ENDBRANCH  18  19
ENDBRANCH  17  18
ENDBRANCH   1  17
TORSDOF 6
ENDMDL
MODEL 7
REMARK VINA RESULT:      -8.3      3.970      9.124
REMARK  6 active torsions:
REMARK  status: ('A' for Active; 'I' for Inactive)
REMARK    1  A    between atoms: C_2  and  C_3 
REMARK    2  A    between atoms: C_7  and  O_8 
REMARK    3  A    between atoms: O_8  and  C_9 
REMARK    4  A    between atoms: C_9  and  C_10 
REMARK       I    between atoms: C_10  and  N_11 
REMARK    5  A    between atoms: N_11  and  N_12 
REMARK    6  A    between atoms: C_13  and  C_14 
ROOT
HETATM    1  C   UNL     1       9.877  30.510  57.631  1.00  0.00     0.261 C 
HETATM    2  N   UNL     1       9.853  29.515  56.683  1.00  0.00    -0.246 N 
HETATM    3  O   UNL     1      10.831  31.292  57.676  1.00  0.00    -0.269 OA
HETATM    4  H   UNL     1      10.622  29.504  56.021  1.00  0.00     0.192 HD
ENDROOT
BRANCH   2   5
HETATM    5  N   UNL     1       8.835  28.617  56.588  1.00  0.00    -0.184 NA
HETATM    6  C   UNL     1       8.178  28.641  55.473  1.00  0.00     0.152 C 
BRANCH   6   7
HETATM    7  C   UNL     1       7.056  27.749  55.282  1.00  0.00     0.011 A 
HETATM    8  C   UNL     1       6.928  26.711  54.303  1.00  0.00     0.004 A 
HETATM    9  C   UNL     1       5.677  26.120  54.482  1.00  0.00     0.043 A 
HETATM   10  C   UNL     1       7.762  26.214  53.277  1.00  0.00     0.014 A 
HETATM   11  C   UNL     1       5.216  25.061  53.690  1.00  0.00     0.030 A 
HETATM   12  N   UNL     1       5.066  26.773  55.528  1.00  0.00    -0.364 N 
HETATM   13  C   UNL     1       6.063  24.588  52.683  1.00  0.00     0.002 A 
HETATM   14  C   UNL     1       7.318  25.154  52.478  1.00  0.00     0.001 A 
HETATM   15  H   UNL     1       4.141  26.559  55.876  1.00  0.00     0.165 HD
HETATM   16  C   UNL     1       5.887  27.749  56.019  1.00  0.00     0.102 A 
ENDBRANCH   6   7
ENDBRANCH   2   5
BRANCH   1  17
HETATM   17  C   UNL     1       8.724  30.570  58.626  1.00  0.00     0.280 C 
BRANCH  17  18
HETATM   18  O   UNL     1       8.470  31.917  59.002  1.00  0.00    -0.341 OA
BRANCH  18  19
HETATM   19  C   UNL     1       8.022  32.134  60.280  1.00  0.00     0.086 A 
HETATM   20  C   UNL     1       6.680  32.508  60.434  1.00  0.00     0.044 A 
HETATM   21  C   UNL     1       6.153  32.782  61.701  1.00  0.00     0.029 A 
HETATM   22 BR   UNL     1       5.510  32.647  58.940  1.00  0.00    -0.048 Br
HETATM   23  C   UNL     1       6.960  32.687  62.840  1.00  0.00    -0.057 A 
HETATM   24  C   UNL     1       8.302  32.321  62.687  1.00  0.00     0.010 A 
HETATM   25  C   UNL     1       8.828  32.046  61.419  1.00  0.00     0.039 A 
BRANCH  23  26
HETATM   26  C   UNL     1       6.408  33.016  64.203  1.00  0.00     0.034 C 
HETATM   27  C   UNL     1       7.401  33.808  65.040  1.00  0.00     0.010 C 
ENDBRANCH  23  26
ENDBRANCH  18  19
ENDBRANCH  17  18
ENDBRANCH   1  17
TORSDOF 6
ENDMDL
MODEL 8
REMARK VINA RESULT:      -8.3      3.656      8.757
REMARK  6 active torsions:
REMARK  status: ('A' for Active; 'I' for Inactive)
REMARK    1  A    between atoms: C_2  and  C_3 
REMARK    2  A    between atoms: C_7  and  O_8 
REMARK    3  A    between atoms: O_8  and  C_9 
REMARK    4  A    between atoms: C_9  and  C_10 
REMARK       I    between atoms: C_10  and  N_11 
REMARK    5  A    between atoms: N_11  and  N_12 
REMARK    6  A    between atoms: C_13  and  C_14 
ROOT
HETATM    1  C   UNL     1       5.934  30.397  56.523  1.00  0.00     0.261 C 
HETATM    2  N   UNL     1       6.123  29.195  55.883  1.00  0.00    -0.246 N 
HETATM    3  O   UNL     1       5.467  31.357  55.904  1.00  0.00    -0.269 OA
HETATM    4  H   UNL     1       5.817  29.147  54.916  1.00  0.00     0.192 HD
ENDROOT
BRANCH   2   5
HETATM    5  N   UNL     1       6.642  28.104  56.508  1.00  0.00    -0.184 NA
HETATM    6  C   UNL     1       6.973  27.126  55.728  1.00  0.00     0.152 C 
BRANCH   6   7
HETATM    7  C   UNL     1       7.505  25.906  56.295  1.00  0.00     0.011 A 
HETATM    8  C   UNL     1       7.684  24.647  55.634  1.00  0.00     0.004 A 
HETATM    9  C   UNL     1       8.212  23.756  56.570  1.00  0.00     0.043 A 
HETATM   10  C   UNL     1       7.449  24.178  54.323  1.00  0.00     0.014 A 
HETATM   11  C   UNL     1       8.515  22.424  56.264  1.00  0.00     0.030 A 
HETATM   12  N   UNL     1       8.347  24.445  57.754  1.00  0.00    -0.364 N 
HETATM   13  C   UNL     1       8.273  21.988  54.959  1.00  0.00     0.002 A 
HETATM   14  C   UNL     1       7.749  22.850  54.000  1.00  0.00     0.001 A 
HETATM   15  H   UNL     1       8.700  24.045  58.613  1.00  0.00     0.165 HD
HETATM   16  C   UNL     1       7.931  25.738  57.599  1.00  0.00     0.102 A 
ENDBRANCH   6   7
ENDBRANCH   2   5
BRANCH   1  17
HETATM   17  C   UNL     1       6.361  30.497  57.984  1.00  0.00     0.280 C 
BRANCH  17  18
HETATM   18  O   UNL     1       6.797  31.817  58.279  1.00  0.00    -0.341 OA
BRANCH  18  19
HETATM   19  C   UNL     1       7.035  32.115  59.596  1.00  0.00     0.086 A 
HETATM   20  C   UNL     1       8.357  32.010  60.049  1.00  0.00     0.044 A 
HETATM   21  C   UNL     1       8.678  32.263  61.387  1.00  0.00     0.029 A 
HETATM   22 BR   UNL     1       9.774  31.535  58.873  1.00  0.00    -0.048 Br
HETATM   23  C   UNL     1       7.681  32.627  62.299  1.00  0.00    -0.057 A 
HETATM   24  C   UNL     1       6.360  32.725  61.850  1.00  0.00     0.010 A 
HETATM   25  C   UNL     1       6.039  32.472  60.510  1.00  0.00     0.039 A 
BRANCH  23  26
HETATM   26  C   UNL     1       8.015  32.866  63.749  1.00  0.00     0.034 C 
HETATM   27  C   UNL     1       6.788  33.265  64.555  1.00  0.00     0.010 C 
ENDBRANCH  23  26
ENDBRANCH  18  19
ENDBRANCH  17  18
ENDBRANCH   1  17
TORSDOF 6
ENDMDL
MODEL 9
REMARK VINA RESULT:      -8.2      3.414      6.586
REMARK  6 active torsions:
REMARK  status: ('A' for Active; 'I' for Inactive)
REMARK    1  A    between atoms: C_2  and  C_3 
REMARK    2  A    between atoms: C_7  and  O_8 
REMARK    3  A    between atoms: O_8  and  C_9 
REMARK    4  A    between atoms: C_9  and  C_10 
REMARK       I    between atoms: C_10  and  N_11 
REMARK    5  A    between atoms: N_11  and  N_12 
REMARK    6  A    between atoms: C_13  and  C_14 
ROOT
HETATM    1  C   UNL     1       6.481  28.589  55.198  1.00  0.00     0.261 C 
HETATM    2  N   UNL     1       5.961  29.057  54.015  1.00  0.00    -0.246 N 
HETATM    3  O   UNL     1       7.052  29.365  55.969  1.00  0.00    -0.269 OA
HETATM    4  H   UNL     1       6.037  30.056  53.854  1.00  0.00     0.192 HD
ENDROOT
BRANCH   2   5
HETATM    5  N   UNL     1       5.329  28.250  53.121  1.00  0.00    -0.184 NA
HETATM    6  C   UNL     1       5.681  28.411  51.886  1.00  0.00     0.152 C 
BRANCH   6   7
HETATM    7  C   UNL     1       5.046  27.624  50.851  1.00  0.00     0.011 A 
HETATM    8  C   UNL     1       4.383  28.107  49.677  1.00  0.00     0.004 A 
HETATM    9  C   UNL     1       3.913  26.995  48.976  1.00  0.00     0.043 A 
HETATM   10  C   UNL     1       4.137  29.390  49.139  1.00  0.00     0.014 A 
HETATM   11  C   UNL     1       3.210  27.099  47.769  1.00  0.00     0.030 A 
HETATM   12  N   UNL     1       4.274  25.879  49.696  1.00  0.00    -0.364 N 
HETATM   13  C   UNL     1       2.983  28.380  47.260  1.00  0.00     0.002 A 
HETATM   14  C   UNL     1       3.439  29.510  47.932  1.00  0.00     0.001 A 
HETATM   15  H   UNL     1       4.057  24.929  49.429  1.00  0.00     0.165 HD
HETATM   16  C   UNL     1       4.960  26.245  50.821  1.00  0.00     0.102 A 
ENDBRANCH   6   7
ENDBRANCH   2   5
BRANCH   1  17
HETATM   17  C   UNL     1       6.362  27.095  55.484  1.00  0.00     0.280 C 
BRANCH  17  18
HETATM   18  O   UNL     1       7.630  26.467  55.352  1.00  0.00    -0.341 OA
BRANCH  18  19
HETATM   19  C   UNL     1       7.658  25.240  54.742  1.00  0.00     0.086 A 
HETATM   20  C   UNL     1       8.165  24.166  55.487  1.00  0.00     0.044 A 
HETATM   21  C   UNL     1       8.261  22.887  54.926  1.00  0.00     0.029 A 
HETATM   22 BR   UNL     1       8.733  24.387  57.288  1.00  0.00    -0.048 Br
HETATM   23  C   UNL     1       7.850  22.658  53.608  1.00  0.00    -0.057 A 
HETATM   24  C   UNL     1       7.350  23.731  52.862  1.00  0.00     0.010 A 
HETATM   25  C   UNL     1       7.254  25.010  53.423  1.00  0.00     0.039 A 
BRANCH  23  26
HETATM   26  C   UNL     1       7.984  21.291  52.987  1.00  0.00     0.034 C 
HETATM   27  C   UNL     1       8.490  20.263  53.987  1.00  0.00     0.010 C 
ENDBRANCH  23  26
ENDBRANCH  18  19
ENDBRANCH  17  18
ENDBRANCH   1  17
TORSDOF 6
ENDMDL
MODEL 10
REMARK VINA RESULT:      -8.0      1.253      2.066
REMARK  6 active torsions:
REMARK  status: ('A' for Active; 'I' for Inactive)
REMARK    1  A    between atoms: C_2  and  C_3 
REMARK    2  A    between atoms: C_7  and  O_8 
REMARK    3  A    between atoms: O_8  and  C_9 
REMARK    4  A    between atoms: C_9  and  C_10 
REMARK       I    between atoms: C_10  and  N_11 
REMARK    5  A    between atoms: N_11  and  N_12 
REMARK    6  A    between atoms: C_13  and  C_14 
ROOT
HETATM    1  C   UNL     1       5.452  27.617  54.292  1.00  0.00     0.261 C 
HETATM    2  N   UNL     1       5.327  27.977  55.612  1.00  0.00    -0.246 N 
HETATM    3  O   UNL     1       4.445  27.352  53.629  1.00  0.00    -0.269 OA
HETATM    4  H   UNL     1       4.381  28.051  55.972  1.00  0.00     0.192 HD
ENDROOT
BRANCH   2   5
HETATM    5  N   UNL     1       6.400  28.272  56.396  1.00  0.00    -0.184 NA
HETATM    6  C   UNL     1       6.661  29.533  56.524  1.00  0.00     0.152 C 
BRANCH   6   7
HETATM    7  C   UNL     1       7.800  29.953  57.310  1.00  0.00     0.011 A 
HETATM    8  C   UNL     1       7.803  30.860  58.419  1.00  0.00     0.004 A 
HETATM    9  C   UNL     1       9.122  30.978  58.859  1.00  0.00     0.043 A 
HETATM   10  C   UNL     1       6.804  31.593  59.097  1.00  0.00     0.014 A 
HETATM   11  C   UNL     1       9.495  31.791  59.936  1.00  0.00     0.030 A 
HETATM   12  N   UNL     1       9.893  30.177  58.047  1.00  0.00    -0.364 N 
HETATM   13  C   UNL     1       8.485  32.505  60.589  1.00  0.00     0.002 A 
HETATM   14  C   UNL     1       7.159  32.408  60.178  1.00  0.00     0.001 A 
HETATM   15  H   UNL     1      10.895  30.072  58.130  1.00  0.00     0.165 HD
HETATM   16  C   UNL     1       9.109  29.553  57.118  1.00  0.00     0.102 A 
ENDBRANCH   6   7
ENDBRANCH   2   5
BRANCH   1  17
HETATM   17  C   UNL     1       6.859  27.519  53.712  1.00  0.00     0.280 C 
BRANCH  17  18
HETATM   18  O   UNL     1       7.648  26.625  54.486  1.00  0.00    -0.341 OA
BRANCH  18  19
HETATM   19  C   UNL     1       7.680  25.315  54.087  1.00  0.00     0.086 A 
HETATM   20  C   UNL     1       7.771  24.340  55.090  1.00  0.00     0.044 A 
HETATM   21  C   UNL     1       7.845  22.981  54.765  1.00  0.00     0.029 A 
HETATM   22 BR   UNL     1       7.786  24.811  56.932  1.00  0.00    -0.048 Br
HETATM   23  C   UNL     1       7.828  22.570  53.427  1.00  0.00    -0.057 A 
HETATM   24  C   UNL     1       7.744  23.542  52.425  1.00  0.00     0.010 A 
HETATM   25  C   UNL     1       7.670  24.902  52.750  1.00  0.00     0.039 A 
BRANCH  23  26
HETATM   26  C   UNL     1       7.942  21.111  53.070  1.00  0.00     0.034 C 
HETATM   27  C   UNL     1       8.363  20.267  54.263  1.00  0.00     0.010 C 
ENDBRANCH  23  26
ENDBRANCH  18  19
ENDBRANCH  17  18
ENDBRANCH   1  17
TORSDOF 6
ENDMDL
