MODEL 1
REMARK VINA RESULT:     -11.0      0.000      0.000
REMARK  6 active torsions:
REMARK  status: ('A' for Active; 'I' for Inactive)
REMARK    1  A    between atoms: C_5  and  N_6 
REMARK    2  A    between atoms: N_6  and  N_7 
REMARK       I    between atoms: N_7  and  C_8 
REMARK    3  A    between atoms: C_8  and  C_9 
REMARK    4  A    between atoms: C_9  and  N_10 
REMARK    5  A    between atoms: N_10  and  C_11 
REMARK    6  A    between atoms: C_13  and  C_14 
ROOT
HETATM    1  C   UNL     1       7.590  25.275  56.824  1.00  0.00     0.203 A 
HETATM    2  N   UNL     1       7.044  25.667  55.673  1.00  0.00    -0.217 NA
HETATM    3  C   UNL     1       7.042  24.781  54.650  1.00  0.00     0.083 A 
HETATM    4  C   UNL     1       7.619  23.503  54.748  1.00  0.00     0.023 A 
HETATM    5  C   UNL     1       8.145  23.207  56.008  1.00  0.00     0.072 A 
HETATM    6  N   UNL     1       8.130  24.071  57.026  1.00  0.00    -0.218 NA
HETATM    7  C   UNL     1       7.723  22.539  53.706  1.00  0.00     0.023 A 
HETATM    8  C   UNL     1       8.324  21.295  53.923  1.00  0.00    -0.061 A 
HETATM    9  C   UNL     1       8.411  20.274  52.828  1.00  0.00     0.048 C 
HETATM   10  C   UNL     1       8.809  21.005  55.194  1.00  0.00     0.009 A 
HETATM   11  C   UNL     1       8.721  21.960  56.212  1.00  0.00     0.033 A 
ENDROOT
BRANCH   1  12
HETATM   12  N   UNL     1       7.685  26.148  57.899  1.00  0.00    -0.252 NA
HETATM   13  H   UNL     1       7.282  25.631  58.676  1.00  0.00     0.131 HD
BRANCH  12  14
HETATM   14  C   UNL     1       7.093  27.464  57.692  1.00  0.00     0.199 C 
BRANCH  14  15
HETATM   15  C   UNL     1       8.125  28.591  57.802  1.00  0.00     0.245 C 
HETATM   16  N   UNL     1       7.717  29.626  58.634  1.00  0.00    -0.286 N 
HETATM   17  H   UNL     1       6.990  29.502  59.333  1.00  0.00     0.184 HD
HETATM   18  O   UNL     1       9.196  28.617  57.193  1.00  0.00    -0.271 OA
BRANCH  16  19
HETATM   19  N   UNL     1       8.662  30.630  58.926  1.00  0.00    -0.203 NA
HETATM   20  H   UNL     1       8.571  31.394  58.238  1.00  0.00     0.153 HD
BRANCH  19  21
HETATM   21  C   UNL     1       8.515  31.201  60.220  1.00  0.00     0.027 A 
HETATM   22  C   UNL     1       7.727  32.355  60.334  1.00  0.00     0.026 A 
HETATM   23  C   UNL     1       7.475  32.938  61.580  1.00  0.00     0.008 A 
HETATM   24  C   UNL     1       7.999  32.371  62.744  1.00  0.00    -0.062 A 
HETATM   25  C   UNL     1       7.694  32.962  64.089  1.00  0.00     0.048 C 
HETATM   26  C   UNL     1       8.755  31.198  62.643  1.00  0.00     0.008 A 
HETATM   27  C   UNL     1       9.009  30.620  61.394  1.00  0.00     0.026 A 
ENDBRANCH  19  21
ENDBRANCH  16  19
ENDBRANCH  14  15
ENDBRANCH  12  14
ENDBRANCH   1  12
BRANCH   3  28
HETATM   28  C   UNL     1       6.391  25.296  53.430  1.00  0.00    -0.006 A 
HETATM   29  C   UNL     1       6.814  26.506  52.854  1.00  0.00     0.014 A 
HETATM   30  C   UNL     1       6.208  27.007  51.699  1.00  0.00     0.001 A 
HETATM   31  C   UNL     1       5.163  26.307  51.101  1.00  0.00     0.000 A 
HETATM   32  C   UNL     1       4.716  25.114  51.664  1.00  0.00     0.001 A 
HETATM   33  C   UNL     1       5.319  24.617  52.823  1.00  0.00     0.014 A 
ENDBRANCH   3  28
TORSDOF 6
ENDMDL
MODEL 2
REMARK VINA RESULT:     -10.8      3.156      7.526
REMARK  6 active torsions:
REMARK  status: ('A' for Active; 'I' for Inactive)
REMARK    1  A    between atoms: C_5  and  N_6 
REMARK    2  A    between atoms: N_6  and  N_7 
REMARK       I    between atoms: N_7  and  C_8 
REMARK    3  A    between atoms: C_8  and  C_9 
REMARK    4  A    between atoms: C_9  and  N_10 
REMARK    5  A    between atoms: N_10  and  C_11 
REMARK    6  A    between atoms: C_13  and  C_14 
ROOT
HETATM    1  C   UNL     1       4.770  28.885  56.672  1.00  0.00     0.203 A 
HETATM    2  N   UNL     1       5.965  29.431  56.899  1.00  0.00    -0.217 NA
HETATM    3  C   UNL     1       7.023  28.592  57.010  1.00  0.00     0.083 A 
HETATM    4  C   UNL     1       6.897  27.194  56.934  1.00  0.00     0.023 A 
HETATM    5  C   UNL     1       5.598  26.748  56.679  1.00  0.00     0.072 A 
HETATM    6  N   UNL     1       4.556  27.574  56.548  1.00  0.00    -0.218 NA
HETATM    7  C   UNL     1       7.939  26.241  57.109  1.00  0.00     0.023 A 
HETATM    8  C   UNL     1       7.693  24.868  57.012  1.00  0.00    -0.061 A 
HETATM    9  C   UNL     1       8.798  23.867  57.174  1.00  0.00     0.048 C 
HETATM   10  C   UNL     1       6.399  24.445  56.722  1.00  0.00     0.009 A 
HETATM   11  C   UNL     1       5.373  25.382  56.568  1.00  0.00     0.033 A 
ENDROOT
BRANCH   1  12
HETATM   12  N   UNL     1       3.631  29.675  56.608  1.00  0.00    -0.252 NA
HETATM   13  H   UNL     1       2.871  29.007  56.500  1.00  0.00     0.131 HD
BRANCH  12  14
HETATM   14  C   UNL     1       3.649  30.722  55.594  1.00  0.00     0.199 C 
BRANCH  14  15
HETATM   15  C   UNL     1       3.910  30.167  54.190  1.00  0.00     0.245 C 
HETATM   16  N   UNL     1       5.212  29.712  54.016  1.00  0.00    -0.286 N 
HETATM   17  H   UNL     1       5.808  29.469  54.802  1.00  0.00     0.184 HD
HETATM   18  O   UNL     1       3.079  30.154  53.281  1.00  0.00    -0.271 OA
BRANCH  16  19
HETATM   19  N   UNL     1       5.503  29.037  52.813  1.00  0.00    -0.203 NA
HETATM   20  H   UNL     1       6.241  29.550  52.305  1.00  0.00     0.153 HD
BRANCH  19  21
HETATM   21  C   UNL     1       5.961  27.704  52.996  1.00  0.00     0.027 A 
HETATM   22  C   UNL     1       5.072  26.664  52.692  1.00  0.00     0.026 A 
HETATM   23  C   UNL     1       5.467  25.325  52.778  1.00  0.00     0.008 A 
HETATM   24  C   UNL     1       6.770  24.997  53.161  1.00  0.00    -0.062 A 
HETATM   25  C   UNL     1       7.216  23.566  53.211  1.00  0.00     0.048 C 
HETATM   26  C   UNL     1       7.675  26.029  53.432  1.00  0.00     0.008 A 
HETATM   27  C   UNL     1       7.274  27.368  53.349  1.00  0.00     0.026 A 
ENDBRANCH  19  21
ENDBRANCH  16  19
ENDBRANCH  14  15
ENDBRANCH  12  14
ENDBRANCH   1  12
BRANCH   3  28
HETATM   28  C   UNL     1       8.303  29.290  57.230  1.00  0.00    -0.006 A 
HETATM   29  C   UNL     1       8.543  29.976  58.433  1.00  0.00     0.014 A 
HETATM   30  C   UNL     1       9.751  30.641  58.658  1.00  0.00     0.001 A 
HETATM   31  C   UNL     1      10.740  30.637  57.678  1.00  0.00     0.000 A 
HETATM   32  C   UNL     1      10.519  29.979  56.471  1.00  0.00     0.001 A 
HETATM   33  C   UNL     1       9.308  29.319  56.245  1.00  0.00     0.014 A 
ENDBRANCH   3  28
TORSDOF 6
ENDMDL
MODEL 3
REMARK VINA RESULT:     -10.8      1.060      3.823
REMARK  6 active torsions:
REMARK  status: ('A' for Active; 'I' for Inactive)
REMARK    1  A    between atoms: C_5  and  N_6 
REMARK    2  A    between atoms: N_6  and  N_7 
REMARK       I    between atoms: N_7  and  C_8 
REMARK    3  A    between atoms: C_8  and  C_9 
REMARK    4  A    between atoms: C_9  and  N_10 
REMARK    5  A    between atoms: N_10  and  C_11 
REMARK    6  A    between atoms: C_13  and  C_14 
ROOT
HETATM    1  C   UNL     1       7.777  26.663  56.221  1.00  0.00     0.203 A 
HETATM    2  N   UNL     1       7.884  25.364  55.940  1.00  0.00    -0.217 NA
HETATM    3  C   UNL     1       7.413  24.944  54.743  1.00  0.00     0.083 A 
HETATM    4  C   UNL     1       6.794  25.807  53.822  1.00  0.00     0.023 A 
HETATM    5  C   UNL     1       6.756  27.143  54.226  1.00  0.00     0.072 A 
HETATM    6  N   UNL     1       7.239  27.566  55.398  1.00  0.00    -0.218 NA
HETATM    7  C   UNL     1       6.210  25.438  52.578  1.00  0.00     0.023 A 
HETATM    8  C   UNL     1       5.617  26.390  51.743  1.00  0.00    -0.061 A 
HETATM    9  C   UNL     1       5.023  26.000  50.421  1.00  0.00     0.048 C 
HETATM   10  C   UNL     1       5.621  27.721  52.146  1.00  0.00     0.009 A 
HETATM   11  C   UNL     1       6.179  28.079  53.376  1.00  0.00     0.033 A 
ENDROOT
BRANCH   1  12
HETATM   12  N   UNL     1       8.181  27.159  57.452  1.00  0.00    -0.252 NA
HETATM   13  H   UNL     1       8.196  26.341  58.057  1.00  0.00     0.131 HD
BRANCH  12  14
HETATM   14  C   UNL     1       7.391  28.268  57.972  1.00  0.00     0.199 C 
BRANCH  14  15
HETATM   15  C   UNL     1       8.222  29.544  58.144  1.00  0.00     0.245 C 
HETATM   16  N   UNL     1       7.470  30.630  58.577  1.00  0.00    -0.286 N 
HETATM   17  H   UNL     1       6.572  30.515  59.038  1.00  0.00     0.184 HD
HETATM   18  O   UNL     1       9.424  29.632  57.891  1.00  0.00    -0.271 OA
BRANCH  16  19
HETATM   19  N   UNL     1       8.171  31.804  58.919  1.00  0.00    -0.203 NA
HETATM   20  H   UNL     1       7.811  32.592  58.357  1.00  0.00     0.153 HD
BRANCH  19  21
HETATM   21  C   UNL     1       8.053  32.168  60.288  1.00  0.00     0.027 A 
HETATM   22  C   UNL     1       6.844  32.741  60.705  1.00  0.00     0.026 A 
HETATM   23  C   UNL     1       6.621  33.062  62.048  1.00  0.00     0.008 A 
HETATM   24  C   UNL     1       7.603  32.807  63.008  1.00  0.00    -0.062 A 
HETATM   25  C   UNL     1       7.355  33.105  64.457  1.00  0.00     0.048 C 
HETATM   26  C   UNL     1       8.799  32.202  62.606  1.00  0.00     0.008 A 
HETATM   27  C   UNL     1       9.020  31.885  61.260  1.00  0.00     0.026 A 
ENDBRANCH  19  21
ENDBRANCH  16  19
ENDBRANCH  14  15
ENDBRANCH  12  14
ENDBRANCH   1  12
BRANCH   3  28
HETATM   28  C   UNL     1       7.603  23.499  54.513  1.00  0.00    -0.006 A 
HETATM   29  C   UNL     1       7.519  22.591  55.583  1.00  0.00     0.014 A 
HETATM   30  C   UNL     1       7.695  21.219  55.382  1.00  0.00     0.001 A 
HETATM   31  C   UNL     1       7.966  20.732  54.106  1.00  0.00     0.000 A 
HETATM   32  C   UNL     1       8.073  21.615  53.034  1.00  0.00     0.001 A 
HETATM   33  C   UNL     1       7.901  22.987  53.237  1.00  0.00     0.014 A 
ENDBRANCH   3  28
TORSDOF 6
ENDMDL
MODEL 4
REMARK VINA RESULT:     -10.8      1.972      3.074
REMARK  6 active torsions:
REMARK  status: ('A' for Active; 'I' for Inactive)
REMARK    1  A    between atoms: C_5  and  N_6 
REMARK    2  A    between atoms: N_6  and  N_7 
REMARK       I    between atoms: N_7  and  C_8 
REMARK    3  A    between atoms: C_8  and  C_9 
REMARK    4  A    between atoms: C_9  and  N_10 
REMARK    5  A    between atoms: N_10  and  C_11 
REMARK    6  A    between atoms: C_13  and  C_14 
ROOT
HETATM    1  C   UNL     1       7.511  28.009  57.714  1.00  0.00     0.203 A 
HETATM    2  N   UNL     1       6.827  28.319  56.612  1.00  0.00    -0.217 NA
HETATM    3  C   UNL     1       6.751  27.379  55.641  1.00  0.00     0.083 A 
HETATM    4  C   UNL     1       7.387  26.129  55.739  1.00  0.00     0.023 A 
HETATM    5  C   UNL     1       8.058  25.920  56.946  1.00  0.00     0.072 A 
HETATM    6  N   UNL     1       8.118  26.837  57.915  1.00  0.00    -0.218 NA
HETATM    7  C   UNL     1       7.417  25.115  54.741  1.00  0.00     0.023 A 
HETATM    8  C   UNL     1       8.088  23.906  54.952  1.00  0.00    -0.061 A 
HETATM    9  C   UNL     1       8.098  22.831  53.906  1.00  0.00     0.048 C 
HETATM   10  C   UNL     1       8.720  23.703  56.175  1.00  0.00     0.009 A 
HETATM   11  C   UNL     1       8.704  24.707  57.147  1.00  0.00     0.033 A 
ENDROOT
BRANCH   1  12
HETATM   12  N   UNL     1       7.685  28.942  58.727  1.00  0.00    -0.252 NA
HETATM   13  H   UNL     1       6.902  28.777  59.355  1.00  0.00     0.131 HD
BRANCH  12  14
HETATM   14  C   UNL     1       7.814  30.326  58.289  1.00  0.00     0.199 C 
BRANCH  14  15
HETATM   15  C   UNL     1       8.290  31.250  59.415  1.00  0.00     0.245 C 
HETATM   16  N   UNL     1       8.031  30.743  60.683  1.00  0.00    -0.286 N 
HETATM   17  H   UNL     1       7.859  29.754  60.844  1.00  0.00     0.184 HD
HETATM   18  O   UNL     1       8.813  32.351  59.239  1.00  0.00    -0.271 OA
BRANCH  16  19
HETATM   19  N   UNL     1       8.574  31.442  61.780  1.00  0.00    -0.203 NA
HETATM   20  H   UNL     1       9.117  32.250  61.434  1.00  0.00     0.153 HD
BRANCH  19  21
HETATM   21  C   UNL     1       7.598  31.941  62.686  1.00  0.00     0.027 A 
HETATM   22  C   UNL     1       8.038  32.784  63.715  1.00  0.00     0.026 A 
HETATM   23  C   UNL     1       7.133  33.373  64.604  1.00  0.00     0.008 A 
HETATM   24  C   UNL     1       5.762  33.138  64.476  1.00  0.00    -0.062 A 
HETATM   25  C   UNL     1       4.781  33.802  65.396  1.00  0.00     0.048 C 
HETATM   26  C   UNL     1       5.312  32.326  63.429  1.00  0.00     0.008 A 
HETATM   27  C   UNL     1       6.220  31.736  62.543  1.00  0.00     0.026 A 
ENDBRANCH  19  21
ENDBRANCH  16  19
ENDBRANCH  14  15
ENDBRANCH  12  14
ENDBRANCH   1  12
BRANCH   3  28
HETATM   28  C   UNL     1       5.951  27.803  54.477  1.00  0.00    -0.006 A 
HETATM   29  C   UNL     1       4.548  27.860  54.559  1.00  0.00     0.014 A 
HETATM   30  C   UNL     1       3.776  28.262  53.466  1.00  0.00     0.001 A 
HETATM   31  C   UNL     1       4.393  28.607  52.267  1.00  0.00     0.000 A 
HETATM   32  C   UNL     1       5.780  28.541  52.156  1.00  0.00     0.001 A 
HETATM   33  C   UNL     1       6.551  28.134  53.249  1.00  0.00     0.014 A 
ENDBRANCH   3  28
TORSDOF 6
ENDMDL
MODEL 5
REMARK VINA RESULT:      -9.9      2.221     10.012
REMARK  6 active torsions:
REMARK  status: ('A' for Active; 'I' for Inactive)
REMARK    1  A    between atoms: C_5  and  N_6 
REMARK    2  A    between atoms: N_6  and  N_7 
REMARK       I    between atoms: N_7  and  C_8 
REMARK    3  A    between atoms: C_8  and  C_9 
REMARK    4  A    between atoms: C_9  and  N_10 
REMARK    5  A    between atoms: N_10  and  C_11 
REMARK    6  A    between atoms: C_13  and  C_14 
ROOT
HETATM    1  C   UNL     1       7.085  30.334  58.047  1.00  0.00     0.203 A 
HETATM    2  N   UNL     1       6.062  31.176  58.190  1.00  0.00    -0.217 NA
HETATM    3  C   UNL     1       6.014  31.912  59.326  1.00  0.00     0.083 A 
HETATM    4  C   UNL     1       6.966  31.790  60.353  1.00  0.00     0.023 A 
HETATM    5  C   UNL     1       7.994  30.887  60.077  1.00  0.00     0.072 A 
HETATM    6  N   UNL     1       8.057  30.175  58.948  1.00  0.00    -0.218 NA
HETATM    7  C   UNL     1       6.953  32.469  61.603  1.00  0.00     0.023 A 
HETATM    8  C   UNL     1       7.959  32.265  62.553  1.00  0.00    -0.061 A 
HETATM    9  C   UNL     1       7.953  32.999  63.860  1.00  0.00     0.048 C 
HETATM   10  C   UNL     1       8.994  31.388  62.244  1.00  0.00     0.009 A 
HETATM   11  C   UNL     1       8.996  30.708  61.022  1.00  0.00     0.033 A 
ENDROOT
BRANCH   1  12
HETATM   12  N   UNL     1       7.170  29.503  56.939  1.00  0.00    -0.252 NA
HETATM   13  H   UNL     1       6.727  30.035  56.193  1.00  0.00     0.131 HD
BRANCH  12  14
HETATM   14  C   UNL     1       6.623  28.163  57.116  1.00  0.00     0.199 C 
BRANCH  14  15
HETATM   15  C   UNL     1       7.716  27.117  57.360  1.00  0.00     0.245 C 
HETATM   16  N   UNL     1       7.210  25.840  57.575  1.00  0.00    -0.286 N 
HETATM   17  H   UNL     1       6.276  25.573  57.280  1.00  0.00     0.184 HD
HETATM   18  O   UNL     1       8.921  27.366  57.405  1.00  0.00    -0.271 OA
BRANCH  16  19
HETATM   19  N   UNL     1       8.140  24.783  57.648  1.00  0.00    -0.203 NA
HETATM   20  H   UNL     1       8.017  24.283  58.543  1.00  0.00     0.153 HD
BRANCH  19  21
HETATM   21  C   UNL     1       8.007  23.826  56.605  1.00  0.00     0.027 A 
HETATM   22  C   UNL     1       7.637  24.295  55.337  1.00  0.00     0.026 A 
HETATM   23  C   UNL     1       7.554  23.429  54.241  1.00  0.00     0.008 A 
HETATM   24  C   UNL     1       7.850  22.072  54.390  1.00  0.00    -0.062 A 
HETATM   25  C   UNL     1       7.808  21.145  53.211  1.00  0.00     0.048 C 
HETATM   26  C   UNL     1       8.255  21.602  55.644  1.00  0.00     0.008 A 
HETATM   27  C   UNL     1       8.333  22.471  56.739  1.00  0.00     0.026 A 
ENDBRANCH  19  21
ENDBRANCH  16  19
ENDBRANCH  14  15
ENDBRANCH  12  14
ENDBRANCH   1  12
BRANCH   3  28
HETATM   28  C   UNL     1       4.864  32.834  59.379  1.00  0.00    -0.006 A 
HETATM   29  C   UNL     1       4.778  33.917  58.487  1.00  0.00     0.014 A 
HETATM   30  C   UNL     1       3.694  34.798  58.523  1.00  0.00     0.001 A 
HETATM   31  C   UNL     1       2.679  34.616  59.458  1.00  0.00     0.000 A 
HETATM   32  C   UNL     1       2.751  33.559  60.363  1.00  0.00     0.001 A 
HETATM   33  C   UNL     1       3.838  32.682  60.330  1.00  0.00     0.014 A 
ENDBRANCH   3  28
TORSDOF 6
ENDMDL
MODEL 6
REMARK VINA RESULT:      -9.8      4.948     10.491
REMARK  6 active torsions:
REMARK  status: ('A' for Active; 'I' for Inactive)
REMARK    1  A    between atoms: C_5  and  N_6 
REMARK    2  A    between atoms: N_6  and  N_7 
REMARK       I    between atoms: N_7  and  C_8 
REMARK    3  A    between atoms: C_8  and  C_9 
REMARK    4  A    between atoms: C_9  and  N_10 
REMARK    5  A    between atoms: N_10  and  C_11 
REMARK    6  A    between atoms: C_13  and  C_14 
ROOT
HETATM    1  C   UNL     1       5.216  25.582  52.010  1.00  0.00     0.203 A 
HETATM    2  N   UNL     1       5.866  24.506  52.453  1.00  0.00    -0.217 NA
HETATM    3  C   UNL     1       6.615  24.647  53.572  1.00  0.00     0.083 A 
HETATM    4  C   UNL     1       6.757  25.874  54.244  1.00  0.00     0.023 A 
HETATM    5  C   UNL     1       6.015  26.920  53.690  1.00  0.00     0.072 A 
HETATM    6  N   UNL     1       5.258  26.779  52.599  1.00  0.00    -0.218 NA
HETATM    7  C   UNL     1       7.576  26.126  55.380  1.00  0.00     0.023 A 
HETATM    8  C   UNL     1       7.639  27.394  55.964  1.00  0.00    -0.061 A 
HETATM    9  C   UNL     1       8.486  27.651  57.175  1.00  0.00     0.048 C 
HETATM   10  C   UNL     1       6.865  28.415  55.420  1.00  0.00     0.009 A 
HETATM   11  C   UNL     1       6.074  28.170  54.294  1.00  0.00     0.033 A 
ENDROOT
BRANCH   1  12
HETATM   12  N   UNL     1       4.477  25.532  50.836  1.00  0.00    -0.252 NA
HETATM   13  H   UNL     1       4.578  24.570  50.520  1.00  0.00     0.131 HD
BRANCH  12  14
HETATM   14  C   UNL     1       4.828  26.526  49.830  1.00  0.00     0.199 C 
BRANCH  14  15
HETATM   15  C   UNL     1       4.066  26.321  48.517  1.00  0.00     0.245 C 
HETATM   16  N   UNL     1       2.692  26.206  48.697  1.00  0.00    -0.286 N 
HETATM   17  H   UNL     1       2.227  26.546  49.533  1.00  0.00     0.184 HD
HETATM   18  O   UNL     1       4.597  26.224  47.411  1.00  0.00    -0.271 OA
BRANCH  16  19
HETATM   19  N   UNL     1       1.891  26.176  47.537  1.00  0.00    -0.203 NA
HETATM   20  H   UNL     1       1.147  25.471  47.655  1.00  0.00     0.153 HD
BRANCH  19  21
HETATM   21  C   UNL     1       1.261  27.415  47.240  1.00  0.00     0.027 A 
HETATM   22  C   UNL     1       0.287  27.423  46.232  1.00  0.00     0.026 A 
HETATM   23  C   UNL     1      -0.430  28.585  45.928  1.00  0.00     0.008 A 
HETATM   24  C   UNL     1      -0.194  29.766  46.637  1.00  0.00    -0.062 A 
HETATM   25  C   UNL     1      -0.991  31.004  46.349  1.00  0.00     0.048 C 
HETATM   26  C   UNL     1       0.750  29.757  47.669  1.00  0.00     0.008 A 
HETATM   27  C   UNL     1       1.468  28.594  47.968  1.00  0.00     0.026 A 
ENDBRANCH  19  21
ENDBRANCH  16  19
ENDBRANCH  14  15
ENDBRANCH  12  14
ENDBRANCH   1  12
BRANCH   3  28
HETATM   28  C   UNL     1       7.271  23.397  53.999  1.00  0.00    -0.006 A 
HETATM   29  C   UNL     1       7.940  22.588  53.064  1.00  0.00     0.014 A 
HETATM   30  C   UNL     1       8.567  21.402  53.453  1.00  0.00     0.001 A 
HETATM   31  C   UNL     1       8.529  20.999  54.786  1.00  0.00     0.000 A 
HETATM   32  C   UNL     1       7.857  21.775  55.727  1.00  0.00     0.001 A 
HETATM   33  C   UNL     1       7.226  22.959  55.335  1.00  0.00     0.014 A 
ENDBRANCH   3  28
TORSDOF 6
ENDMDL
MODEL 7
REMARK VINA RESULT:      -9.7      2.458     10.208
REMARK  6 active torsions:
REMARK  status: ('A' for Active; 'I' for Inactive)
REMARK    1  A    between atoms: C_5  and  N_6 
REMARK    2  A    between atoms: N_6  and  N_7 
REMARK       I    between atoms: N_7  and  C_8 
REMARK    3  A    between atoms: C_8  and  C_9 
REMARK    4  A    between atoms: C_9  and  N_10 
REMARK    5  A    between atoms: N_10  and  C_11 
REMARK    6  A    between atoms: C_13  and  C_14 
ROOT
HETATM    1  C   UNL     1       7.150  29.451  56.945  1.00  0.00     0.203 A 
HETATM    2  N   UNL     1       7.652  29.908  58.092  1.00  0.00    -0.217 NA
HETATM    3  C   UNL     1       7.086  31.018  58.622  1.00  0.00     0.083 A 
HETATM    4  C   UNL     1       6.035  31.710  57.996  1.00  0.00     0.023 A 
HETATM    5  C   UNL     1       5.589  31.124  56.809  1.00  0.00     0.072 A 
HETATM    6  N   UNL     1       6.131  30.017  56.294  1.00  0.00    -0.218 NA
HETATM    7  C   UNL     1       5.432  32.918  58.445  1.00  0.00     0.023 A 
HETATM    8  C   UNL     1       4.389  33.519  57.734  1.00  0.00    -0.061 A 
HETATM    9  C   UNL     1       3.741  34.780  58.223  1.00  0.00     0.048 C 
HETATM   10  C   UNL     1       3.935  32.900  56.573  1.00  0.00     0.009 A 
HETATM   11  C   UNL     1       4.540  31.723  56.124  1.00  0.00     0.033 A 
ENDROOT
BRANCH   1  12
HETATM   12  N   UNL     1       7.716  28.355  56.309  1.00  0.00    -0.252 NA
HETATM   13  H   UNL     1       6.933  27.908  55.837  1.00  0.00     0.131 HD
BRANCH  12  14
HETATM   14  C   UNL     1       8.482  27.459  57.166  1.00  0.00     0.199 C 
BRANCH  14  15
HETATM   15  C   UNL     1       7.811  26.090  57.322  1.00  0.00     0.245 C 
HETATM   16  N   UNL     1       8.704  25.030  57.212  1.00  0.00    -0.286 N 
HETATM   17  H   UNL     1       9.703  25.150  57.347  1.00  0.00     0.184 HD
HETATM   18  O   UNL     1       6.603  25.920  57.488  1.00  0.00    -0.271 OA
BRANCH  16  19
HETATM   19  N   UNL     1       8.212  23.741  57.501  1.00  0.00    -0.203 NA
HETATM   20  H   UNL     1       7.246  23.817  57.859  1.00  0.00     0.153 HD
BRANCH  19  21
HETATM   21  C   UNL     1       8.181  22.870  56.378  1.00  0.00     0.027 A 
HETATM   22  C   UNL     1       8.156  23.454  55.104  1.00  0.00     0.026 A 
HETATM   23  C   UNL     1       8.197  22.668  53.947  1.00  0.00     0.008 A 
HETATM   24  C   UNL     1       8.275  21.277  54.041  1.00  0.00    -0.062 A 
HETATM   25  C   UNL     1       8.366  20.430  52.806  1.00  0.00     0.048 C 
HETATM   26  C   UNL     1       8.337  20.688  55.308  1.00  0.00     0.008 A 
HETATM   27  C   UNL     1       8.293  21.476  56.464  1.00  0.00     0.026 A 
ENDBRANCH  19  21
ENDBRANCH  16  19
ENDBRANCH  14  15
ENDBRANCH  12  14
ENDBRANCH   1  12
BRANCH   3  28
HETATM   28  C   UNL     1       7.690  31.427  59.904  1.00  0.00    -0.006 A 
HETATM   29  C   UNL     1       6.881  31.664  61.029  1.00  0.00     0.014 A 
HETATM   30  C   UNL     1       7.437  32.051  62.250  1.00  0.00     0.001 A 
HETATM   31  C   UNL     1       8.815  32.216  62.367  1.00  0.00     0.000 A 
HETATM   32  C   UNL     1       9.635  32.005  61.261  1.00  0.00     0.001 A 
HETATM   33  C   UNL     1       9.077  31.623  60.038  1.00  0.00     0.014 A 
ENDBRANCH   3  28
TORSDOF 6
ENDMDL
MODEL 8
REMARK VINA RESULT:      -9.6      3.895      6.042
REMARK  6 active torsions:
REMARK  status: ('A' for Active; 'I' for Inactive)
REMARK    1  A    between atoms: C_5  and  N_6 
REMARK    2  A    between atoms: N_6  and  N_7 
REMARK       I    between atoms: N_7  and  C_8 
REMARK    3  A    between atoms: C_8  and  C_9 
REMARK    4  A    between atoms: C_9  and  N_10 
REMARK    5  A    between atoms: N_10  and  C_11 
REMARK    6  A    between atoms: C_13  and  C_14 
ROOT
HETATM    1  C   UNL     1       6.889  25.317  52.187  1.00  0.00     0.203 A 
HETATM    2  N   UNL     1       6.996  26.166  53.210  1.00  0.00    -0.217 NA
HETATM    3  C   UNL     1       7.355  25.653  54.410  1.00  0.00     0.083 A 
HETATM    4  C   UNL     1       7.576  24.280  54.617  1.00  0.00     0.023 A 
HETATM    5  C   UNL     1       7.447  23.499  53.467  1.00  0.00     0.072 A 
HETATM    6  N   UNL     1       7.113  24.004  52.276  1.00  0.00    -0.218 NA
HETATM    7  C   UNL     1       7.886  23.651  55.855  1.00  0.00     0.023 A 
HETATM    8  C   UNL     1       8.083  22.269  55.939  1.00  0.00    -0.061 A 
HETATM    9  C   UNL     1       8.432  21.612  57.241  1.00  0.00     0.048 C 
HETATM   10  C   UNL     1       7.985  21.513  54.775  1.00  0.00     0.009 A 
HETATM   11  C   UNL     1       7.663  22.131  53.563  1.00  0.00     0.033 A 
ENDROOT
BRANCH   1  12
HETATM   12  N   UNL     1       6.466  25.758  50.941  1.00  0.00    -0.252 NA
HETATM   13  H   UNL     1       7.043  26.575  50.756  1.00  0.00     0.131 HD
BRANCH  12  14
HETATM   14  C   UNL     1       5.035  26.003  50.815  1.00  0.00     0.199 C 
BRANCH  14  15
HETATM   15  C   UNL     1       4.682  27.485  50.977  1.00  0.00     0.245 C 
HETATM   16  N   UNL     1       3.773  27.721  52.002  1.00  0.00    -0.286 N 
HETATM   17  H   UNL     1       3.623  27.054  52.754  1.00  0.00     0.184 HD
HETATM   18  O   UNL     1       5.114  28.387  50.259  1.00  0.00    -0.271 OA
BRANCH  16  19
HETATM   19  N   UNL     1       3.510  29.065  52.334  1.00  0.00    -0.203 NA
HETATM   20  H   UNL     1       2.517  29.275  52.143  1.00  0.00     0.153 HD
BRANCH  19  21
HETATM   21  C   UNL     1       3.757  29.381  53.698  1.00  0.00     0.027 A 
HETATM   22  C   UNL     1       3.428  30.671  54.136  1.00  0.00     0.026 A 
HETATM   23  C   UNL     1       3.574  31.039  55.478  1.00  0.00     0.008 A 
HETATM   24  C   UNL     1       4.044  30.116  56.416  1.00  0.00    -0.062 A 
HETATM   25  C   UNL     1       4.159  30.488  57.864  1.00  0.00     0.048 C 
HETATM   26  C   UNL     1       4.339  28.815  55.994  1.00  0.00     0.008 A 
HETATM   27  C   UNL     1       4.196  28.452  54.650  1.00  0.00     0.026 A 
ENDBRANCH  19  21
ENDBRANCH  16  19
ENDBRANCH  14  15
ENDBRANCH  12  14
ENDBRANCH   1  12
BRANCH   3  28
HETATM   28  C   UNL     1       7.477  26.672  55.470  1.00  0.00    -0.006 A 
HETATM   29  C   UNL     1       7.116  26.369  56.794  1.00  0.00     0.014 A 
HETATM   30  C   UNL     1       7.226  27.323  57.809  1.00  0.00     0.001 A 
HETATM   31  C   UNL     1       7.693  28.601  57.516  1.00  0.00     0.000 A 
HETATM   32  C   UNL     1       8.040  28.930  56.208  1.00  0.00     0.001 A 
HETATM   33  C   UNL     1       7.925  27.977  55.192  1.00  0.00     0.014 A 
ENDBRANCH   3  28
TORSDOF 6
ENDMDL
MODEL 9
REMARK VINA RESULT:      -9.2      4.577      8.801
REMARK  6 active torsions:
REMARK  status: ('A' for Active; 'I' for Inactive)
REMARK    1  A    between atoms: C_5  and  N_6 
REMARK    2  A    between atoms: N_6  and  N_7 
REMARK       I    between atoms: N_7  and  C_8 
REMARK    3  A    between atoms: C_8  and  C_9 
REMARK    4  A    between atoms: C_9  and  N_10 
REMARK    5  A    between atoms: N_10  and  C_11 
REMARK    6  A    between atoms: C_13  and  C_14 
ROOT
HETATM    1  C   UNL     1       5.179  25.557  52.073  1.00  0.00     0.203 A 
HETATM    2  N   UNL     1       5.833  24.473  52.490  1.00  0.00    -0.217 NA
HETATM    3  C   UNL     1       6.591  24.593  53.605  1.00  0.00     0.083 A 
HETATM    4  C   UNL     1       6.739  25.806  54.300  1.00  0.00     0.023 A 
HETATM    5  C   UNL     1       5.993  26.863  53.772  1.00  0.00     0.072 A 
HETATM    6  N   UNL     1       5.226  26.743  52.684  1.00  0.00    -0.218 NA
HETATM    7  C   UNL     1       7.567  26.037  55.433  1.00  0.00     0.023 A 
HETATM    8  C   UNL     1       7.635  27.294  56.041  1.00  0.00    -0.061 A 
HETATM    9  C   UNL     1       8.492  27.528  57.250  1.00  0.00     0.048 C 
HETATM   10  C   UNL     1       6.856  28.325  55.523  1.00  0.00     0.009 A 
HETATM   11  C   UNL     1       6.056  28.101  54.398  1.00  0.00     0.033 A 
ENDROOT
BRANCH   1  12
HETATM   12  N   UNL     1       4.431  25.529  50.904  1.00  0.00    -0.252 NA
HETATM   13  H   UNL     1       4.341  24.538  50.690  1.00  0.00     0.131 HD
BRANCH  12  14
HETATM   14  C   UNL     1       4.955  26.329  49.804  1.00  0.00     0.199 C 
BRANCH  14  15
HETATM   15  C   UNL     1       4.021  27.484  49.428  1.00  0.00     0.245 C 
HETATM   16  N   UNL     1       4.056  28.533  50.340  1.00  0.00    -0.286 N 
HETATM   17  H   UNL     1       4.834  28.666  50.979  1.00  0.00     0.184 HD
HETATM   18  O   UNL     1       3.276  27.487  48.447  1.00  0.00    -0.271 OA
BRANCH  16  19
HETATM   19  N   UNL     1       3.355  29.707  49.998  1.00  0.00    -0.203 NA
HETATM   20  H   UNL     1       2.895  30.087  50.841  1.00  0.00     0.153 HD
BRANCH  19  21
HETATM   21  C   UNL     1       4.178  30.735  49.463  1.00  0.00     0.027 A 
HETATM   22  C   UNL     1       5.233  31.203  50.259  1.00  0.00     0.026 A 
HETATM   23  C   UNL     1       6.131  32.161  49.779  1.00  0.00     0.008 A 
HETATM   24  C   UNL     1       5.999  32.667  48.483  1.00  0.00    -0.062 A 
HETATM   25  C   UNL     1       6.985  33.660  47.944  1.00  0.00     0.048 C 
HETATM   26  C   UNL     1       4.971  32.178  47.669  1.00  0.00     0.008 A 
HETATM   27  C   UNL     1       4.072  31.222  48.154  1.00  0.00     0.026 A 
ENDBRANCH  19  21
ENDBRANCH  16  19
ENDBRANCH  14  15
ENDBRANCH  12  14
ENDBRANCH   1  12
BRANCH   3  28
HETATM   28  C   UNL     1       7.250  23.335  54.003  1.00  0.00    -0.006 A 
HETATM   29  C   UNL     1       7.244  22.922  55.347  1.00  0.00     0.014 A 
HETATM   30  C   UNL     1       7.862  21.732  55.740  1.00  0.00     0.001 A 
HETATM   31  C   UNL     1       8.505  20.936  54.796  1.00  0.00     0.000 A 
HETATM   32  C   UNL     1       8.539  21.334  53.462  1.00  0.00     0.001 A 
HETATM   33  C   UNL     1       7.925  22.527  53.070  1.00  0.00     0.014 A 
ENDBRANCH   3  28
TORSDOF 6
ENDMDL
MODEL 10
REMARK VINA RESULT:      -9.1      3.024      9.332
REMARK  6 active torsions:
REMARK  status: ('A' for Active; 'I' for Inactive)
REMARK    1  A    between atoms: C_5  and  N_6 
REMARK    2  A    between atoms: N_6  and  N_7 
REMARK       I    between atoms: N_7  and  C_8 
REMARK    3  A    between atoms: C_8  and  C_9 
REMARK    4  A    between atoms: C_9  and  N_10 
REMARK    5  A    between atoms: N_10  and  C_11 
REMARK    6  A    between atoms: C_13  and  C_14 
ROOT
HETATM    1  C   UNL     1       4.936  29.076  56.600  1.00  0.00     0.203 A 
HETATM    2  N   UNL     1       4.335  30.120  57.171  1.00  0.00    -0.217 NA
HETATM    3  C   UNL     1       5.102  30.947  57.921  1.00  0.00     0.083 A 
HETATM    4  C   UNL     1       6.472  30.723  58.143  1.00  0.00     0.023 A 
HETATM    5  C   UNL     1       6.985  29.606  57.479  1.00  0.00     0.072 A 
HETATM    6  N   UNL     1       6.236  28.800  56.721  1.00  0.00    -0.218 NA
HETATM    7  C   UNL     1       7.332  31.498  58.970  1.00  0.00     0.023 A 
HETATM    8  C   UNL     1       8.685  31.175  59.117  1.00  0.00    -0.061 A 
HETATM    9  C   UNL     1       9.593  32.008  59.972  1.00  0.00     0.048 C 
HETATM   10  C   UNL     1       9.185  30.080  58.419  1.00  0.00     0.009 A 
HETATM   11  C   UNL     1       8.335  29.310  57.620  1.00  0.00     0.033 A 
ENDROOT
BRANCH   1  12
HETATM   12  N   UNL     1       4.206  28.150  55.868  1.00  0.00    -0.252 NA
HETATM   13  H   UNL     1       4.651  27.260  56.076  1.00  0.00     0.131 HD
BRANCH  12  14
HETATM   14  C   UNL     1       4.083  28.433  54.443  1.00  0.00     0.199 C 
BRANCH  14  15
HETATM   15  C   UNL     1       5.057  27.603  53.600  1.00  0.00     0.245 C 
HETATM   16  N   UNL     1       4.845  26.234  53.712  1.00  0.00    -0.286 N 
HETATM   17  H   UNL     1       3.963  25.849  54.037  1.00  0.00     0.184 HD
HETATM   18  O   UNL     1       5.966  28.077  52.918  1.00  0.00    -0.271 OA
BRANCH  16  19
HETATM   19  N   UNL     1       5.583  25.395  52.852  1.00  0.00    -0.203 NA
HETATM   20  H   UNL     1       6.171  25.975  52.233  1.00  0.00     0.153 HD
BRANCH  19  21
HETATM   21  C   UNL     1       6.444  24.489  53.530  1.00  0.00     0.027 A 
HETATM   22  C   UNL     1       6.427  24.502  54.931  1.00  0.00     0.026 A 
HETATM   23  C   UNL     1       7.191  23.595  55.672  1.00  0.00     0.008 A 
HETATM   24  C   UNL     1       7.983  22.644  55.025  1.00  0.00    -0.062 A 
HETATM   25  C   UNL     1       8.769  21.637  55.811  1.00  0.00     0.048 C 
HETATM   26  C   UNL     1       7.977  22.600  53.626  1.00  0.00     0.008 A 
HETATM   27  C   UNL     1       7.215  23.512  52.887  1.00  0.00     0.026 A 
ENDBRANCH  19  21
ENDBRANCH  16  19
ENDBRANCH  14  15
ENDBRANCH  12  14
ENDBRANCH   1  12
BRANCH   3  28
HETATM   28  C   UNL     1       4.355  32.086  58.485  1.00  0.00    -0.006 A 
HETATM   29  C   UNL     1       4.307  33.315  57.803  1.00  0.00     0.014 A 
HETATM   30  C   UNL     1       3.603  34.403  58.323  1.00  0.00     0.001 A 
HETATM   31  C   UNL     1       2.938  34.285  59.541  1.00  0.00     0.000 A 
HETATM   32  C   UNL     1       2.986  33.083  60.243  1.00  0.00     0.001 A 
HETATM   33  C   UNL     1       3.695  31.997  59.724  1.00  0.00     0.014 A 
ENDBRANCH   3  28
TORSDOF 6
ENDMDL
