MODEL 1
REMARK VINA RESULT:     -11.2      0.000      0.000
REMARK  7 active torsions:
REMARK  status: ('A' for Active; 'I' for Inactive)
REMARK    1  A    between atoms: C_4  and  C_5 
REMARK    2  A    between atoms: C_5  and  C_6 
REMARK    3  A    between atoms: C_8  and  C_9 
REMARK    4  A    between atoms: C_9  and  C_10 
REMARK       I    between atoms: C_10  and  N_11 
REMARK    5  A    between atoms: N_11  and  N_12 
REMARK       I    between atoms: N_12  and  C_13 
REMARK       I    between atoms: C_13  and  N_14 
REMARK    6  A    between atoms: N_14  and  C_15 
REMARK    7  A    between atoms: C_17  and  C_18 
ROOT
HETATM    1  C   UNL     1       5.196  28.388  55.804  1.00  0.00     0.238 C 
HETATM    2  N   UNL     1       5.615  27.748  54.655  1.00  0.00    -0.266 N 
HETATM    3  O   UNL     1       4.047  28.271  56.231  1.00  0.00    -0.272 OA
HETATM    4  H   UNL     1       6.608  27.630  54.483  1.00  0.00     0.190 HD
ENDROOT
BRANCH   1   5
HETATM    5  C   UNL     1       6.176  29.360  56.446  1.00  0.00     0.139 C 
BRANCH   5   6
HETATM    6  C   UNL     1       7.067  28.854  57.580  1.00  0.00     0.185 C 
HETATM    7  N   UNL     1       7.618  29.982  58.325  1.00  0.00    -0.363 N 
HETATM    8  C   UNL     1       8.934  30.346  58.231  1.00  0.00     0.125 C 
HETATM    9  H   UNL     1       7.005  30.460  58.979  1.00  0.00     0.161 HD
HETATM   10  N   UNL     1       9.816  29.682  57.536  1.00  0.00    -0.159 NA
HETATM   11  N   UNL     1       9.430  28.484  56.989  1.00  0.00    -0.244 N 
HETATM   12  C   UNL     1       8.168  27.927  57.070  1.00  0.00     0.261 C 
HETATM   13  H   UNL     1      10.170  27.884  56.631  1.00  0.00     0.192 HD
HETATM   14  O   UNL     1       7.942  26.792  56.661  1.00  0.00    -0.269 OA
BRANCH   8  15
HETATM   15  C   UNL     1       9.387  31.615  58.945  1.00  0.00     0.118 C 
BRANCH  15  16
HETATM   16  C   UNL     1       8.897  31.688  60.369  1.00  0.00    -0.051 A 
HETATM   17  C   UNL     1       8.037  32.720  60.775  1.00  0.00     0.007 A 
HETATM   18  C   UNL     1       7.559  32.771  62.085  1.00  0.00     0.001 A 
HETATM   19  C   UNL     1       7.927  31.789  63.000  1.00  0.00     0.000 A 
HETATM   20  C   UNL     1       8.774  30.754  62.608  1.00  0.00     0.001 A 
HETATM   21  C   UNL     1       9.256  30.702  61.299  1.00  0.00     0.007 A 
ENDBRANCH  15  16
ENDBRANCH   8  15
ENDBRANCH   5   6
ENDBRANCH   1   5
BRANCH   2  22
HETATM   22  N   UNL     1       4.767  26.751  54.138  1.00  0.00    -0.249 N 
HETATM   23  C   UNL     1       5.201  25.475  53.844  1.00  0.00     0.339 C 
HETATM   24  N   UNL     1       6.294  25.056  54.568  1.00  0.00    -0.308 N 
HETATM   25  O   UNL     1       4.593  24.819  53.003  1.00  0.00    -0.245 OA
HETATM   26  H   UNL     1       6.489  25.578  55.411  1.00  0.00     0.170 HD
HETATM   27  H   UNL     1       4.008  27.096  53.548  1.00  0.00     0.192 HD
BRANCH  24  28
HETATM   28  C   UNL     1       7.019  23.857  54.405  1.00  0.00     0.037 A 
HETATM   29  C   UNL     1       7.300  22.967  55.446  1.00  0.00     0.045 A 
HETATM   30  C   UNL     1       8.017  21.779  55.210  1.00  0.00     0.050 A 
HETATM   31  C   UNL     1       8.451  21.491  53.908  1.00  0.00     0.016 A 
HETATM   32  C   UNL     1       8.169  22.368  52.863  1.00  0.00     0.003 A 
HETATM   33  C   UNL     1       7.460  23.545  53.113  1.00  0.00     0.029 A 
BRANCH  30  34
HETATM   34  C   UNL     1       8.355  20.844  56.346  1.00  0.00     0.417 C 
HETATM   35  F   UNL     1       7.512  19.780  56.451  1.00  0.00    -0.166 F 
HETATM   36  F   UNL     1       9.606  20.313  56.232  1.00  0.00    -0.166 F 
HETATM   37  F   UNL     1       8.328  21.469  57.556  1.00  0.00    -0.166 F 
ENDBRANCH  30  34
ENDBRANCH  24  28
ENDBRANCH   2  22
TORSDOF 7
ENDMDL
MODEL 2
REMARK VINA RESULT:     -11.0      1.426      2.025
REMARK  7 active torsions:
REMARK  status: ('A' for Active; 'I' for Inactive)
REMARK    1  A    between atoms: C_4  and  C_5 
REMARK    2  A    between atoms: C_5  and  C_6 
REMARK    3  A    between atoms: C_8  and  C_9 
REMARK    4  A    between atoms: C_9  and  C_10 
REMARK       I    between atoms: C_10  and  N_11 
REMARK    5  A    between atoms: N_11  and  N_12 
REMARK       I    between atoms: N_12  and  C_13 
REMARK       I    between atoms: C_13  and  N_14 
REMARK    6  A    between atoms: N_14  and  C_15 
REMARK    7  A    between atoms: C_17  and  C_18 
ROOT
HETATM    1  C   UNL     1       6.608  28.782  56.349  1.00  0.00     0.238 C 
HETATM    2  N   UNL     1       6.514  28.234  55.086  1.00  0.00    -0.266 N 
HETATM    3  O   UNL     1       5.695  28.682  57.171  1.00  0.00    -0.272 OA
HETATM    4  H   UNL     1       7.358  28.082  54.544  1.00  0.00     0.190 HD
ENDROOT
BRANCH   1   5
HETATM    5  C   UNL     1       7.833  29.636  56.640  1.00  0.00     0.139 C 
BRANCH   5   6
HETATM    6  C   UNL     1       8.338  29.722  58.080  1.00  0.00     0.185 C 
HETATM    7  N   UNL     1       7.357  30.407  58.914  1.00  0.00    -0.363 N 
HETATM    8  C   UNL     1       7.557  31.678  59.382  1.00  0.00     0.125 C 
HETATM    9  H   UNL     1       6.534  29.885  59.202  1.00  0.00     0.161 HD
HETATM   10  N   UNL     1       8.658  32.351  59.188  1.00  0.00    -0.159 NA
HETATM   11  N   UNL     1       9.714  31.696  58.608  1.00  0.00    -0.244 N 
HETATM   12  C   UNL     1       9.710  30.387  58.165  1.00  0.00     0.261 C 
HETATM   13  H   UNL     1      10.619  32.159  58.649  1.00  0.00     0.192 HD
HETATM   14  O   UNL     1      10.738  29.841  57.774  1.00  0.00    -0.269 OA
BRANCH   8  15
HETATM   15  C   UNL     1       6.421  32.359  60.137  1.00  0.00     0.118 C 
BRANCH  15  16
HETATM   16  C   UNL     1       6.802  32.739  61.545  1.00  0.00    -0.051 A 
HETATM   17  C   UNL     1       6.214  33.849  62.168  1.00  0.00     0.007 A 
HETATM   18  C   UNL     1       6.543  34.184  63.483  1.00  0.00     0.001 A 
HETATM   19  C   UNL     1       7.457  33.408  64.191  1.00  0.00     0.000 A 
HETATM   20  C   UNL     1       8.043  32.297  63.586  1.00  0.00     0.001 A 
HETATM   21  C   UNL     1       7.717  31.962  62.271  1.00  0.00     0.007 A 
ENDBRANCH  15  16
ENDBRANCH   8  15
ENDBRANCH   5   6
ENDBRANCH   1   5
BRANCH   2  22
HETATM   22  N   UNL     1       5.454  27.335  54.860  1.00  0.00    -0.249 N 
HETATM   23  C   UNL     1       5.651  26.011  54.529  1.00  0.00     0.339 C 
HETATM   24  N   UNL     1       6.845  25.479  54.963  1.00  0.00    -0.308 N 
HETATM   25  O   UNL     1       4.774  25.416  53.911  1.00  0.00    -0.245 OA
HETATM   26  H   UNL     1       7.312  25.990  55.698  1.00  0.00     0.170 HD
HETATM   27  H   UNL     1       4.608  27.757  54.472  1.00  0.00     0.192 HD
BRANCH  24  28
HETATM   28  C   UNL     1       7.363  24.198  54.678  1.00  0.00     0.037 A 
HETATM   29  C   UNL     1       7.511  23.186  55.631  1.00  0.00     0.045 A 
HETATM   30  C   UNL     1       8.023  21.924  55.275  1.00  0.00     0.050 A 
HETATM   31  C   UNL     1       8.387  21.687  53.942  1.00  0.00     0.016 A 
HETATM   32  C   UNL     1       8.236  22.688  52.984  1.00  0.00     0.003 A 
HETATM   33  C   UNL     1       7.730  23.936  53.352  1.00  0.00     0.029 A 
BRANCH  30  34
HETATM   34  C   UNL     1       8.221  20.850  56.316  1.00  0.00     0.417 C 
HETATM   35  F   UNL     1       9.353  20.116  56.140  1.00  0.00    -0.166 F 
HETATM   36  F   UNL     1       8.304  21.356  57.580  1.00  0.00    -0.166 F 
HETATM   37  F   UNL     1       7.191  19.959  56.342  1.00  0.00    -0.166 F 
ENDBRANCH  30  34
ENDBRANCH  24  28
ENDBRANCH   2  22
TORSDOF 7
ENDMDL
MODEL 3
REMARK VINA RESULT:     -10.7      4.808     10.466
REMARK  7 active torsions:
REMARK  status: ('A' for Active; 'I' for Inactive)
REMARK    1  A    between atoms: C_4  and  C_5 
REMARK    2  A    between atoms: C_5  and  C_6 
REMARK    3  A    between atoms: C_8  and  C_9 
REMARK    4  A    between atoms: C_9  and  C_10 
REMARK       I    between atoms: C_10  and  N_11 
REMARK    5  A    between atoms: N_11  and  N_12 
REMARK       I    between atoms: N_12  and  C_13 
REMARK       I    between atoms: C_13  and  N_14 
REMARK    6  A    between atoms: N_14  and  C_15 
REMARK    7  A    between atoms: C_17  and  C_18 
ROOT
HETATM    1  C   UNL     1       8.673  29.213  55.766  1.00  0.00     0.238 C 
HETATM    2  N   UNL     1       8.504  29.710  57.042  1.00  0.00    -0.266 N 
HETATM    3  O   UNL     1       9.645  29.517  55.073  1.00  0.00    -0.272 OA
HETATM    4  H   UNL     1       7.871  29.240  57.681  1.00  0.00     0.190 HD
ENDROOT
BRANCH   1   5
HETATM    5  C   UNL     1       7.535  28.380  55.194  1.00  0.00     0.139 C 
BRANCH   5   6
HETATM    6  C   UNL     1       7.252  27.010  55.811  1.00  0.00     0.185 C 
HETATM    7  N   UNL     1       7.688  25.954  54.905  1.00  0.00    -0.363 N 
HETATM    8  C   UNL     1       6.801  25.178  54.208  1.00  0.00     0.125 C 
HETATM    9  H   UNL     1       8.684  25.758  54.851  1.00  0.00     0.161 HD
HETATM   10  N   UNL     1       5.507  25.264  54.347  1.00  0.00    -0.159 NA
HETATM   11  N   UNL     1       5.023  26.073  55.342  1.00  0.00    -0.244 N 
HETATM   12  C   UNL     1       5.783  26.849  56.196  1.00  0.00     0.261 C 
HETATM   13  H   UNL     1       4.037  25.975  55.575  1.00  0.00     0.192 HD
HETATM   14  O   UNL     1       5.276  27.446  57.142  1.00  0.00    -0.269 OA
BRANCH   8  15
HETATM   15  C   UNL     1       7.352  24.188  53.187  1.00  0.00     0.118 C 
BRANCH  15  16
HETATM   16  C   UNL     1       7.606  22.824  53.778  1.00  0.00    -0.051 A 
HETATM   17  C   UNL     1       7.975  21.749  52.956  1.00  0.00     0.007 A 
HETATM   18  C   UNL     1       8.241  20.493  53.505  1.00  0.00     0.001 A 
HETATM   19  C   UNL     1       8.150  20.301  54.881  1.00  0.00     0.000 A 
HETATM   20  C   UNL     1       7.792  21.364  55.710  1.00  0.00     0.001 A 
HETATM   21  C   UNL     1       7.523  22.619  55.163  1.00  0.00     0.007 A 
ENDBRANCH  15  16
ENDBRANCH   8  15
ENDBRANCH   5   6
ENDBRANCH   1   5
BRANCH   2  22
HETATM   22  N   UNL     1       9.608  30.363  57.621  1.00  0.00    -0.249 N 
HETATM   23  C   UNL     1       9.499  31.194  58.717  1.00  0.00     0.339 C 
HETATM   24  N   UNL     1       8.424  30.929  59.536  1.00  0.00    -0.308 N 
HETATM   25  O   UNL     1      10.345  32.065  58.889  1.00  0.00    -0.245 OA
HETATM   26  H   UNL     1       8.005  30.017  59.430  1.00  0.00     0.170 HD
HETATM   27  H   UNL     1      10.356  30.605  56.968  1.00  0.00     0.192 HD
BRANCH  24  28
HETATM   28  C   UNL     1       7.999  31.676  60.655  1.00  0.00     0.037 A 
HETATM   29  C   UNL     1       6.926  32.572  60.633  1.00  0.00     0.045 A 
HETATM   30  C   UNL     1       6.545  33.275  61.791  1.00  0.00     0.050 A 
HETATM   31  C   UNL     1       7.258  33.069  62.980  1.00  0.00     0.016 A 
HETATM   32  C   UNL     1       8.324  32.173  63.013  1.00  0.00     0.003 A 
HETATM   33  C   UNL     1       8.693  31.484  61.856  1.00  0.00     0.029 A 
BRANCH  30  34
HETATM   34  C   UNL     1       5.413  34.273  61.749  1.00  0.00     0.417 C 
HETATM   35  F   UNL     1       5.791  35.546  62.050  1.00  0.00    -0.166 F 
HETATM   36  F   UNL     1       4.823  34.345  60.522  1.00  0.00    -0.166 F 
HETATM   37  F   UNL     1       4.415  33.959  62.621  1.00  0.00    -0.166 F 
ENDBRANCH  30  34
ENDBRANCH  24  28
ENDBRANCH   2  22
TORSDOF 7
ENDMDL
MODEL 4
REMARK VINA RESULT:     -10.3      5.322     10.550
REMARK  7 active torsions:
REMARK  status: ('A' for Active; 'I' for Inactive)
REMARK    1  A    between atoms: C_4  and  C_5 
REMARK    2  A    between atoms: C_5  and  C_6 
REMARK    3  A    between atoms: C_8  and  C_9 
REMARK    4  A    between atoms: C_9  and  C_10 
REMARK       I    between atoms: C_10  and  N_11 
REMARK    5  A    between atoms: N_11  and  N_12 
REMARK       I    between atoms: N_12  and  C_13 
REMARK       I    between atoms: C_13  and  N_14 
REMARK    6  A    between atoms: N_14  and  C_15 
REMARK    7  A    between atoms: C_17  and  C_18 
ROOT
HETATM    1  C   UNL     1       6.795  28.772  57.393  1.00  0.00     0.238 C 
HETATM    2  N   UNL     1       6.763  30.004  58.014  1.00  0.00    -0.266 N 
HETATM    3  O   UNL     1       7.825  28.326  56.885  1.00  0.00    -0.272 OA
HETATM    4  H   UNL     1       6.007  30.220  58.655  1.00  0.00     0.190 HD
ENDROOT
BRANCH   1   5
HETATM    5  C   UNL     1       5.467  28.044  57.239  1.00  0.00     0.139 C 
BRANCH   5   6
HETATM    6  C   UNL     1       4.710  28.179  55.919  1.00  0.00     0.185 C 
HETATM    7  N   UNL     1       4.648  26.888  55.242  1.00  0.00    -0.363 N 
HETATM    8  C   UNL     1       5.386  26.615  54.122  1.00  0.00     0.125 C 
HETATM    9  H   UNL     1       3.982  26.204  55.589  1.00  0.00     0.161 HD
HETATM   10  N   UNL     1       6.142  27.496  53.526  1.00  0.00    -0.159 NA
HETATM   11  N   UNL     1       6.080  28.794  53.966  1.00  0.00    -0.244 N 
HETATM   12  C   UNL     1       5.316  29.255  55.021  1.00  0.00     0.261 C 
HETATM   13  H   UNL     1       6.508  29.500  53.371  1.00  0.00     0.192 HD
HETATM   14  O   UNL     1       5.222  30.454  55.267  1.00  0.00    -0.269 OA
BRANCH   8  15
HETATM   15  C   UNL     1       5.354  25.198  53.562  1.00  0.00     0.118 C 
BRANCH  15  16
HETATM   16  C   UNL     1       6.550  24.379  53.980  1.00  0.00    -0.051 A 
HETATM   17  C   UNL     1       6.929  24.309  55.329  1.00  0.00     0.007 A 
HETATM   18  C   UNL     1       8.017  23.527  55.721  1.00  0.00     0.001 A 
HETATM   19  C   UNL     1       8.731  22.801  54.771  1.00  0.00     0.000 A 
HETATM   20  C   UNL     1       8.360  22.856  53.429  1.00  0.00     0.001 A 
HETATM   21  C   UNL     1       7.274  23.639  53.034  1.00  0.00     0.007 A 
ENDBRANCH  15  16
ENDBRANCH   8  15
ENDBRANCH   5   6
ENDBRANCH   1   5
BRANCH   2  22
HETATM   22  N   UNL     1       8.003  30.614  58.279  1.00  0.00    -0.249 N 
HETATM   23  C   UNL     1       8.196  31.503  59.316  1.00  0.00     0.339 C 
HETATM   24  N   UNL     1       7.334  31.346  60.378  1.00  0.00    -0.308 N 
HETATM   25  O   UNL     1       9.101  32.327  59.233  1.00  0.00    -0.245 OA
HETATM   26  H   UNL     1       6.857  30.457  60.429  1.00  0.00     0.170 HD
HETATM   27  H   UNL     1       8.587  30.778  57.456  1.00  0.00     0.192 HD
BRANCH  24  28
HETATM   28  C   UNL     1       7.221  32.172  61.516  1.00  0.00     0.037 A 
HETATM   29  C   UNL     1       6.330  33.243  61.618  1.00  0.00     0.045 A 
HETATM   30  C   UNL     1       6.259  34.019  62.790  1.00  0.00     0.050 A 
HETATM   31  C   UNL     1       7.099  33.705  63.868  1.00  0.00     0.016 A 
HETATM   32  C   UNL     1       7.986  32.634  63.778  1.00  0.00     0.003 A 
HETATM   33  C   UNL     1       8.047  31.875  62.608  1.00  0.00     0.029 A 
BRANCH  30  34
HETATM   34  C   UNL     1       5.326  35.202  62.877  1.00  0.00     0.417 C 
HETATM   35  F   UNL     1       4.143  34.924  63.492  1.00  0.00    -0.166 F 
HETATM   36  F   UNL     1       5.865  36.245  63.571  1.00  0.00    -0.166 F 
HETATM   37  F   UNL     1       5.006  35.700  61.650  1.00  0.00    -0.166 F 
ENDBRANCH  30  34
ENDBRANCH  24  28
ENDBRANCH   2  22
TORSDOF 7
ENDMDL
MODEL 5
REMARK VINA RESULT:     -10.2      2.057      2.770
REMARK  7 active torsions:
REMARK  status: ('A' for Active; 'I' for Inactive)
REMARK    1  A    between atoms: C_4  and  C_5 
REMARK    2  A    between atoms: C_5  and  C_6 
REMARK    3  A    between atoms: C_8  and  C_9 
REMARK    4  A    between atoms: C_9  and  C_10 
REMARK       I    between atoms: C_10  and  N_11 
REMARK    5  A    between atoms: N_11  and  N_12 
REMARK       I    between atoms: N_12  and  C_13 
REMARK       I    between atoms: C_13  and  N_14 
REMARK    6  A    between atoms: N_14  and  C_15 
REMARK    7  A    between atoms: C_17  and  C_18 
ROOT
HETATM    1  C   UNL     1       6.824  28.749  57.177  1.00  0.00     0.238 C 
HETATM    2  N   UNL     1       7.265  27.547  57.694  1.00  0.00    -0.266 N 
HETATM    3  O   UNL     1       5.760  28.842  56.565  1.00  0.00    -0.272 OA
HETATM    4  H   UNL     1       7.976  27.545  58.417  1.00  0.00     0.190 HD
ENDROOT
BRANCH   1   5
HETATM    5  C   UNL     1       7.778  29.931  57.274  1.00  0.00     0.139 C 
BRANCH   5   6
HETATM    6  C   UNL     1       9.068  29.764  58.078  1.00  0.00     0.185 C 
HETATM    7  N   UNL     1       8.870  30.236  59.444  1.00  0.00    -0.363 N 
HETATM    8  C   UNL     1       9.422  31.403  59.899  1.00  0.00     0.125 C 
HETATM    9  H   UNL     1       8.358  29.635  60.082  1.00  0.00     0.161 HD
HETATM   10  N   UNL     1      10.222  32.147  59.186  1.00  0.00    -0.159 NA
HETATM   11  N   UNL     1      10.638  31.660  57.974  1.00  0.00    -0.244 N 
HETATM   12  C   UNL     1      10.251  30.459  57.409  1.00  0.00     0.261 C 
HETATM   13  H   UNL     1      11.412  32.144  57.525  1.00  0.00     0.192 HD
HETATM   14  O   UNL     1      10.770  30.040  56.378  1.00  0.00    -0.269 OA
BRANCH   8  15
HETATM   15  C   UNL     1       9.053  31.880  61.300  1.00  0.00     0.118 C 
BRANCH  15  16
HETATM   16  C   UNL     1       7.693  32.530  61.354  1.00  0.00    -0.051 A 
HETATM   17  C   UNL     1       6.810  32.428  60.270  1.00  0.00     0.007 A 
HETATM   18  C   UNL     1       5.539  33.003  60.332  1.00  0.00     0.001 A 
HETATM   19  C   UNL     1       5.136  33.678  61.481  1.00  0.00     0.000 A 
HETATM   20  C   UNL     1       6.001  33.780  62.569  1.00  0.00     0.001 A 
HETATM   21  C   UNL     1       7.273  33.208  62.508  1.00  0.00     0.007 A 
ENDBRANCH  15  16
ENDBRANCH   8  15
ENDBRANCH   5   6
ENDBRANCH   1   5
BRANCH   2  22
HETATM   22  N   UNL     1       6.335  26.491  57.728  1.00  0.00    -0.249 N 
HETATM   23  C   UNL     1       6.245  25.537  56.736  1.00  0.00     0.339 C 
HETATM   24  N   UNL     1       7.410  25.327  56.031  1.00  0.00    -0.308 N 
HETATM   25  O   UNL     1       5.181  24.951  56.568  1.00  0.00    -0.245 OA
HETATM   26  H   UNL     1       8.256  25.658  56.473  1.00  0.00     0.170 HD
HETATM   27  H   UNL     1       5.454  26.708  58.199  1.00  0.00     0.192 HD
BRANCH  24  28
HETATM   28  C   UNL     1       7.586  24.505  54.899  1.00  0.00     0.037 A 
HETATM   29  C   UNL     1       7.660  23.110  54.951  1.00  0.00     0.045 A 
HETATM   30  C   UNL     1       7.823  22.348  53.779  1.00  0.00     0.050 A 
HETATM   31  C   UNL     1       7.911  23.006  52.545  1.00  0.00     0.016 A 
HETATM   32  C   UNL     1       7.832  24.395  52.482  1.00  0.00     0.003 A 
HETATM   33  C   UNL     1       7.673  25.138  53.653  1.00  0.00     0.029 A 
BRANCH  30  34
HETATM   34  C   UNL     1       7.945  20.845  53.848  1.00  0.00     0.417 C 
HETATM   35  F   UNL     1       7.417  20.301  54.979  1.00  0.00    -0.166 F 
HETATM   36  F   UNL     1       7.315  20.221  52.811  1.00  0.00    -0.166 F 
HETATM   37  F   UNL     1       9.240  20.428  53.797  1.00  0.00    -0.166 F 
ENDBRANCH  30  34
ENDBRANCH  24  28
ENDBRANCH   2  22
TORSDOF 7
ENDMDL
MODEL 6
REMARK VINA RESULT:     -10.2      2.141      2.930
REMARK  7 active torsions:
REMARK  status: ('A' for Active; 'I' for Inactive)
REMARK    1  A    between atoms: C_4  and  C_5 
REMARK    2  A    between atoms: C_5  and  C_6 
REMARK    3  A    between atoms: C_8  and  C_9 
REMARK    4  A    between atoms: C_9  and  C_10 
REMARK       I    between atoms: C_10  and  N_11 
REMARK    5  A    between atoms: N_11  and  N_12 
REMARK       I    between atoms: N_12  and  C_13 
REMARK       I    between atoms: C_13  and  N_14 
REMARK    6  A    between atoms: N_14  and  C_15 
REMARK    7  A    between atoms: C_17  and  C_18 
ROOT
HETATM    1  C   UNL     1       7.950  28.439  55.510  1.00  0.00     0.238 C 
HETATM    2  N   UNL     1       7.453  27.588  56.476  1.00  0.00    -0.266 N 
HETATM    3  O   UNL     1       7.568  28.389  54.340  1.00  0.00    -0.272 OA
HETATM    4  H   UNL     1       7.563  27.826  57.455  1.00  0.00     0.190 HD
ENDROOT
BRANCH   1   5
HETATM    5  C   UNL     1       9.096  29.353  55.921  1.00  0.00     0.139 C 
BRANCH   5   6
HETATM    6  C   UNL     1       9.470  29.434  57.401  1.00  0.00     0.185 C 
HETATM    7  N   UNL     1       8.358  29.983  58.169  1.00  0.00    -0.363 N 
HETATM    8  C   UNL     1       8.386  31.249  58.690  1.00  0.00     0.125 C 
HETATM    9  H   UNL     1       7.573  29.371  58.369  1.00  0.00     0.161 HD
HETATM   10  N   UNL     1       9.423  32.036  58.610  1.00  0.00    -0.159 NA
HETATM   11  N   UNL     1      10.585  31.514  58.103  1.00  0.00    -0.244 N 
HETATM   12  C   UNL     1      10.753  30.230  57.623  1.00  0.00     0.261 C 
HETATM   13  H   UNL     1      11.431  32.064  58.235  1.00  0.00     0.192 HD
HETATM   14  O   UNL     1      11.860  29.805  57.304  1.00  0.00    -0.269 OA
BRANCH   8  15
HETATM   15  C   UNL     1       7.127  31.782  59.365  1.00  0.00     0.118 C 
BRANCH  15  16
HETATM   16  C   UNL     1       7.326  32.057  60.834  1.00  0.00    -0.051 A 
HETATM   17  C   UNL     1       8.595  31.930  61.418  1.00  0.00     0.007 A 
HETATM   18  C   UNL     1       8.785  32.214  62.772  1.00  0.00     0.001 A 
HETATM   19  C   UNL     1       7.713  32.636  63.552  1.00  0.00     0.000 A 
HETATM   20  C   UNL     1       6.448  32.775  62.982  1.00  0.00     0.001 A 
HETATM   21  C   UNL     1       6.255  32.488  61.630  1.00  0.00     0.007 A 
ENDBRANCH  15  16
ENDBRANCH   8  15
ENDBRANCH   5   6
ENDBRANCH   1   5
BRANCH   2  22
HETATM   22  N   UNL     1       6.308  26.843  56.137  1.00  0.00    -0.249 N 
HETATM   23  C   UNL     1       6.358  25.510  55.782  1.00  0.00     0.339 C 
HETATM   24  N   UNL     1       7.431  24.817  56.295  1.00  0.00    -0.308 N 
HETATM   25  O   UNL     1       5.466  25.049  55.077  1.00  0.00    -0.245 OA
HETATM   26  H   UNL     1       7.897  25.247  57.081  1.00  0.00     0.170 HD
HETATM   27  H   UNL     1       5.560  27.380  55.695  1.00  0.00     0.192 HD
BRANCH  24  28
HETATM   28  C   UNL     1       7.800  23.484  56.014  1.00  0.00     0.037 A 
HETATM   29  C   UNL     1       7.833  22.939  54.727  1.00  0.00     0.045 A 
HETATM   30  C   UNL     1       8.225  21.604  54.515  1.00  0.00     0.050 A 
HETATM   31  C   UNL     1       8.587  20.816  55.617  1.00  0.00     0.016 A 
HETATM   32  C   UNL     1       8.564  21.353  56.903  1.00  0.00     0.003 A 
HETATM   33  C   UNL     1       8.169  22.678  57.098  1.00  0.00     0.029 A 
BRANCH  30  34
HETATM   34  C   UNL     1       8.217  21.009  53.128  1.00  0.00     0.417 C 
HETATM   35  F   UNL     1       9.269  20.181  52.879  1.00  0.00    -0.166 F 
HETATM   36  F   UNL     1       7.100  20.267  52.883  1.00  0.00    -0.166 F 
HETATM   37  F   UNL     1       8.248  21.963  52.156  1.00  0.00    -0.166 F 
ENDBRANCH  30  34
ENDBRANCH  24  28
ENDBRANCH   2  22
TORSDOF 7
ENDMDL
MODEL 7
REMARK VINA RESULT:      -9.8      6.743     10.066
REMARK  7 active torsions:
REMARK  status: ('A' for Active; 'I' for Inactive)
REMARK    1  A    between atoms: C_4  and  C_5 
REMARK    2  A    between atoms: C_5  and  C_6 
REMARK    3  A    between atoms: C_8  and  C_9 
REMARK    4  A    between atoms: C_9  and  C_10 
REMARK       I    between atoms: C_10  and  N_11 
REMARK    5  A    between atoms: N_11  and  N_12 
REMARK       I    between atoms: N_12  and  C_13 
REMARK       I    between atoms: C_13  and  N_14 
REMARK    6  A    between atoms: N_14  and  C_15 
REMARK    7  A    between atoms: C_17  and  C_18 
ROOT
HETATM    1  C   UNL     1       5.576  25.970  51.905  1.00  0.00     0.238 C 
HETATM    2  N   UNL     1       4.716  26.239  50.860  1.00  0.00    -0.266 N 
HETATM    3  O   UNL     1       6.733  25.590  51.715  1.00  0.00    -0.272 OA
HETATM    4  H   UNL     1       3.891  26.806  51.024  1.00  0.00     0.190 HD
ENDROOT
BRANCH   1   5
HETATM    5  C   UNL     1       4.992  26.028  53.309  1.00  0.00     0.139 C 
BRANCH   5   6
HETATM    6  C   UNL     1       5.845  26.619  54.431  1.00  0.00     0.185 C 
HETATM    7  N   UNL     1       6.878  25.668  54.829  1.00  0.00    -0.363 N 
HETATM    8  C   UNL     1       6.825  24.988  56.015  1.00  0.00     0.125 C 
HETATM    9  H   UNL     1       7.687  25.569  54.223  1.00  0.00     0.161 HD
HETATM   10  N   UNL     1       5.900  25.181  56.914  1.00  0.00    -0.159 NA
HETATM   11  N   UNL     1       5.022  26.217  56.717  1.00  0.00    -0.244 N 
HETATM   12  C   UNL     1       4.998  27.059  55.622  1.00  0.00     0.261 C 
HETATM   13  H   UNL     1       4.445  26.486  57.511  1.00  0.00     0.192 HD
HETATM   14  O   UNL     1       4.260  28.040  55.585  1.00  0.00    -0.269 OA
BRANCH   8  15
HETATM   15  C   UNL     1       7.879  23.920  56.285  1.00  0.00     0.118 C 
BRANCH  15  16
HETATM   16  C   UNL     1       7.863  22.813  55.260  1.00  0.00    -0.051 A 
HETATM   17  C   UNL     1       7.939  23.108  53.891  1.00  0.00     0.007 A 
HETATM   18  C   UNL     1       7.955  22.083  52.944  1.00  0.00     0.001 A 
HETATM   19  C   UNL     1       7.904  20.754  53.355  1.00  0.00     0.000 A 
HETATM   20  C   UNL     1       7.835  20.447  54.713  1.00  0.00     0.001 A 
HETATM   21  C   UNL     1       7.816  21.471  55.662  1.00  0.00     0.007 A 
ENDBRANCH  15  16
ENDBRANCH   8  15
ENDBRANCH   5   6
ENDBRANCH   1   5
BRANCH   2  22
HETATM   22  N   UNL     1       5.285  26.320  49.574  1.00  0.00    -0.249 N 
HETATM   23  C   UNL     1       4.638  26.900  48.502  1.00  0.00     0.339 C 
HETATM   24  N   UNL     1       3.708  27.857  48.840  1.00  0.00    -0.308 N 
HETATM   25  O   UNL     1       4.939  26.549  47.366  1.00  0.00    -0.245 OA
HETATM   26  H   UNL     1       3.788  28.238  49.771  1.00  0.00     0.170 HD
HETATM   27  H   UNL     1       5.917  25.553  49.334  1.00  0.00     0.192 HD
BRANCH  24  28
HETATM   28  C   UNL     1       2.822  28.530  47.972  1.00  0.00     0.037 A 
HETATM   29  C   UNL     1       1.734  27.920  47.341  1.00  0.00     0.045 A 
HETATM   30  C   UNL     1       0.880  28.655  46.497  1.00  0.00     0.050 A 
HETATM   31  C   UNL     1       1.132  30.019  46.292  1.00  0.00     0.016 A 
HETATM   32  C   UNL     1       2.209  30.637  46.923  1.00  0.00     0.003 A 
HETATM   33  C   UNL     1       3.050  29.895  47.755  1.00  0.00     0.029 A 
BRANCH  30  34
HETATM   34  C   UNL     1      -0.266  27.981  45.784  1.00  0.00     0.417 C 
HETATM   35  F   UNL     1      -1.386  27.849  46.547  1.00  0.00    -0.166 F 
HETATM   36  F   UNL     1      -0.660  28.658  44.668  1.00  0.00    -0.166 F 
HETATM   37  F   UNL     1       0.053  26.726  45.361  1.00  0.00    -0.166 F 
ENDBRANCH  30  34
ENDBRANCH  24  28
ENDBRANCH   2  22
TORSDOF 7
ENDMDL
MODEL 8
REMARK VINA RESULT:      -9.6      5.331     10.409
REMARK  7 active torsions:
REMARK  status: ('A' for Active; 'I' for Inactive)
REMARK    1  A    between atoms: C_4  and  C_5 
REMARK    2  A    between atoms: C_5  and  C_6 
REMARK    3  A    between atoms: C_8  and  C_9 
REMARK    4  A    between atoms: C_9  and  C_10 
REMARK       I    between atoms: C_10  and  N_11 
REMARK    5  A    between atoms: N_11  and  N_12 
REMARK       I    between atoms: N_12  and  C_13 
REMARK       I    between atoms: C_13  and  N_14 
REMARK    6  A    between atoms: N_14  and  C_15 
REMARK    7  A    between atoms: C_17  and  C_18 
ROOT
HETATM    1  C   UNL     1       5.107  30.347  57.587  1.00  0.00     0.238 C 
HETATM    2  N   UNL     1       4.082  30.786  58.400  1.00  0.00    -0.266 N 
HETATM    3  O   UNL     1       5.809  31.129  56.945  1.00  0.00    -0.272 OA
HETATM    4  H   UNL     1       3.714  30.170  59.117  1.00  0.00     0.190 HD
ENDROOT
BRANCH   1   5
HETATM    5  C   UNL     1       5.246  28.842  57.407  1.00  0.00     0.139 C 
BRANCH   5   6
HETATM    6  C   UNL     1       6.451  28.308  56.633  1.00  0.00     0.185 C 
HETATM    7  N   UNL     1       6.030  27.251  55.720  1.00  0.00    -0.363 N 
HETATM    8  C   UNL     1       6.323  25.933  55.944  1.00  0.00     0.125 C 
HETATM    9  H   UNL     1       5.562  27.526  54.861  1.00  0.00     0.161 HD
HETATM   10  N   UNL     1       7.056  25.519  56.941  1.00  0.00    -0.159 NA
HETATM   11  N   UNL     1       7.677  26.465  57.715  1.00  0.00    -0.244 N 
HETATM   12  C   UNL     1       7.564  27.834  57.565  1.00  0.00     0.261 C 
HETATM   13  H   UNL     1       8.401  26.136  58.350  1.00  0.00     0.192 HD
HETATM   14  O   UNL     1       8.254  28.610  58.221  1.00  0.00    -0.269 OA
BRANCH   8  15
HETATM   15  C   UNL     1       5.730  24.889  55.004  1.00  0.00     0.118 C 
BRANCH  15  16
HETATM   16  C   UNL     1       6.759  23.909  54.498  1.00  0.00    -0.051 A 
HETATM   17  C   UNL     1       7.260  24.012  53.192  1.00  0.00     0.007 A 
HETATM   18  C   UNL     1       8.235  23.124  52.733  1.00  0.00     0.001 A 
HETATM   19  C   UNL     1       8.725  22.132  53.577  1.00  0.00     0.000 A 
HETATM   20  C   UNL     1       8.242  22.023  54.880  1.00  0.00     0.001 A 
HETATM   21  C   UNL     1       7.265  22.908  55.340  1.00  0.00     0.007 A 
ENDBRANCH  15  16
ENDBRANCH   8  15
ENDBRANCH   5   6
ENDBRANCH   1   5
BRANCH   2  22
HETATM   22  N   UNL     1       4.037  32.166  58.676  1.00  0.00    -0.249 N 
HETATM   23  C   UNL     1       4.628  32.728  59.788  1.00  0.00     0.339 C 
HETATM   24  N   UNL     1       5.694  32.020  60.295  1.00  0.00    -0.308 N 
HETATM   25  O   UNL     1       4.191  33.790  60.221  1.00  0.00    -0.245 OA
HETATM   26  H   UNL     1       6.112  31.347  59.670  1.00  0.00     0.170 HD
HETATM   27  H   UNL     1       3.197  32.644  58.344  1.00  0.00     0.192 HD
BRANCH  24  28
HETATM   28  C   UNL     1       6.413  32.290  61.479  1.00  0.00     0.037 A 
HETATM   29  C   UNL     1       5.843  32.840  62.630  1.00  0.00     0.045 A 
HETATM   30  C   UNL     1       6.616  33.071  63.783  1.00  0.00     0.050 A 
HETATM   31  C   UNL     1       7.978  32.740  63.769  1.00  0.00     0.016 A 
HETATM   32  C   UNL     1       8.554  32.184  62.628  1.00  0.00     0.003 A 
HETATM   33  C   UNL     1       7.775  31.964  61.490  1.00  0.00     0.029 A 
BRANCH  30  34
HETATM   34  C   UNL     1       6.003  33.706  65.008  1.00  0.00     0.417 C 
HETATM   35  F   UNL     1       4.800  33.175  65.358  1.00  0.00    -0.166 F 
HETATM   36  F   UNL     1       6.795  33.583  66.112  1.00  0.00    -0.166 F 
HETATM   37  F   UNL     1       5.795  35.042  64.849  1.00  0.00    -0.166 F 
ENDBRANCH  30  34
ENDBRANCH  24  28
ENDBRANCH   2  22
TORSDOF 7
ENDMDL
MODEL 9
REMARK VINA RESULT:      -9.5      5.196     10.602
REMARK  7 active torsions:
REMARK  status: ('A' for Active; 'I' for Inactive)
REMARK    1  A    between atoms: C_4  and  C_5 
REMARK    2  A    between atoms: C_5  and  C_6 
REMARK    3  A    between atoms: C_8  and  C_9 
REMARK    4  A    between atoms: C_9  and  C_10 
REMARK       I    between atoms: C_10  and  N_11 
REMARK    5  A    between atoms: N_11  and  N_12 
REMARK       I    between atoms: N_12  and  C_13 
REMARK       I    between atoms: C_13  and  N_14 
REMARK    6  A    between atoms: N_14  and  C_15 
REMARK    7  A    between atoms: C_17  and  C_18 
ROOT
HETATM    1  C   UNL     1       7.887  28.994  56.972  1.00  0.00     0.238 C 
HETATM    2  N   UNL     1       7.065  29.574  57.917  1.00  0.00    -0.266 N 
HETATM    3  O   UNL     1       8.165  29.562  55.916  1.00  0.00    -0.272 OA
HETATM    4  H   UNL     1       7.079  29.229  58.871  1.00  0.00     0.190 HD
ENDROOT
BRANCH   1   5
HETATM    5  C   UNL     1       8.324  27.558  57.229  1.00  0.00     0.139 C 
BRANCH   5   6
HETATM    6  C   UNL     1       7.286  26.559  57.738  1.00  0.00     0.185 C 
HETATM    7  N   UNL     1       7.869  25.224  57.810  1.00  0.00    -0.363 N 
HETATM    8  C   UNL     1       7.538  24.234  56.925  1.00  0.00     0.125 C 
HETATM    9  H   UNL     1       8.491  25.021  58.588  1.00  0.00     0.161 HD
HETATM   10  N   UNL     1       6.629  24.372  55.999  1.00  0.00    -0.159 NA
HETATM   11  N   UNL     1       5.875  25.518  56.008  1.00  0.00    -0.244 N 
HETATM   12  C   UNL     1       6.017  26.572  56.890  1.00  0.00     0.261 C 
HETATM   13  H   UNL     1       5.045  25.525  55.420  1.00  0.00     0.192 HD
HETATM   14  O   UNL     1       5.217  27.504  56.907  1.00  0.00    -0.269 OA
BRANCH   8  15
HETATM   15  C   UNL     1       8.295  22.913  56.999  1.00  0.00     0.118 C 
BRANCH  15  16
HETATM   16  C   UNL     1       8.330  22.186  55.678  1.00  0.00    -0.051 A 
HETATM   17  C   UNL     1       8.931  22.774  54.556  1.00  0.00     0.007 A 
HETATM   18  C   UNL     1       8.991  22.089  53.341  1.00  0.00     0.001 A 
HETATM   19  C   UNL     1       8.457  20.807  53.238  1.00  0.00     0.000 A 
HETATM   20  C   UNL     1       7.864  20.208  54.348  1.00  0.00     0.001 A 
HETATM   21  C   UNL     1       7.801  20.892  55.563  1.00  0.00     0.007 A 
ENDBRANCH  15  16
ENDBRANCH   8  15
ENDBRANCH   5   6
ENDBRANCH   1   5
BRANCH   2  22
HETATM   22  N   UNL     1       6.772  30.941  57.750  1.00  0.00    -0.249 N 
HETATM   23  C   UNL     1       6.592  31.805  58.811  1.00  0.00     0.339 C 
HETATM   24  N   UNL     1       7.238  31.437  59.970  1.00  0.00    -0.308 N 
HETATM   25  O   UNL     1       5.912  32.812  58.648  1.00  0.00    -0.245 OA
HETATM   26  H   UNL     1       7.983  30.764  59.864  1.00  0.00     0.170 HD
HETATM   27  H   UNL     1       6.231  31.166  56.913  1.00  0.00     0.192 HD
BRANCH  24  28
HETATM   28  C   UNL     1       7.146  32.059  61.233  1.00  0.00     0.037 A 
HETATM   29  C   UNL     1       6.036  32.792  61.662  1.00  0.00     0.045 A 
HETATM   30  C   UNL     1       6.004  33.375  62.943  1.00  0.00     0.050 A 
HETATM   31  C   UNL     1       7.105  33.213  63.795  1.00  0.00     0.016 A 
HETATM   32  C   UNL     1       8.213  32.477  63.378  1.00  0.00     0.003 A 
HETATM   33  C   UNL     1       8.232  31.907  62.104  1.00  0.00     0.029 A 
BRANCH  30  34
HETATM   34  C   UNL     1       4.820  34.202  63.384  1.00  0.00     0.417 C 
HETATM   35  F   UNL     1       5.152  35.450  63.815  1.00  0.00    -0.166 F 
HETATM   36  F   UNL     1       3.910  34.388  62.385  1.00  0.00    -0.166 F 
HETATM   37  F   UNL     1       4.134  33.619  64.406  1.00  0.00    -0.166 F 
ENDBRANCH  30  34
ENDBRANCH  24  28
ENDBRANCH   2  22
TORSDOF 7
ENDMDL
MODEL 10
REMARK VINA RESULT:      -9.4      4.595      8.690
REMARK  7 active torsions:
REMARK  status: ('A' for Active; 'I' for Inactive)
REMARK    1  A    between atoms: C_4  and  C_5 
REMARK    2  A    between atoms: C_5  and  C_6 
REMARK    3  A    between atoms: C_8  and  C_9 
REMARK    4  A    between atoms: C_9  and  C_10 
REMARK       I    between atoms: C_10  and  N_11 
REMARK    5  A    between atoms: N_11  and  N_12 
REMARK       I    between atoms: N_12  and  C_13 
REMARK       I    between atoms: C_13  and  N_14 
REMARK    6  A    between atoms: N_14  and  C_15 
REMARK    7  A    between atoms: C_17  and  C_18 
ROOT
HETATM    1  C   UNL     1       4.470  28.832  53.800  1.00  0.00     0.238 C 
HETATM    2  N   UNL     1       3.993  27.668  54.369  1.00  0.00    -0.266 N 
HETATM    3  O   UNL     1       4.910  29.757  54.484  1.00  0.00    -0.272 OA
HETATM    4  H   UNL     1       3.906  26.833  53.800  1.00  0.00     0.190 HD
ENDROOT
BRANCH   1   5
HETATM    5  C   UNL     1       4.303  28.981  52.295  1.00  0.00     0.139 C 
BRANCH   5   6
HETATM    6  C   UNL     1       5.484  28.631  51.391  1.00  0.00     0.185 C 
HETATM    7  N   UNL     1       5.211  29.059  50.023  1.00  0.00    -0.363 N 
HETATM    8  C   UNL     1       4.930  28.168  49.022  1.00  0.00     0.125 C 
HETATM    9  H   UNL     1       5.302  30.048  49.810  1.00  0.00     0.161 HD
HETATM   10  N   UNL     1       4.952  26.874  49.184  1.00  0.00    -0.159 NA
HETATM   11  N   UNL     1       5.419  26.387  50.378  1.00  0.00    -0.244 N 
HETATM   12  C   UNL     1       5.833  27.146  51.455  1.00  0.00     0.261 C 
HETATM   13  H   UNL     1       5.626  25.391  50.417  1.00  0.00     0.192 HD
HETATM   14  O   UNL     1       6.356  26.630  52.439  1.00  0.00    -0.269 OA
BRANCH   8  15
HETATM   15  C   UNL     1       4.530  28.717  47.657  1.00  0.00     0.118 C 
BRANCH  15  16
HETATM   16  C   UNL     1       3.085  28.447  47.321  1.00  0.00    -0.051 A 
HETATM   17  C   UNL     1       2.178  29.507  47.171  1.00  0.00     0.007 A 
HETATM   18  C   UNL     1       0.847  29.260  46.830  1.00  0.00     0.001 A 
HETATM   19  C   UNL     1       0.411  27.953  46.627  1.00  0.00     0.000 A 
HETATM   20  C   UNL     1       1.304  26.892  46.765  1.00  0.00     0.001 A 
HETATM   21  C   UNL     1       2.634  27.136  47.109  1.00  0.00     0.007 A 
ENDBRANCH  15  16
ENDBRANCH   8  15
ENDBRANCH   5   6
ENDBRANCH   1   5
BRANCH   2  22
HETATM   22  N   UNL     1       4.269  27.469  55.735  1.00  0.00    -0.249 N 
HETATM   23  C   UNL     1       5.118  26.483  56.193  1.00  0.00     0.339 C 
HETATM   24  N   UNL     1       6.082  26.088  55.292  1.00  0.00    -0.308 N 
HETATM   25  O   UNL     1       4.973  26.057  57.334  1.00  0.00    -0.245 OA
HETATM   26  H   UNL     1       6.258  26.725  54.529  1.00  0.00     0.170 HD
HETATM   27  H   UNL     1       3.504  27.709  56.368  1.00  0.00     0.192 HD
BRANCH  24  28
HETATM   28  C   UNL     1       7.006  25.032  55.439  1.00  0.00     0.037 A 
HETATM   29  C   UNL     1       7.059  23.918  54.597  1.00  0.00     0.045 A 
HETATM   30  C   UNL     1       8.017  22.906  54.792  1.00  0.00     0.050 A 
HETATM   31  C   UNL     1       8.930  23.025  55.850  1.00  0.00     0.016 A 
HETATM   32  C   UNL     1       8.890  24.136  56.690  1.00  0.00     0.003 A 
HETATM   33  C   UNL     1       7.931  25.130  56.487  1.00  0.00     0.029 A 
BRANCH  30  34
HETATM   34  C   UNL     1       8.040  21.685  53.906  1.00  0.00     0.417 C 
HETATM   35  F   UNL     1       7.474  20.583  54.472  1.00  0.00    -0.166 F 
HETATM   36  F   UNL     1       7.374  21.878  52.731  1.00  0.00    -0.166 F 
HETATM   37  F   UNL     1       9.306  21.322  53.557  1.00  0.00    -0.166 F 
ENDBRANCH  30  34
ENDBRANCH  24  28
ENDBRANCH   2  22
TORSDOF 7
ENDMDL
