MODEL 1
REMARK VINA RESULT:      -8.6      0.000      0.000
REMARK  6 active torsions:
REMARK  status: ('A' for Active; 'I' for Inactive)
REMARK    1  A    between atoms: C_8  and  N_9 
REMARK       I    between atoms: N_9  and  C_10 
REMARK    2  A    between atoms: C_10  and  C_11 
REMARK    3  A    between atoms: C_11  and  N_12 
REMARK    4  A    between atoms: N_12  and  C_13 
REMARK    5  A    between atoms: C_13  and  C_14 
REMARK    6  A    between atoms: C_15  and  C_16 
ROOT
HETATM    1  N   UNL     1       6.035  24.683  53.748  1.00  0.00     0.100 N 
HETATM    2  H   UNL     1       5.490  24.006  53.205  1.00  0.00     0.317 HD
ENDROOT
BRANCH   1   3
HETATM    3  C   UNL     1       5.679  26.021  53.234  1.00  0.00     0.372 C 
BRANCH   3   4
HETATM    4  C   UNL     1       6.303  27.156  54.062  1.00  0.00     0.250 C 
HETATM    5  N   UNL     1       5.766  27.218  55.333  1.00  0.00    -0.322 N 
HETATM    6  H   UNL     1       5.024  26.567  55.556  1.00  0.00     0.169 HD
HETATM    7  O   UNL     1       7.159  27.895  53.586  1.00  0.00    -0.271 OA
BRANCH   5   8
HETATM    8  C   UNL     1       6.107  28.089  56.355  1.00  0.00     0.085 A 
HETATM    9  C   UNL     1       5.222  29.056  56.796  1.00  0.00     0.052 A 
HETATM   10  C   UNL     1       3.848  29.425  56.380  1.00  0.00     0.072 C 
HETATM   11  N   UNL     1       5.869  29.730  57.792  1.00  0.00    -0.280 N 
HETATM   12  H   UNL     1       5.531  30.512  58.343  1.00  0.00     0.189 HD
HETATM   13  N   UNL     1       7.096  29.272  58.043  1.00  0.00    -0.177 NA
HETATM   14  C   UNL     1       7.264  28.265  57.170  1.00  0.00     0.079 A 
HETATM   15  C   UNL     1       8.551  27.527  57.201  1.00  0.00     0.075 C 
ENDBRANCH   5   8
ENDBRANCH   3   4
ENDBRANCH   1   3
BRANCH   1  16
HETATM   16  C   UNL     1       7.453  24.345  53.591  1.00  0.00     0.250 C 
HETATM   17  C   UNL     1       7.910  24.626  52.154  1.00  0.00     0.048 C 
BRANCH  16  18
HETATM   18  C   UNL     1       7.805  22.916  53.994  1.00  0.00    -0.011 A 
HETATM   19  C   UNL     1       8.102  22.493  55.314  1.00  0.00     0.056 A 
HETATM   20  C   UNL     1       8.420  21.132  55.530  1.00  0.00     0.017 A 
HETATM   21  C   UNL     1       8.422  20.205  54.487  1.00  0.00     0.001 A 
HETATM   22  C   UNL     1       8.113  20.617  53.201  1.00  0.00     0.001 A 
HETATM   23  C   UNL     1       7.809  21.955  52.958  1.00  0.00     0.010 A 
BRANCH  19  24
HETATM   24  C   UNL     1       8.160  23.418  56.519  1.00  0.00     0.418 C 
HETATM   25  F   UNL     1       7.031  24.138  56.750  1.00  0.00    -0.166 F 
HETATM   26  F   UNL     1       8.363  22.726  57.685  1.00  0.00    -0.166 F 
HETATM   27  F   UNL     1       9.199  24.300  56.462  1.00  0.00    -0.166 F 
ENDBRANCH  19  24
ENDBRANCH  16  18
ENDBRANCH   1  16
TORSDOF 6
ENDMDL
MODEL 2
REMARK VINA RESULT:      -8.5      2.323      3.762
REMARK  6 active torsions:
REMARK  status: ('A' for Active; 'I' for Inactive)
REMARK    1  A    between atoms: C_8  and  N_9 
REMARK       I    between atoms: N_9  and  C_10 
REMARK    2  A    between atoms: C_10  and  C_11 
REMARK    3  A    between atoms: C_11  and  N_12 
REMARK    4  A    between atoms: N_12  and  C_13 
REMARK    5  A    between atoms: C_13  and  C_14 
REMARK    6  A    between atoms: C_15  and  C_16 
ROOT
HETATM    1  N   UNL     1       6.111  27.306  55.590  1.00  0.00     0.100 N 
HETATM    2  H   UNL     1       5.694  28.061  55.036  1.00  0.00     0.317 HD
ENDROOT
BRANCH   1   3
HETATM    3  C   UNL     1       6.118  27.765  56.993  1.00  0.00     0.372 C 
BRANCH   3   4
HETATM    4  C   UNL     1       6.680  29.189  57.145  1.00  0.00     0.250 C 
HETATM    5  N   UNL     1       7.794  29.214  57.961  1.00  0.00    -0.322 N 
HETATM    6  H   UNL     1       8.080  28.341  58.384  1.00  0.00     0.169 HD
HETATM    7  O   UNL     1       6.144  30.146  56.596  1.00  0.00    -0.271 OA
BRANCH   5   8
HETATM    8  C   UNL     1       8.573  30.310  58.295  1.00  0.00     0.085 A 
HETATM    9  C   UNL     1       9.855  30.457  57.796  1.00  0.00     0.052 A 
HETATM   10  C   UNL     1      10.683  29.620  56.895  1.00  0.00     0.072 C 
HETATM   11  N   UNL     1      10.329  31.624  58.321  1.00  0.00    -0.280 N 
HETATM   12  H   UNL     1      11.240  32.050  58.182  1.00  0.00     0.189 HD
HETATM   13  N   UNL     1       9.458  32.254  59.110  1.00  0.00    -0.177 NA
HETATM   14  C   UNL     1       8.373  31.463  59.110  1.00  0.00     0.079 A 
HETATM   15  C   UNL     1       7.197  31.899  59.903  1.00  0.00     0.075 C 
ENDBRANCH   5   8
ENDBRANCH   3   4
ENDBRANCH   1   3
BRANCH   1  16
HETATM   16  C   UNL     1       7.448  27.040  55.047  1.00  0.00     0.250 C 
HETATM   17  C   UNL     1       7.853  28.148  54.067  1.00  0.00     0.048 C 
BRANCH  16  18
HETATM   18  C   UNL     1       7.598  25.668  54.395  1.00  0.00    -0.011 A 
HETATM   19  C   UNL     1       7.755  24.447  55.097  1.00  0.00     0.056 A 
HETATM   20  C   UNL     1       7.892  23.254  54.350  1.00  0.00     0.017 A 
HETATM   21  C   UNL     1       7.851  23.252  52.956  1.00  0.00     0.001 A 
HETATM   22  C   UNL     1       7.679  24.445  52.272  1.00  0.00     0.001 A 
HETATM   23  C   UNL     1       7.554  25.637  52.982  1.00  0.00     0.010 A 
BRANCH  19  24
HETATM   24  C   UNL     1       7.844  24.333  56.610  1.00  0.00     0.418 C 
HETATM   25  F   UNL     1       8.689  25.212  57.208  1.00  0.00    -0.166 F 
HETATM   26  F   UNL     1       6.634  24.565  57.212  1.00  0.00    -0.166 F 
HETATM   27  F   UNL     1       8.195  23.083  57.028  1.00  0.00    -0.166 F 
ENDBRANCH  19  24
ENDBRANCH  16  18
ENDBRANCH   1  16
TORSDOF 6
ENDMDL
MODEL 3
REMARK VINA RESULT:      -8.5      3.103      4.878
REMARK  6 active torsions:
REMARK  status: ('A' for Active; 'I' for Inactive)
REMARK    1  A    between atoms: C_8  and  N_9 
REMARK       I    between atoms: N_9  and  C_10 
REMARK    2  A    between atoms: C_10  and  C_11 
REMARK    3  A    between atoms: C_11  and  N_12 
REMARK    4  A    between atoms: N_12  and  C_13 
REMARK    5  A    between atoms: C_13  and  C_14 
REMARK    6  A    between atoms: C_15  and  C_16 
ROOT
HETATM    1  N   UNL     1       6.187  24.977  53.870  1.00  0.00     0.100 N 
HETATM    2  H   UNL     1       5.799  24.434  54.649  1.00  0.00     0.317 HD
ENDROOT
BRANCH   1   3
HETATM    3  C   UNL     1       5.311  24.732  52.707  1.00  0.00     0.372 C 
BRANCH   3   4
HETATM    4  C   UNL     1       4.820  26.035  52.054  1.00  0.00     0.250 C 
HETATM    5  N   UNL     1       4.916  25.985  50.677  1.00  0.00    -0.322 N 
HETATM    6  H   UNL     1       5.321  25.152  50.270  1.00  0.00     0.169 HD
HETATM    7  O   UNL     1       4.420  26.975  52.733  1.00  0.00    -0.271 OA
BRANCH   5   8
HETATM    8  C   UNL     1       4.540  26.959  49.766  1.00  0.00     0.085 A 
HETATM    9  C   UNL     1       3.750  26.650  48.673  1.00  0.00     0.052 A 
HETATM   10  C   UNL     1       3.154  25.382  48.192  1.00  0.00     0.072 C 
HETATM   11  N   UNL     1       3.577  27.822  47.995  1.00  0.00    -0.280 N 
HETATM   12  H   UNL     1       3.058  27.979  47.136  1.00  0.00     0.189 HD
HETATM   13  N   UNL     1       4.178  28.868  48.563  1.00  0.00    -0.177 NA
HETATM   14  C   UNL     1       4.778  28.360  49.651  1.00  0.00     0.079 A 
HETATM   15  C   UNL     1       5.539  29.290  50.521  1.00  0.00     0.075 C 
ENDBRANCH   5   8
ENDBRANCH   3   4
ENDBRANCH   1   3
BRANCH   1  16
HETATM   16  C   UNL     1       7.574  24.540  53.671  1.00  0.00     0.250 C 
HETATM   17  C   UNL     1       8.022  24.835  52.234  1.00  0.00     0.048 C 
BRANCH  16  18
HETATM   18  C   UNL     1       7.827  23.077  54.021  1.00  0.00    -0.011 A 
HETATM   19  C   UNL     1       8.053  22.581  55.329  1.00  0.00     0.056 A 
HETATM   20  C   UNL     1       8.282  21.196  55.494  1.00  0.00     0.017 A 
HETATM   21  C   UNL     1       8.267  20.315  54.412  1.00  0.00     0.001 A 
HETATM   22  C   UNL     1       8.027  20.800  53.136  1.00  0.00     0.001 A 
HETATM   23  C   UNL     1       7.810  22.163  52.943  1.00  0.00     0.010 A 
BRANCH  19  24
HETATM   24  C   UNL     1       8.122  23.449  56.576  1.00  0.00     0.418 C 
HETATM   25  F   UNL     1       6.984  24.128  56.872  1.00  0.00    -0.166 F 
HETATM   26  F   UNL     1       8.376  22.708  57.701  1.00  0.00    -0.166 F 
HETATM   27  F   UNL     1       9.138  24.359  56.534  1.00  0.00    -0.166 F 
ENDBRANCH  19  24
ENDBRANCH  16  18
ENDBRANCH   1  16
TORSDOF 6
ENDMDL
MODEL 4
REMARK VINA RESULT:      -8.5      1.966      3.674
REMARK  6 active torsions:
REMARK  status: ('A' for Active; 'I' for Inactive)
REMARK    1  A    between atoms: C_8  and  N_9 
REMARK       I    between atoms: N_9  and  C_10 
REMARK    2  A    between atoms: C_10  and  C_11 
REMARK    3  A    between atoms: C_11  and  N_12 
REMARK    4  A    between atoms: N_12  and  C_13 
REMARK    5  A    between atoms: C_13  and  C_14 
REMARK    6  A    between atoms: C_15  and  C_16 
ROOT
HETATM    1  N   UNL     1       6.716  24.774  57.068  1.00  0.00     0.100 N 
HETATM    2  H   UNL     1       6.172  24.777  56.199  1.00  0.00     0.317 HD
ENDROOT
BRANCH   1   3
HETATM    3  C   UNL     1       7.124  26.171  57.316  1.00  0.00     0.372 C 
BRANCH   3   4
HETATM    4  C   UNL     1       6.725  27.114  56.168  1.00  0.00     0.250 C 
HETATM    5  N   UNL     1       5.511  26.762  55.614  1.00  0.00    -0.322 N 
HETATM    6  H   UNL     1       5.057  25.933  55.978  1.00  0.00     0.169 HD
HETATM    7  O   UNL     1       7.454  28.040  55.824  1.00  0.00    -0.271 OA
BRANCH   5   8
HETATM    8  C   UNL     1       4.831  27.398  54.588  1.00  0.00     0.085 A 
HETATM    9  C   UNL     1       4.524  26.736  53.413  1.00  0.00     0.052 A 
HETATM   10  C   UNL     1       4.789  25.357  52.939  1.00  0.00     0.072 C 
HETATM   11  N   UNL     1       3.869  27.643  52.632  1.00  0.00    -0.280 N 
HETATM   12  H   UNL     1       3.499  27.515  51.695  1.00  0.00     0.189 HD
HETATM   13  N   UNL     1       3.712  28.836  53.208  1.00  0.00    -0.177 NA
HETATM   14  C   UNL     1       4.298  28.709  54.409  1.00  0.00     0.079 A 
HETATM   15  C   UNL     1       4.285  29.884  55.315  1.00  0.00     0.075 C 
ENDBRANCH   5   8
ENDBRANCH   3   4
ENDBRANCH   1   3
BRANCH   1  16
HETATM   16  C   UNL     1       7.842  23.851  56.886  1.00  0.00     0.250 C 
HETATM   17  C   UNL     1       9.160  24.542  57.254  1.00  0.00     0.048 C 
BRANCH  16  18
HETATM   18  C   UNL     1       7.930  23.238  55.492  1.00  0.00    -0.011 A 
HETATM   19  C   UNL     1       8.005  21.850  55.217  1.00  0.00     0.056 A 
HETATM   20  C   UNL     1       8.091  21.433  53.868  1.00  0.00     0.017 A 
HETATM   21  C   UNL     1       8.080  22.349  52.815  1.00  0.00     0.001 A 
HETATM   22  C   UNL     1       7.988  23.705  53.086  1.00  0.00     0.001 A 
HETATM   23  C   UNL     1       7.914  24.143  54.406  1.00  0.00     0.010 A 
BRANCH  19  24
HETATM   24  C   UNL     1       8.055  20.766  56.281  1.00  0.00     0.418 C 
HETATM   25  F   UNL     1       8.259  21.209  57.549  1.00  0.00    -0.166 F 
HETATM   26  F   UNL     1       6.879  20.065  56.354  1.00  0.00    -0.166 F 
HETATM   27  F   UNL     1       9.000  19.815  56.027  1.00  0.00    -0.166 F 
ENDBRANCH  19  24
ENDBRANCH  16  18
ENDBRANCH   1  16
TORSDOF 6
ENDMDL
MODEL 5
REMARK VINA RESULT:      -8.4      0.663      1.815
REMARK  6 active torsions:
REMARK  status: ('A' for Active; 'I' for Inactive)
REMARK    1  A    between atoms: C_8  and  N_9 
REMARK       I    between atoms: N_9  and  C_10 
REMARK    2  A    between atoms: C_10  and  C_11 
REMARK    3  A    between atoms: C_11  and  N_12 
REMARK    4  A    between atoms: N_12  and  C_13 
REMARK    5  A    between atoms: C_13  and  C_14 
REMARK    6  A    between atoms: C_15  and  C_16 
ROOT
HETATM    1  N   UNL     1       6.246  25.049  53.911  1.00  0.00     0.100 N 
HETATM    2  H   UNL     1       5.603  24.395  53.452  1.00  0.00     0.317 HD
ENDROOT
BRANCH   1   3
HETATM    3  C   UNL     1       5.972  26.381  53.338  1.00  0.00     0.372 C 
BRANCH   3   4
HETATM    4  C   UNL     1       6.571  27.520  54.180  1.00  0.00     0.250 C 
HETATM    5  N   UNL     1       5.769  27.835  55.259  1.00  0.00    -0.322 N 
HETATM    6  H   UNL     1       4.894  27.334  55.350  1.00  0.00     0.169 HD
HETATM    7  O   UNL     1       7.629  28.055  53.865  1.00  0.00    -0.271 OA
BRANCH   5   8
HETATM    8  C   UNL     1       6.006  28.783  56.242  1.00  0.00     0.085 A 
HETATM    9  C   UNL     1       6.805  28.497  57.334  1.00  0.00     0.052 A 
HETATM   10  C   UNL     1       7.541  27.279  57.749  1.00  0.00     0.072 C 
HETATM   11  N   UNL     1       6.822  29.632  58.092  1.00  0.00    -0.280 N 
HETATM   12  H   UNL     1       7.300  29.791  58.974  1.00  0.00     0.189 HD
HETATM   13  N   UNL     1       6.110  30.635  57.577  1.00  0.00    -0.177 NA
HETATM   14  C   UNL     1       5.598  30.135  56.442  1.00  0.00     0.079 A 
HETATM   15  C   UNL     1       4.748  31.025  55.612  1.00  0.00     0.075 C 
ENDBRANCH   5   8
ENDBRANCH   3   4
ENDBRANCH   1   3
BRANCH   1  16
HETATM   16  C   UNL     1       7.613  24.571  53.675  1.00  0.00     0.250 C 
HETATM   17  C   UNL     1       8.030  24.851  52.226  1.00  0.00     0.048 C 
BRANCH  16  18
HETATM   18  C   UNL     1       7.831  23.101  54.021  1.00  0.00    -0.011 A 
HETATM   19  C   UNL     1       8.056  22.598  55.326  1.00  0.00     0.056 A 
HETATM   20  C   UNL     1       8.251  21.206  55.487  1.00  0.00     0.017 A 
HETATM   21  C   UNL     1       8.203  20.328  54.404  1.00  0.00     0.001 A 
HETATM   22  C   UNL     1       7.965  20.821  53.131  1.00  0.00     0.001 A 
HETATM   23  C   UNL     1       7.782  22.189  52.942  1.00  0.00     0.010 A 
BRANCH  19  24
HETATM   24  C   UNL     1       8.158  23.461  56.573  1.00  0.00     0.418 C 
HETATM   25  F   UNL     1       9.082  24.454  56.515  1.00  0.00    -0.166 F 
HETATM   26  F   UNL     1       6.981  24.111  56.843  1.00  0.00    -0.166 F 
HETATM   27  F   UNL     1       8.410  22.737  57.701  1.00  0.00    -0.166 F 
ENDBRANCH  19  24
ENDBRANCH  16  18
ENDBRANCH   1  16
TORSDOF 6
ENDMDL
MODEL 6
REMARK VINA RESULT:      -8.4      2.931      4.284
REMARK  6 active torsions:
REMARK  status: ('A' for Active; 'I' for Inactive)
REMARK    1  A    between atoms: C_8  and  N_9 
REMARK       I    between atoms: N_9  and  C_10 
REMARK    2  A    between atoms: C_10  and  C_11 
REMARK    3  A    between atoms: C_11  and  N_12 
REMARK    4  A    between atoms: N_12  and  C_13 
REMARK    5  A    between atoms: C_13  and  C_14 
REMARK    6  A    between atoms: C_15  and  C_16 
ROOT
HETATM    1  N   UNL     1       6.905  26.871  55.852  1.00  0.00     0.100 N 
HETATM    2  H   UNL     1       7.907  26.658  55.878  1.00  0.00     0.317 HD
ENDROOT
BRANCH   1   3
HETATM    3  C   UNL     1       6.560  27.438  57.171  1.00  0.00     0.372 C 
BRANCH   3   4
HETATM    4  C   UNL     1       6.968  28.915  57.304  1.00  0.00     0.250 C 
HETATM    5  N   UNL     1       8.118  29.062  58.053  1.00  0.00    -0.322 N 
HETATM    6  H   UNL     1       8.524  28.225  58.451  1.00  0.00     0.169 HD
HETATM    7  O   UNL     1       6.297  29.808  56.796  1.00  0.00    -0.271 OA
BRANCH   5   8
HETATM    8  C   UNL     1       8.789  30.237  58.353  1.00  0.00     0.085 A 
HETATM    9  C   UNL     1      10.059  30.482  57.861  1.00  0.00     0.052 A 
HETATM   10  C   UNL     1      10.972  29.692  57.002  1.00  0.00     0.072 C 
HETATM   11  N   UNL     1      10.417  31.707  58.344  1.00  0.00    -0.280 N 
HETATM   12  H   UNL     1      11.287  32.210  58.197  1.00  0.00     0.189 HD
HETATM   13  N   UNL     1       9.480  32.284  59.099  1.00  0.00    -0.177 NA
HETATM   14  C   UNL     1       8.473  31.397  59.119  1.00  0.00     0.079 A 
HETATM   15  C   UNL     1       7.251  31.753  59.883  1.00  0.00     0.075 C 
ENDBRANCH   5   8
ENDBRANCH   3   4
ENDBRANCH   1   3
BRANCH   1  16
HETATM   16  C   UNL     1       6.193  25.628  55.536  1.00  0.00     0.250 C 
HETATM   17  C   UNL     1       5.286  25.223  56.704  1.00  0.00     0.048 C 
BRANCH  16  18
HETATM   18  C   UNL     1       7.102  24.470  55.137  1.00  0.00    -0.011 A 
HETATM   19  C   UNL     1       7.521  24.183  53.814  1.00  0.00     0.056 A 
HETATM   20  C   UNL     1       8.360  23.065  53.600  1.00  0.00     0.017 A 
HETATM   21  C   UNL     1       8.798  22.263  54.655  1.00  0.00     0.001 A 
HETATM   22  C   UNL     1       8.402  22.557  55.950  1.00  0.00     0.001 A 
HETATM   23  C   UNL     1       7.565  23.646  56.188  1.00  0.00     0.010 A 
BRANCH  19  24
HETATM   24  C   UNL     1       7.083  24.966  52.586  1.00  0.00     0.418 C 
HETATM   25  F   UNL     1       7.697  24.615  51.427  1.00  0.00    -0.166 F 
HETATM   26  F   UNL     1       5.747  24.801  52.324  1.00  0.00    -0.166 F 
HETATM   27  F   UNL     1       7.235  26.313  52.734  1.00  0.00    -0.166 F 
ENDBRANCH  19  24
ENDBRANCH  16  18
ENDBRANCH   1  16
TORSDOF 6
ENDMDL
MODEL 7
REMARK VINA RESULT:      -8.1      2.942      3.824
REMARK  6 active torsions:
REMARK  status: ('A' for Active; 'I' for Inactive)
REMARK    1  A    between atoms: C_8  and  N_9 
REMARK       I    between atoms: N_9  and  C_10 
REMARK    2  A    between atoms: C_10  and  C_11 
REMARK    3  A    between atoms: C_11  and  N_12 
REMARK    4  A    between atoms: N_12  and  C_13 
REMARK    5  A    between atoms: C_13  and  C_14 
REMARK    6  A    between atoms: C_15  and  C_16 
ROOT
HETATM    1  N   UNL     1       7.378  26.449  55.509  1.00  0.00     0.100 N 
HETATM    2  H   UNL     1       8.124  26.123  56.132  1.00  0.00     0.317 HD
ENDROOT
BRANCH   1   3
HETATM    3  C   UNL     1       6.795  27.650  56.139  1.00  0.00     0.372 C 
BRANCH   3   4
HETATM    4  C   UNL     1       7.714  28.258  57.212  1.00  0.00     0.250 C 
HETATM    5  N   UNL     1       7.817  29.629  57.080  1.00  0.00    -0.322 N 
HETATM    6  H   UNL     1       7.332  30.058  56.301  1.00  0.00     0.169 HD
HETATM    7  O   UNL     1       8.274  27.553  58.044  1.00  0.00    -0.271 OA
BRANCH   5   8
HETATM    8  C   UNL     1       8.529  30.506  57.881  1.00  0.00     0.085 A 
HETATM    9  C   UNL     1       7.883  31.372  58.746  1.00  0.00     0.052 A 
HETATM   10  C   UNL     1       6.451  31.612  59.041  1.00  0.00     0.072 C 
HETATM   11  N   UNL     1       8.868  32.082  59.369  1.00  0.00    -0.280 N 
HETATM   12  H   UNL     1       8.769  32.815  60.064  1.00  0.00     0.189 HD
HETATM   13  N   UNL     1      10.101  31.742  58.990  1.00  0.00    -0.177 NA
HETATM   14  C   UNL     1       9.916  30.777  58.075  1.00  0.00     0.079 A 
HETATM   15  C   UNL     1      11.119  30.168  57.456  1.00  0.00     0.075 C 
ENDBRANCH   5   8
ENDBRANCH   3   4
ENDBRANCH   1   3
BRANCH   1  16
HETATM   16  C   UNL     1       6.426  25.346  55.340  1.00  0.00     0.250 C 
HETATM   17  C   UNL     1       5.663  25.097  56.647  1.00  0.00     0.048 C 
BRANCH  16  18
HETATM   18  C   UNL     1       7.051  24.050  54.830  1.00  0.00    -0.011 A 
HETATM   19  C   UNL     1       7.490  23.826  53.502  1.00  0.00     0.056 A 
HETATM   20  C   UNL     1       8.043  22.566  53.178  1.00  0.00     0.017 A 
HETATM   21  C   UNL     1       8.186  21.560  54.134  1.00  0.00     0.001 A 
HETATM   22  C   UNL     1       7.773  21.788  55.438  1.00  0.00     0.001 A 
HETATM   23  C   UNL     1       7.213  23.017  55.781  1.00  0.00     0.010 A 
BRANCH  19  24
HETATM   24  C   UNL     1       7.357  24.836  52.373  1.00  0.00     0.418 C 
HETATM   25  F   UNL     1       6.095  25.279  52.138  1.00  0.00    -0.166 F 
HETATM   26  F   UNL     1       8.075  25.977  52.620  1.00  0.00    -0.166 F 
HETATM   27  F   UNL     1       7.852  24.375  51.188  1.00  0.00    -0.166 F 
ENDBRANCH  19  24
ENDBRANCH  16  18
ENDBRANCH   1  16
TORSDOF 6
ENDMDL
MODEL 8
REMARK VINA RESULT:      -8.0      2.521      3.580
REMARK  6 active torsions:
REMARK  status: ('A' for Active; 'I' for Inactive)
REMARK    1  A    between atoms: C_8  and  N_9 
REMARK       I    between atoms: N_9  and  C_10 
REMARK    2  A    between atoms: C_10  and  C_11 
REMARK    3  A    between atoms: C_11  and  N_12 
REMARK    4  A    between atoms: N_12  and  C_13 
REMARK    5  A    between atoms: C_13  and  C_14 
REMARK    6  A    between atoms: C_15  and  C_16 
ROOT
HETATM    1  N   UNL     1       5.801  24.385  52.779  1.00  0.00     0.100 N 
HETATM    2  H   UNL     1       5.842  24.669  51.795  1.00  0.00     0.317 HD
ENDROOT
BRANCH   1   3
HETATM    3  C   UNL     1       4.952  25.376  53.469  1.00  0.00     0.372 C 
BRANCH   3   4
HETATM    4  C   UNL     1       4.821  26.691  52.682  1.00  0.00     0.250 C 
HETATM    5  N   UNL     1       3.796  27.479  53.169  1.00  0.00    -0.322 N 
HETATM    6  H   UNL     1       3.241  27.103  53.927  1.00  0.00     0.169 HD
HETATM    7  O   UNL     1       5.559  26.941  51.735  1.00  0.00    -0.271 OA
BRANCH   5   8
HETATM    8  C   UNL     1       3.411  28.734  52.728  1.00  0.00     0.085 A 
HETATM    9  C   UNL     1       3.459  29.834  53.566  1.00  0.00     0.052 A 
HETATM   10  C   UNL     1       3.861  29.998  54.983  1.00  0.00     0.072 C 
HETATM   11  N   UNL     1       3.015  30.889  52.824  1.00  0.00    -0.280 N 
HETATM   12  H   UNL     1       2.906  31.857  53.112  1.00  0.00     0.189 HD
HETATM   13  N   UNL     1       2.695  30.570  51.570  1.00  0.00    -0.177 NA
HETATM   14  C   UNL     1       2.929  29.251  51.489  1.00  0.00     0.079 A 
HETATM   15  C   UNL     1       2.675  28.579  50.190  1.00  0.00     0.075 C 
ENDBRANCH   5   8
ENDBRANCH   3   4
ENDBRANCH   1   3
BRANCH   1  16
HETATM   16  C   UNL     1       7.177  24.328  53.284  1.00  0.00     0.250 C 
HETATM   17  C   UNL     1       8.157  24.821  52.213  1.00  0.00     0.048 C 
BRANCH  16  18
HETATM   18  C   UNL     1       7.597  22.956  53.804  1.00  0.00    -0.011 A 
HETATM   19  C   UNL     1       7.846  22.643  55.163  1.00  0.00     0.056 A 
HETATM   20  C   UNL     1       8.238  21.324  55.490  1.00  0.00     0.017 A 
HETATM   21  C   UNL     1       8.359  20.332  54.516  1.00  0.00     0.001 A 
HETATM   22  C   UNL     1       8.098  20.636  53.190  1.00  0.00     0.001 A 
HETATM   23  C   UNL     1       7.722  21.931  52.839  1.00  0.00     0.010 A 
BRANCH  19  24
HETATM   24  C   UNL     1       7.775  23.647  56.303  1.00  0.00     0.418 C 
HETATM   25  F   UNL     1       8.534  24.761  56.140  1.00  0.00    -0.166 F 
HETATM   26  F   UNL     1       6.503  24.128  56.481  1.00  0.00    -0.166 F 
HETATM   27  F   UNL     1       8.103  23.104  57.510  1.00  0.00    -0.166 F 
ENDBRANCH  19  24
ENDBRANCH  16  18
ENDBRANCH   1  16
TORSDOF 6
ENDMDL
MODEL 9
REMARK VINA RESULT:      -8.0      2.923      4.588
REMARK  6 active torsions:
REMARK  status: ('A' for Active; 'I' for Inactive)
REMARK    1  A    between atoms: C_8  and  N_9 
REMARK       I    between atoms: N_9  and  C_10 
REMARK    2  A    between atoms: C_10  and  C_11 
REMARK    3  A    between atoms: C_11  and  N_12 
REMARK    4  A    between atoms: N_12  and  C_13 
REMARK    5  A    between atoms: C_13  and  C_14 
REMARK    6  A    between atoms: C_15  and  C_16 
ROOT
HETATM    1  N   UNL     1       6.108  25.014  53.650  1.00  0.00     0.100 N 
HETATM    2  H   UNL     1       5.657  24.800  52.754  1.00  0.00     0.317 HD
ENDROOT
BRANCH   1   3
HETATM    3  C   UNL     1       5.938  26.464  53.871  1.00  0.00     0.372 C 
BRANCH   3   4
HETATM    4  C   UNL     1       4.963  27.103  52.868  1.00  0.00     0.250 C 
HETATM    5  N   UNL     1       5.517  27.201  51.607  1.00  0.00    -0.322 N 
HETATM    6  H   UNL     1       6.475  26.894  51.496  1.00  0.00     0.169 HD
HETATM    7  O   UNL     1       3.848  27.477  53.216  1.00  0.00    -0.271 OA
BRANCH   5   8
HETATM    8  C   UNL     1       4.922  27.693  50.457  1.00  0.00     0.085 A 
HETATM    9  C   UNL     1       4.912  29.049  50.180  1.00  0.00     0.052 A 
HETATM   10  C   UNL     1       5.439  30.226  50.911  1.00  0.00     0.072 C 
HETATM   11  N   UNL     1       4.253  29.184  48.993  1.00  0.00    -0.280 N 
HETATM   12  H   UNL     1       4.048  30.037  48.482  1.00  0.00     0.189 HD
HETATM   13  N   UNL     1       3.846  28.027  48.468  1.00  0.00    -0.177 NA
HETATM   14  C   UNL     1       4.244  27.099  49.352  1.00  0.00     0.079 A 
HETATM   15  C   UNL     1       3.945  25.678  49.048  1.00  0.00     0.075 C 
ENDBRANCH   5   8
ENDBRANCH   3   4
ENDBRANCH   1   3
BRANCH   1  16
HETATM   16  C   UNL     1       7.509  24.589  53.556  1.00  0.00     0.250 C 
HETATM   17  C   UNL     1       8.056  24.863  52.150  1.00  0.00     0.048 C 
BRANCH  16  18
HETATM   18  C   UNL     1       7.750  23.134  53.950  1.00  0.00    -0.011 A 
HETATM   19  C   UNL     1       7.938  22.670  55.276  1.00  0.00     0.056 A 
HETATM   20  C   UNL     1       8.160  21.289  55.481  1.00  0.00     0.017 A 
HETATM   21  C   UNL     1       8.173  20.382  54.421  1.00  0.00     0.001 A 
HETATM   22  C   UNL     1       7.971  20.836  53.127  1.00  0.00     0.001 A 
HETATM   23  C   UNL     1       7.762  22.194  52.895  1.00  0.00     0.010 A 
BRANCH  19  24
HETATM   24  C   UNL     1       7.973  23.569  56.502  1.00  0.00     0.418 C 
HETATM   25  F   UNL     1       8.297  22.947  57.665  1.00  0.00    -0.166 F 
HETATM   26  F   UNL     1       8.909  24.564  56.379  1.00  0.00    -0.166 F 
HETATM   27  F   UNL     1       6.799  24.232  56.709  1.00  0.00    -0.166 F 
ENDBRANCH  19  24
ENDBRANCH  16  18
ENDBRANCH   1  16
TORSDOF 6
ENDMDL
MODEL 10
REMARK VINA RESULT:      -8.0      2.423      3.944
REMARK  6 active torsions:
REMARK  status: ('A' for Active; 'I' for Inactive)
REMARK    1  A    between atoms: C_8  and  N_9 
REMARK       I    between atoms: N_9  and  C_10 
REMARK    2  A    between atoms: C_10  and  C_11 
REMARK    3  A    between atoms: C_11  and  N_12 
REMARK    4  A    between atoms: N_12  and  C_13 
REMARK    5  A    between atoms: C_13  and  C_14 
REMARK    6  A    between atoms: C_15  and  C_16 
ROOT
HETATM    1  N   UNL     1       6.417  25.118  54.037  1.00  0.00     0.100 N 
HETATM    2  H   UNL     1       5.849  25.156  53.184  1.00  0.00     0.317 HD
ENDROOT
BRANCH   1   3
HETATM    3  C   UNL     1       6.482  26.496  54.562  1.00  0.00     0.372 C 
BRANCH   3   4
HETATM    4  C   UNL     1       6.213  27.553  53.479  1.00  0.00     0.250 C 
HETATM    5  N   UNL     1       4.995  27.352  52.859  1.00  0.00    -0.322 N 
HETATM    6  H   UNL     1       4.458  26.543  53.142  1.00  0.00     0.169 HD
HETATM    7  O   UNL     1       7.031  28.433  53.232  1.00  0.00    -0.271 OA
BRANCH   5   8
HETATM    8  C   UNL     1       4.415  28.122  51.864  1.00  0.00     0.085 A 
HETATM    9  C   UNL     1       4.358  27.677  50.555  1.00  0.00     0.052 A 
HETATM   10  C   UNL     1       4.834  26.438  49.895  1.00  0.00     0.072 C 
HETATM   11  N   UNL     1       3.736  28.666  49.850  1.00  0.00    -0.280 N 
HETATM   12  H   UNL     1       3.526  28.692  48.857  1.00  0.00     0.189 HD
HETATM   13  N   UNL     1       3.371  29.711  50.594  1.00  0.00    -0.177 NA
HETATM   14  C   UNL     1       3.780  29.399  51.834  1.00  0.00     0.079 A 
HETATM   15  C   UNL     1       3.509  30.374  52.919  1.00  0.00     0.075 C 
ENDBRANCH   5   8
ENDBRANCH   3   4
ENDBRANCH   1   3
BRANCH   1  16
HETATM   16  C   UNL     1       7.724  24.557  53.678  1.00  0.00     0.250 C 
HETATM   17  C   UNL     1       8.013  24.792  52.190  1.00  0.00     0.048 C 
BRANCH  16  18
HETATM   18  C   UNL     1       7.891  23.081  54.029  1.00  0.00    -0.011 A 
HETATM   19  C   UNL     1       8.084  22.573  55.337  1.00  0.00     0.056 A 
HETATM   20  C   UNL     1       8.231  21.176  55.503  1.00  0.00     0.017 A 
HETATM   21  C   UNL     1       8.167  20.298  54.420  1.00  0.00     0.001 A 
HETATM   22  C   UNL     1       7.961  20.796  53.144  1.00  0.00     0.001 A 
HETATM   23  C   UNL     1       7.824  22.169  52.950  1.00  0.00     0.010 A 
BRANCH  19  24
HETATM   24  C   UNL     1       8.200  23.435  56.584  1.00  0.00     0.418 C 
HETATM   25  F   UNL     1       9.124  24.428  56.517  1.00  0.00    -0.166 F 
HETATM   26  F   UNL     1       7.026  24.086  56.867  1.00  0.00    -0.166 F 
HETATM   27  F   UNL     1       8.463  22.709  57.709  1.00  0.00    -0.166 F 
ENDBRANCH  19  24
ENDBRANCH  16  18
ENDBRANCH   1  16
TORSDOF 6
ENDMDL
