MODEL 1
REMARK VINA RESULT:     -11.6      0.000      0.000
REMARK  8 active torsions:
REMARK  status: ('A' for Active; 'I' for Inactive)
REMARK    1  A    between atoms: C_2  and  O_3 
REMARK    2  A    between atoms: C_2  and  C_14 
REMARK    3  A    between atoms: O_3  and  C_4 
REMARK       I    between atoms: C_14  and  N_15 
REMARK    4  A    between atoms: N_15  and  N_16 
REMARK       I    between atoms: N_16  and  C_17 
REMARK    5  A    between atoms: C_17  and  C_18 
REMARK    6  A    between atoms: C_18  and  C_19 
REMARK    7  A    between atoms: C_19  and  C_20 
REMARK    8  A    between atoms: C_20  and  C_21 
ROOT
HETATM    1  N   UNL     1       7.560  29.604  58.448  1.00  0.00    -0.267 N 
HETATM    2  C   UNL     1       8.760  30.246  58.195  1.00  0.00     0.236 C 
HETATM    3  O   UNL     1       9.452  30.001  57.210  1.00  0.00    -0.272 OA
HETATM    4  H   UNL     1       6.870  30.040  59.059  1.00  0.00     0.190 HD
ENDROOT
BRANCH   1   5
HETATM    5  N   UNL     1       7.010  28.847  57.393  1.00  0.00    -0.265 N 
HETATM    6  C   UNL     1       7.200  27.473  57.448  1.00  0.00     0.265 C 
HETATM    7  O   UNL     1       8.013  26.957  58.215  1.00  0.00    -0.269 OA
HETATM    8  H   UNL     1       6.111  29.181  57.036  1.00  0.00     0.190 HD
BRANCH   6   9
HETATM    9  C   UNL     1       6.392  26.699  56.396  1.00  0.00     0.218 C 
HETATM   10  C   UNL     1       5.026  27.346  56.202  1.00  0.00     0.050 C 
BRANCH   9  11
HETATM   11  O   UNL     1       7.122  26.730  55.165  1.00  0.00    -0.337 OA
BRANCH  11  12
HETATM   12  C   UNL     1       7.354  25.551  54.514  1.00  0.00     0.070 A 
HETATM   13  C   UNL     1       7.367  24.423  55.340  1.00  0.00     0.049 A 
HETATM   14  C   UNL     1       7.594  23.139  54.818  1.00  0.00    -0.023 A 
HETATM   15  C   UNL     1       7.823  22.989  53.433  1.00  0.00    -0.026 A 
HETATM   16  C   UNL     1       7.598  22.000  55.640  1.00  0.00     0.012 A 
HETATM   17  C   UNL     1       7.823  24.128  52.614  1.00  0.00     0.015 A 
HETATM   18  C   UNL     1       8.052  21.707  52.906  1.00  0.00     0.012 A 
HETATM   19  C   UNL     1       7.593  25.400  53.151  1.00  0.00     0.037 A 
HETATM   20  C   UNL     1       8.052  20.586  53.738  1.00  0.00     0.001 A 
HETATM   21  C   UNL     1       7.825  20.733  55.103  1.00  0.00     0.001 A 
ENDBRANCH  11  12
ENDBRANCH   9  11
ENDBRANCH   6   9
ENDBRANCH   1   5
BRANCH   2  22
HETATM   22  C   UNL     1       9.146  31.225  59.285  1.00  0.00     0.105 C 
BRANCH  22  23
HETATM   23  C   UNL     1       8.760  30.719  60.673  1.00  0.00     0.014 C 
BRANCH  23  24
HETATM   24  C   UNL     1       9.062  31.767  61.746  1.00  0.00     0.039 C 
BRANCH  24  25
HETATM   25  C   UNL     1       7.826  32.141  62.531  1.00  0.00    -0.056 A 
HETATM   26  C   UNL     1       7.949  32.736  63.798  1.00  0.00     0.039 A 
HETATM   27  C   UNL     1       6.782  33.066  64.448  1.00  0.00     0.063 A 
HETATM   28  C   UNL     1       5.527  32.834  63.891  1.00  0.00     0.063 A 
HETATM   29  N   UNL     1       6.594  33.655  65.693  1.00  0.00    -0.306 N 
HETATM   30  N   UNL     1       4.567  33.280  64.792  1.00  0.00    -0.307 N 
HETATM   31  C   UNL     1       5.370  32.261  62.653  1.00  0.00     0.032 A 
HETATM   32  C   UNL     1       5.218  33.796  65.923  1.00  0.00     0.325 A 
HETATM   33  H   UNL     1       3.567  33.255  64.684  1.00  0.00     0.170 HD
HETATM   34  O   UNL     1       4.689  34.273  66.910  1.00  0.00    -0.247 OA
HETATM   35  C   UNL     1       6.541  31.915  61.968  1.00  0.00     0.009 A 
HETATM   36  H   UNL     1       7.303  33.950  66.344  1.00  0.00     0.170 HD
ENDBRANCH  24  25
ENDBRANCH  23  24
ENDBRANCH  22  23
ENDBRANCH   2  22
TORSDOF 8
ENDMDL
MODEL 2
REMARK VINA RESULT:     -11.3      1.194      1.634
REMARK  8 active torsions:
REMARK  status: ('A' for Active; 'I' for Inactive)
REMARK    1  A    between atoms: C_2  and  O_3 
REMARK    2  A    between atoms: C_2  and  C_14 
REMARK    3  A    between atoms: O_3  and  C_4 
REMARK       I    between atoms: C_14  and  N_15 
REMARK    4  A    between atoms: N_15  and  N_16 
REMARK       I    between atoms: N_16  and  C_17 
REMARK    5  A    between atoms: C_17  and  C_18 
REMARK    6  A    between atoms: C_18  and  C_19 
REMARK    7  A    between atoms: C_19  and  C_20 
REMARK    8  A    between atoms: C_20  and  C_21 
ROOT
HETATM    1  N   UNL     1       8.780  29.034  57.715  1.00  0.00    -0.267 N 
HETATM    2  C   UNL     1       8.215  29.993  58.537  1.00  0.00     0.236 C 
HETATM    3  O   UNL     1       7.069  30.409  58.384  1.00  0.00    -0.272 OA
HETATM    4  H   UNL     1       9.571  28.483  58.047  1.00  0.00     0.190 HD
ENDROOT
BRANCH   1   5
HETATM    5  N   UNL     1       7.906  28.340  56.854  1.00  0.00    -0.265 N 
HETATM    6  C   UNL     1       7.517  27.069  57.254  1.00  0.00     0.265 C 
HETATM    7  O   UNL     1       8.091  26.467  58.161  1.00  0.00    -0.269 OA
HETATM    8  H   UNL     1       7.203  28.917  56.383  1.00  0.00     0.190 HD
BRANCH   6   9
HETATM    9  C   UNL     1       6.402  26.466  56.387  1.00  0.00     0.218 C 
HETATM   10  C   UNL     1       5.120  27.276  56.544  1.00  0.00     0.050 C 
BRANCH   9  11
HETATM   11  O   UNL     1       6.832  26.501  55.023  1.00  0.00    -0.337 OA
BRANCH  11  12
HETATM   12  C   UNL     1       7.165  25.323  54.414  1.00  0.00     0.070 A 
HETATM   13  C   UNL     1       7.226  24.221  55.272  1.00  0.00     0.049 A 
HETATM   14  C   UNL     1       7.556  22.942  54.795  1.00  0.00    -0.023 A 
HETATM   15  C   UNL     1       7.842  22.772  53.423  1.00  0.00    -0.026 A 
HETATM   16  C   UNL     1       7.609  21.829  55.650  1.00  0.00     0.012 A 
HETATM   17  C   UNL     1       7.793  23.885  52.572  1.00  0.00     0.015 A 
HETATM   18  C   UNL     1       8.174  21.494  52.941  1.00  0.00     0.012 A 
HETATM   19  C   UNL     1       7.459  25.152  53.064  1.00  0.00     0.037 A 
HETATM   20  C   UNL     1       8.221  20.398  53.804  1.00  0.00     0.001 A 
HETATM   21  C   UNL     1       7.939  20.566  55.157  1.00  0.00     0.001 A 
ENDBRANCH  11  12
ENDBRANCH   9  11
ENDBRANCH   6   9
ENDBRANCH   1   5
BRANCH   2  22
HETATM   22  C   UNL     1       9.174  30.506  59.591  1.00  0.00     0.105 C 
BRANCH  22  23
HETATM   23  C   UNL     1       8.777  31.889  60.104  1.00  0.00     0.014 C 
BRANCH  23  24
HETATM   24  C   UNL     1       9.093  32.036  61.593  1.00  0.00     0.039 C 
BRANCH  24  25
HETATM   25  C   UNL     1       7.880  32.464  62.386  1.00  0.00    -0.056 A 
HETATM   26  C   UNL     1       6.614  32.495  61.778  1.00  0.00     0.039 A 
HETATM   27  C   UNL     1       5.552  32.877  62.564  1.00  0.00     0.063 A 
HETATM   28  C   UNL     1       5.703  33.218  63.906  1.00  0.00     0.063 A 
HETATM   29  N   UNL     1       4.205  33.001  62.242  1.00  0.00    -0.306 N 
HETATM   30  N   UNL     1       4.451  33.551  64.409  1.00  0.00    -0.307 N 
HETATM   31  C   UNL     1       6.923  33.192  64.535  1.00  0.00     0.032 A 
HETATM   32  C   UNL     1       3.505  33.420  63.382  1.00  0.00     0.325 A 
HETATM   33  H   UNL     1       4.224  33.838  65.347  1.00  0.00     0.170 HD
HETATM   34  O   UNL     1       2.308  33.629  63.465  1.00  0.00    -0.247 OA
HETATM   35  C   UNL     1       8.023  32.806  63.758  1.00  0.00     0.009 A 
HETATM   36  H   UNL     1       3.771  32.823  61.352  1.00  0.00     0.170 HD
ENDBRANCH  24  25
ENDBRANCH  23  24
ENDBRANCH  22  23
ENDBRANCH   2  22
TORSDOF 8
ENDMDL
MODEL 3
REMARK VINA RESULT:     -11.1      1.102      1.698
REMARK  8 active torsions:
REMARK  status: ('A' for Active; 'I' for Inactive)
REMARK    1  A    between atoms: C_2  and  O_3 
REMARK    2  A    between atoms: C_2  and  C_14 
REMARK    3  A    between atoms: O_3  and  C_4 
REMARK       I    between atoms: C_14  and  N_15 
REMARK    4  A    between atoms: N_15  and  N_16 
REMARK       I    between atoms: N_16  and  C_17 
REMARK    5  A    between atoms: C_17  and  C_18 
REMARK    6  A    between atoms: C_18  and  C_19 
REMARK    7  A    between atoms: C_19  and  C_20 
REMARK    8  A    between atoms: C_20  and  C_21 
ROOT
HETATM    1  N   UNL     1       6.233  29.607  57.958  1.00  0.00    -0.267 N 
HETATM    2  C   UNL     1       7.513  29.815  58.439  1.00  0.00     0.236 C 
HETATM    3  O   UNL     1       8.351  28.919  58.511  1.00  0.00    -0.272 OA
HETATM    4  H   UNL     1       5.689  30.396  57.607  1.00  0.00     0.190 HD
ENDROOT
BRANCH   1   5
HETATM    5  N   UNL     1       5.995  28.390  57.288  1.00  0.00    -0.265 N 
HETATM    6  C   UNL     1       5.931  28.445  55.903  1.00  0.00     0.265 C 
HETATM    7  O   UNL     1       5.823  29.510  55.296  1.00  0.00    -0.269 OA
HETATM    8  H   UNL     1       6.440  27.567  57.703  1.00  0.00     0.190 HD
BRANCH   6   9
HETATM    9  C   UNL     1       5.892  27.062  55.234  1.00  0.00     0.218 C 
HETATM   10  C   UNL     1       4.922  27.075  54.059  1.00  0.00     0.050 C 
BRANCH   9  11
HETATM   11  O   UNL     1       7.210  26.755  54.771  1.00  0.00    -0.337 OA
BRANCH  11  12
HETATM   12  C   UNL     1       7.442  25.520  54.233  1.00  0.00     0.070 A 
HETATM   13  C   UNL     1       7.427  24.471  55.157  1.00  0.00     0.049 A 
HETATM   14  C   UNL     1       7.650  23.143  54.757  1.00  0.00    -0.023 A 
HETATM   15  C   UNL     1       7.903  22.867  53.396  1.00  0.00    -0.026 A 
HETATM   16  C   UNL     1       7.627  22.083  55.678  1.00  0.00     0.012 A 
HETATM   17  C   UNL     1       7.931  23.928  52.478  1.00  0.00     0.015 A 
HETATM   18  C   UNL     1       8.128  21.541  52.991  1.00  0.00     0.012 A 
HETATM   19  C   UNL     1       7.704  25.244  52.893  1.00  0.00     0.037 A 
HETATM   20  C   UNL     1       8.100  20.499  53.920  1.00  0.00     0.001 A 
HETATM   21  C   UNL     1       7.850  20.770  55.262  1.00  0.00     0.001 A 
ENDBRANCH  11  12
ENDBRANCH   9  11
ENDBRANCH   6   9
ENDBRANCH   1   5
BRANCH   2  22
HETATM   22  C   UNL     1       7.741  31.234  58.919  1.00  0.00     0.105 C 
BRANCH  22  23
HETATM   23  C   UNL     1       7.492  31.380  60.418  1.00  0.00     0.014 C 
BRANCH  23  24
HETATM   24  C   UNL     1       6.578  32.570  60.713  1.00  0.00     0.039 C 
BRANCH  24  25
HETATM   25  C   UNL     1       6.524  32.887  62.189  1.00  0.00    -0.056 A 
HETATM   26  C   UNL     1       5.289  33.125  62.815  1.00  0.00     0.039 A 
HETATM   27  C   UNL     1       5.314  33.390  64.165  1.00  0.00     0.063 A 
HETATM   28  C   UNL     1       6.499  33.422  64.896  1.00  0.00     0.063 A 
HETATM   29  N   UNL     1       4.266  33.661  65.037  1.00  0.00    -0.306 N 
HETATM   30  N   UNL     1       6.180  33.713  66.218  1.00  0.00    -0.307 N 
HETATM   31  C   UNL     1       7.722  33.189  64.319  1.00  0.00     0.032 A 
HETATM   32  C   UNL     1       4.790  33.864  66.322  1.00  0.00     0.325 A 
HETATM   33  H   UNL     1       6.814  33.803  66.995  1.00  0.00     0.170 HD
HETATM   34  O   UNL     1       4.161  34.122  67.332  1.00  0.00    -0.247 OA
HETATM   35  C   UNL     1       7.727  32.915  62.945  1.00  0.00     0.009 A 
HETATM   36  H   UNL     1       3.285  33.706  64.819  1.00  0.00     0.170 HD
ENDBRANCH  24  25
ENDBRANCH  23  24
ENDBRANCH  22  23
ENDBRANCH   2  22
TORSDOF 8
ENDMDL
MODEL 4
REMARK VINA RESULT:     -11.1      1.381      2.204
REMARK  8 active torsions:
REMARK  status: ('A' for Active; 'I' for Inactive)
REMARK    1  A    between atoms: C_2  and  O_3 
REMARK    2  A    between atoms: C_2  and  C_14 
REMARK    3  A    between atoms: O_3  and  C_4 
REMARK       I    between atoms: C_14  and  N_15 
REMARK    4  A    between atoms: N_15  and  N_16 
REMARK       I    between atoms: N_16  and  C_17 
REMARK    5  A    between atoms: C_17  and  C_18 
REMARK    6  A    between atoms: C_18  and  C_19 
REMARK    7  A    between atoms: C_19  and  C_20 
REMARK    8  A    between atoms: C_20  and  C_21 
ROOT
HETATM    1  N   UNL     1       7.809  30.500  58.882  1.00  0.00    -0.267 N 
HETATM    2  C   UNL     1       7.200  31.671  59.295  1.00  0.00     0.236 C 
HETATM    3  O   UNL     1       6.101  32.033  58.881  1.00  0.00    -0.272 OA
HETATM    4  H   UNL     1       8.529  30.070  59.463  1.00  0.00     0.190 HD
ENDROOT
BRANCH   1   5
HETATM    5  N   UNL     1       7.007  29.583  58.173  1.00  0.00    -0.265 N 
HETATM    6  C   UNL     1       7.629  28.423  57.733  1.00  0.00     0.265 C 
HETATM    7  O   UNL     1       8.854  28.303  57.721  1.00  0.00    -0.269 OA
HETATM    8  H   UNL     1       6.041  29.500  58.501  1.00  0.00     0.190 HD
BRANCH   6   9
HETATM    9  C   UNL     1       6.654  27.379  57.168  1.00  0.00     0.218 C 
HETATM   10  C   UNL     1       5.316  28.033  56.843  1.00  0.00     0.050 C 
BRANCH   9  11
HETATM   11  O   UNL     1       7.228  26.835  55.976  1.00  0.00    -0.337 OA
BRANCH  11  12
HETATM   12  C   UNL     1       7.518  25.499  55.941  1.00  0.00     0.070 A 
HETATM   13  C   UNL     1       7.436  24.919  54.672  1.00  0.00     0.049 A 
HETATM   14  C   UNL     1       7.704  23.554  54.475  1.00  0.00    -0.023 A 
HETATM   15  C   UNL     1       8.053  22.754  55.585  1.00  0.00    -0.026 A 
HETATM   16  C   UNL     1       7.635  22.966  53.201  1.00  0.00     0.012 A 
HETATM   17  C   UNL     1       8.118  23.342  56.857  1.00  0.00     0.015 A 
HETATM   18  C   UNL     1       8.321  21.388  55.393  1.00  0.00     0.012 A 
HETATM   19  C   UNL     1       7.850  24.703  57.034  1.00  0.00     0.037 A 
HETATM   20  C   UNL     1       8.247  20.820  54.120  1.00  0.00     0.001 A 
HETATM   21  C   UNL     1       7.905  21.609  53.026  1.00  0.00     0.001 A 
ENDBRANCH  11  12
ENDBRANCH   9  11
ENDBRANCH   6   9
ENDBRANCH   1   5
BRANCH   2  22
HETATM   22  C   UNL     1       8.056  32.476  60.253  1.00  0.00     0.105 C 
BRANCH  22  23
HETATM   23  C   UNL     1       8.473  31.659  61.474  1.00  0.00     0.014 C 
BRANCH  23  24
HETATM   24  C   UNL     1       7.253  31.193  62.269  1.00  0.00     0.039 C 
BRANCH  24  25
HETATM   25  C   UNL     1       6.823  32.217  63.293  1.00  0.00    -0.056 A 
HETATM   26  C   UNL     1       5.457  32.460  63.517  1.00  0.00     0.039 A 
HETATM   27  C   UNL     1       5.138  33.394  64.476  1.00  0.00     0.063 A 
HETATM   28  C   UNL     1       6.110  34.075  65.206  1.00  0.00     0.063 A 
HETATM   29  N   UNL     1       3.892  33.836  64.908  1.00  0.00    -0.306 N 
HETATM   30  N   UNL     1       5.463  34.935  66.085  1.00  0.00    -0.307 N 
HETATM   31  C   UNL     1       7.452  33.858  65.017  1.00  0.00     0.032 A 
HETATM   32  C   UNL     1       4.078  34.798  65.911  1.00  0.00     0.325 A 
HETATM   33  H   UNL     1       5.885  35.563  66.750  1.00  0.00     0.170 HD
HETATM   34  O   UNL     1       3.207  35.397  66.515  1.00  0.00    -0.247 OA
HETATM   35  C   UNL     1       7.806  32.912  64.047  1.00  0.00     0.009 A 
HETATM   36  H   UNL     1       2.990  33.534  64.581  1.00  0.00     0.170 HD
ENDBRANCH  24  25
ENDBRANCH  23  24
ENDBRANCH  22  23
ENDBRANCH   2  22
TORSDOF 8
ENDMDL
MODEL 5
REMARK VINA RESULT:     -10.5      2.049      3.080
REMARK  8 active torsions:
REMARK  status: ('A' for Active; 'I' for Inactive)
REMARK    1  A    between atoms: C_2  and  O_3 
REMARK    2  A    between atoms: C_2  and  C_14 
REMARK    3  A    between atoms: O_3  and  C_4 
REMARK       I    between atoms: C_14  and  N_15 
REMARK    4  A    between atoms: N_15  and  N_16 
REMARK       I    between atoms: N_16  and  C_17 
REMARK    5  A    between atoms: C_17  and  C_18 
REMARK    6  A    between atoms: C_18  and  C_19 
REMARK    7  A    between atoms: C_19  and  C_20 
REMARK    8  A    between atoms: C_20  and  C_21 
ROOT
HETATM    1  N   UNL     1       7.439  30.903  60.062  1.00  0.00    -0.267 N 
HETATM    2  C   UNL     1       8.366  31.929  60.095  1.00  0.00     0.236 C 
HETATM    3  O   UNL     1       8.853  32.420  59.080  1.00  0.00    -0.272 OA
HETATM    4  H   UNL     1       6.824  30.748  60.862  1.00  0.00     0.190 HD
ENDROOT
BRANCH   1   5
HETATM    5  N   UNL     1       6.854  30.614  58.812  1.00  0.00    -0.265 N 
HETATM    6  C   UNL     1       7.295  29.467  58.169  1.00  0.00     0.265 C 
HETATM    7  O   UNL     1       8.313  28.871  58.522  1.00  0.00    -0.269 OA
HETATM    8  H   UNL     1       5.860  30.844  58.730  1.00  0.00     0.190 HD
BRANCH   6   9
HETATM    9  C   UNL     1       6.465  29.099  56.930  1.00  0.00     0.218 C 
HETATM   10  C   UNL     1       5.786  30.342  56.367  1.00  0.00     0.050 C 
BRANCH   9  11
HETATM   11  O   UNL     1       7.350  28.545  55.951  1.00  0.00    -0.337 OA
BRANCH  11  12
HETATM   12  C   UNL     1       7.325  27.195  55.739  1.00  0.00     0.070 A 
HETATM   13  C   UNL     1       7.557  26.810  54.414  1.00  0.00     0.049 A 
HETATM   14  C   UNL     1       7.562  25.457  54.038  1.00  0.00    -0.023 A 
HETATM   15  C   UNL     1       7.318  24.469  55.017  1.00  0.00    -0.026 A 
HETATM   16  C   UNL     1       7.805  25.063  52.712  1.00  0.00     0.012 A 
HETATM   17  C   UNL     1       7.071  24.865  56.340  1.00  0.00     0.015 A 
HETATM   18  C   UNL     1       7.321  23.115  54.645  1.00  0.00     0.012 A 
HETATM   19  C   UNL     1       7.072  26.218  56.697  1.00  0.00     0.037 A 
HETATM   20  C   UNL     1       7.564  22.740  53.322  1.00  0.00     0.001 A 
HETATM   21  C   UNL     1       7.806  23.714  52.357  1.00  0.00     0.001 A 
ENDBRANCH  11  12
ENDBRANCH   9  11
ENDBRANCH   6   9
ENDBRANCH   1   5
BRANCH   2  22
HETATM   22  C   UNL     1       8.753  32.331  61.505  1.00  0.00     0.105 C 
BRANCH  22  23
HETATM   23  C   UNL     1       7.980  31.541  62.559  1.00  0.00     0.014 C 
BRANCH  23  24
HETATM   24  C   UNL     1       7.708  32.394  63.798  1.00  0.00     0.039 C 
BRANCH  24  25
HETATM   25  C   UNL     1       6.465  33.238  63.639  1.00  0.00    -0.056 A 
HETATM   26  C   UNL     1       5.275  32.658  63.167  1.00  0.00     0.039 A 
HETATM   27  C   UNL     1       4.177  33.482  63.064  1.00  0.00     0.063 A 
HETATM   28  C   UNL     1       4.223  34.831  63.409  1.00  0.00     0.063 A 
HETATM   29  N   UNL     1       2.887  33.194  62.635  1.00  0.00    -0.306 N 
HETATM   30  N   UNL     1       2.961  35.372  63.193  1.00  0.00    -0.307 N 
HETATM   31  C   UNL     1       5.366  35.428  63.879  1.00  0.00     0.032 A 
HETATM   32  C   UNL     1       2.116  34.363  62.709  1.00  0.00     0.325 A 
HETATM   33  H   UNL     1       2.668  36.322  63.348  1.00  0.00     0.170 HD
HETATM   34  O   UNL     1       0.941  34.480  62.413  1.00  0.00    -0.247 OA
HETATM   35  C   UNL     1       6.499  34.613  63.995  1.00  0.00     0.009 A 
HETATM   36  H   UNL     1       2.530  32.307  62.322  1.00  0.00     0.170 HD
ENDBRANCH  24  25
ENDBRANCH  23  24
ENDBRANCH  22  23
ENDBRANCH   2  22
TORSDOF 8
ENDMDL
MODEL 6
REMARK VINA RESULT:     -10.4      2.652     12.234
REMARK  8 active torsions:
REMARK  status: ('A' for Active; 'I' for Inactive)
REMARK    1  A    between atoms: C_2  and  O_3 
REMARK    2  A    between atoms: C_2  and  C_14 
REMARK    3  A    between atoms: O_3  and  C_4 
REMARK       I    between atoms: C_14  and  N_15 
REMARK    4  A    between atoms: N_15  and  N_16 
REMARK       I    between atoms: N_16  and  C_17 
REMARK    5  A    between atoms: C_17  and  C_18 
REMARK    6  A    between atoms: C_18  and  C_19 
REMARK    7  A    between atoms: C_19  and  C_20 
REMARK    8  A    between atoms: C_20  and  C_21 
ROOT
HETATM    1  N   UNL     1       7.617  29.521  57.905  1.00  0.00    -0.267 N 
HETATM    2  C   UNL     1       7.550  28.211  57.466  1.00  0.00     0.236 C 
HETATM    3  O   UNL     1       7.956  27.263  58.134  1.00  0.00    -0.272 OA
HETATM    4  H   UNL     1       6.997  30.224  57.502  1.00  0.00     0.190 HD
ENDROOT
BRANCH   1   5
HETATM    5  N   UNL     1       7.916  29.720  59.269  1.00  0.00    -0.265 N 
HETATM    6  C   UNL     1       7.997  31.036  59.702  1.00  0.00     0.265 C 
HETATM    7  O   UNL     1       8.068  31.979  58.915  1.00  0.00    -0.269 OA
HETATM    8  H   UNL     1       7.502  29.040  59.912  1.00  0.00     0.190 HD
BRANCH   6   9
HETATM    9  C   UNL     1       8.105  31.174  61.229  1.00  0.00     0.218 C 
HETATM   10  C   UNL     1       9.478  30.714  61.701  1.00  0.00     0.050 C 
BRANCH   9  11
HETATM   11  O   UNL     1       7.914  32.552  61.564  1.00  0.00    -0.337 OA
BRANCH  11  12
HETATM   12  C   UNL     1       6.955  32.873  62.484  1.00  0.00     0.070 A 
HETATM   13  C   UNL     1       7.452  33.203  63.750  1.00  0.00     0.049 A 
HETATM   14  C   UNL     1       6.591  33.554  64.802  1.00  0.00    -0.023 A 
HETATM   15  C   UNL     1       5.196  33.564  64.577  1.00  0.00    -0.026 A 
HETATM   16  C   UNL     1       7.082  33.896  66.073  1.00  0.00     0.012 A 
HETATM   17  C   UNL     1       4.707  33.218  63.309  1.00  0.00     0.015 A 
HETATM   18  C   UNL     1       4.331  33.914  65.627  1.00  0.00     0.012 A 
HETATM   19  C   UNL     1       5.580  32.873  62.271  1.00  0.00     0.037 A 
HETATM   20  C   UNL     1       4.837  34.252  66.884  1.00  0.00     0.001 A 
HETATM   21  C   UNL     1       6.211  34.242  67.106  1.00  0.00     0.001 A 
ENDBRANCH  11  12
ENDBRANCH   9  11
ENDBRANCH   6   9
ENDBRANCH   1   5
BRANCH   2  22
HETATM   22  C   UNL     1       6.986  28.085  56.065  1.00  0.00     0.105 C 
BRANCH  22  23
HETATM   23  C   UNL     1       5.974  26.947  55.954  1.00  0.00     0.014 C 
BRANCH  23  24
HETATM   24  C   UNL     1       5.948  26.368  54.539  1.00  0.00     0.039 C 
BRANCH  24  25
HETATM   25  C   UNL     1       6.778  25.110  54.431  1.00  0.00    -0.056 A 
HETATM   26  C   UNL     1       7.062  24.352  55.579  1.00  0.00     0.039 A 
HETATM   27  C   UNL     1       7.808  23.209  55.403  1.00  0.00     0.063 A 
HETATM   28  C   UNL     1       8.266  22.803  54.152  1.00  0.00     0.063 A 
HETATM   29  N   UNL     1       8.239  22.276  56.339  1.00  0.00    -0.306 N 
HETATM   30  N   UNL     1       8.979  21.621  54.318  1.00  0.00    -0.307 N 
HETATM   31  C   UNL     1       8.002  23.516  53.009  1.00  0.00     0.032 A 
HETATM   32  C   UNL     1       8.971  21.278  55.677  1.00  0.00     0.325 A 
HETATM   33  H   UNL     1       9.433  21.075  53.605  1.00  0.00     0.170 HD
HETATM   34  O   UNL     1       9.496  20.304  56.184  1.00  0.00    -0.247 OA
HETATM   35  C   UNL     1       7.243  24.684  53.158  1.00  0.00     0.009 A 
HETATM   36  H   UNL     1       8.069  22.281  57.331  1.00  0.00     0.170 HD
ENDBRANCH  24  25
ENDBRANCH  23  24
ENDBRANCH  22  23
ENDBRANCH   2  22
TORSDOF 8
ENDMDL
MODEL 7
REMARK VINA RESULT:     -10.2      3.154     11.470
REMARK  8 active torsions:
REMARK  status: ('A' for Active; 'I' for Inactive)
REMARK    1  A    between atoms: C_2  and  O_3 
REMARK    2  A    between atoms: C_2  and  C_14 
REMARK    3  A    between atoms: O_3  and  C_4 
REMARK       I    between atoms: C_14  and  N_15 
REMARK    4  A    between atoms: N_15  and  N_16 
REMARK       I    between atoms: N_16  and  C_17 
REMARK    5  A    between atoms: C_17  and  C_18 
REMARK    6  A    between atoms: C_18  and  C_19 
REMARK    7  A    between atoms: C_19  and  C_20 
REMARK    8  A    between atoms: C_20  and  C_21 
ROOT
HETATM    1  N   UNL     1       5.968  29.173  56.525  1.00  0.00    -0.267 N 
HETATM    2  C   UNL     1       6.187  28.536  55.317  1.00  0.00     0.236 C 
HETATM    3  O   UNL     1       7.174  28.753  54.619  1.00  0.00    -0.272 OA
HETATM    4  H   UNL     1       5.347  28.751  57.216  1.00  0.00     0.190 HD
ENDROOT
BRANCH   1   5
HETATM    5  N   UNL     1       7.054  29.885  57.075  1.00  0.00    -0.265 N 
HETATM    6  C   UNL     1       7.956  29.154  57.835  1.00  0.00     0.265 C 
HETATM    7  O   UNL     1       7.702  28.018  58.235  1.00  0.00    -0.269 OA
HETATM    8  H   UNL     1       7.435  30.628  56.482  1.00  0.00     0.190 HD
BRANCH   6   9
HETATM    9  C   UNL     1       9.219  29.942  58.213  1.00  0.00     0.218 C 
HETATM   10  C   UNL     1      10.184  29.983  57.034  1.00  0.00     0.050 C 
BRANCH   9  11
HETATM   11  O   UNL     1       8.826  31.272  58.563  1.00  0.00    -0.337 OA
BRANCH  11  12
HETATM   12  C   UNL     1       8.676  31.582  59.886  1.00  0.00     0.070 A 
HETATM   13  C   UNL     1       7.590  32.417  60.168  1.00  0.00     0.049 A 
HETATM   14  C   UNL     1       7.306  32.825  61.482  1.00  0.00    -0.023 A 
HETATM   15  C   UNL     1       8.141  32.389  62.534  1.00  0.00    -0.026 A 
HETATM   16  C   UNL     1       6.211  33.654  61.775  1.00  0.00     0.012 A 
HETATM   17  C   UNL     1       9.236  31.564  62.240  1.00  0.00     0.015 A 
HETATM   18  C   UNL     1       7.861  32.795  63.850  1.00  0.00     0.012 A 
HETATM   19  C   UNL     1       9.503  31.165  60.925  1.00  0.00     0.037 A 
HETATM   20  C   UNL     1       6.768  33.620  64.123  1.00  0.00     0.001 A 
HETATM   21  C   UNL     1       5.944  34.049  63.086  1.00  0.00     0.001 A 
ENDBRANCH  11  12
ENDBRANCH   9  11
ENDBRANCH   6   9
ENDBRANCH   1   5
BRANCH   2  22
HETATM   22  C   UNL     1       5.059  27.601  54.929  1.00  0.00     0.105 C 
BRANCH  22  23
HETATM   23  C   UNL     1       5.536  26.159  54.773  1.00  0.00     0.014 C 
BRANCH  23  24
HETATM   24  C   UNL     1       6.167  25.644  56.067  1.00  0.00     0.039 C 
BRANCH  24  25
HETATM   25  C   UNL     1       6.931  24.359  55.849  1.00  0.00    -0.056 A 
HETATM   26  C   UNL     1       6.862  23.699  54.610  1.00  0.00     0.039 A 
HETATM   27  C   UNL     1       7.597  22.544  54.476  1.00  0.00     0.063 A 
HETATM   28  C   UNL     1       8.384  22.037  55.507  1.00  0.00     0.063 A 
HETATM   29  N   UNL     1       7.721  21.691  53.385  1.00  0.00    -0.306 N 
HETATM   30  N   UNL     1       8.992  20.873  55.052  1.00  0.00    -0.307 N 
HETATM   31  C   UNL     1       8.480  22.659  56.727  1.00  0.00     0.032 A 
HETATM   32  C   UNL     1       8.589  20.643  53.729  1.00  0.00     0.325 A 
HETATM   33  H   UNL     1       9.623  20.274  55.558  1.00  0.00     0.170 HD
HETATM   34  O   UNL     1       8.926  19.715  53.017  1.00  0.00    -0.247 OA
HETATM   35  C   UNL     1       7.743  23.838  56.892  1.00  0.00     0.009 A 
HETATM   36  H   UNL     1       7.282  21.782  52.484  1.00  0.00     0.170 HD
ENDBRANCH  24  25
ENDBRANCH  23  24
ENDBRANCH  22  23
ENDBRANCH   2  22
TORSDOF 8
ENDMDL
MODEL 8
REMARK VINA RESULT:      -9.8      1.716      2.554
REMARK  8 active torsions:
REMARK  status: ('A' for Active; 'I' for Inactive)
REMARK    1  A    between atoms: C_2  and  O_3 
REMARK    2  A    between atoms: C_2  and  C_14 
REMARK    3  A    between atoms: O_3  and  C_4 
REMARK       I    between atoms: C_14  and  N_15 
REMARK    4  A    between atoms: N_15  and  N_16 
REMARK       I    between atoms: N_16  and  C_17 
REMARK    5  A    between atoms: C_17  and  C_18 
REMARK    6  A    between atoms: C_18  and  C_19 
REMARK    7  A    between atoms: C_19  and  C_20 
REMARK    8  A    between atoms: C_20  and  C_21 
ROOT
HETATM    1  N   UNL     1       6.747  30.438  56.249  1.00  0.00    -0.267 N 
HETATM    2  C   UNL     1       6.105  30.430  57.475  1.00  0.00     0.236 C 
HETATM    3  O   UNL     1       5.034  29.859  57.662  1.00  0.00    -0.272 OA
HETATM    4  H   UNL     1       7.750  30.620  56.202  1.00  0.00     0.190 HD
ENDROOT
BRANCH   1   5
HETATM    5  N   UNL     1       6.273  29.534  55.277  1.00  0.00    -0.265 N 
HETATM    6  C   UNL     1       7.180  28.596  54.805  1.00  0.00     0.265 C 
HETATM    7  O   UNL     1       8.389  28.697  55.010  1.00  0.00    -0.269 OA
HETATM    8  H   UNL     1       5.304  29.227  55.400  1.00  0.00     0.190 HD
BRANCH   6   9
HETATM    9  C   UNL     1       6.541  27.513  53.922  1.00  0.00     0.218 C 
HETATM   10  C   UNL     1       5.931  28.145  52.677  1.00  0.00     0.050 C 
BRANCH   9  11
HETATM   11  O   UNL     1       7.565  26.588  53.543  1.00  0.00    -0.337 OA
BRANCH  11  12
HETATM   12  C   UNL     1       7.585  25.358  54.139  1.00  0.00     0.070 A 
HETATM   13  C   UNL     1       7.808  24.291  53.262  1.00  0.00     0.049 A 
HETATM   14  C   UNL     1       7.856  22.965  53.724  1.00  0.00    -0.023 A 
HETATM   15  C   UNL     1       7.664  22.708  55.099  1.00  0.00    -0.026 A 
HETATM   16  C   UNL     1       8.089  21.890  52.851  1.00  0.00     0.012 A 
HETATM   17  C   UNL     1       7.427  23.783  55.968  1.00  0.00     0.015 A 
HETATM   18  C   UNL     1       7.710  21.383  55.565  1.00  0.00     0.012 A 
HETATM   19  C   UNL     1       7.385  25.097  55.492  1.00  0.00     0.037 A 
HETATM   20  C   UNL     1       7.944  20.326  54.684  1.00  0.00     0.001 A 
HETATM   21  C   UNL     1       8.133  20.580  53.329  1.00  0.00     0.001 A 
ENDBRANCH  11  12
ENDBRANCH   9  11
ENDBRANCH   6   9
ENDBRANCH   1   5
BRANCH   2  22
HETATM   22  C   UNL     1       6.830  31.246  58.526  1.00  0.00     0.105 C 
BRANCH  22  23
HETATM   23  C   UNL     1       6.013  32.452  58.982  1.00  0.00     0.014 C 
BRANCH  23  24
HETATM   24  C   UNL     1       5.021  32.064  60.080  1.00  0.00     0.039 C 
BRANCH  24  25
HETATM   25  C   UNL     1       5.491  32.508  61.445  1.00  0.00    -0.056 A 
HETATM   26  C   UNL     1       4.558  32.760  62.465  1.00  0.00     0.039 A 
HETATM   27  C   UNL     1       5.058  33.144  63.688  1.00  0.00     0.063 A 
HETATM   28  C   UNL     1       6.424  33.278  63.926  1.00  0.00     0.063 A 
HETATM   29  N   UNL     1       4.387  33.456  64.865  1.00  0.00    -0.306 N 
HETATM   30  N   UNL     1       6.593  33.674  65.248  1.00  0.00    -0.307 N 
HETATM   31  C   UNL     1       7.364  33.035  62.955  1.00  0.00     0.032 A 
HETATM   32  C   UNL     1       5.331  33.789  65.848  1.00  0.00     0.325 A 
HETATM   33  H   UNL     1       7.460  33.852  65.727  1.00  0.00     0.170 HD
HETATM   34  O   UNL     1       5.100  34.113  66.998  1.00  0.00    -0.247 OA
HETATM   35  C   UNL     1       6.883  32.641  61.700  1.00  0.00     0.009 A 
HETATM   36  H   UNL     1       3.393  33.450  65.022  1.00  0.00     0.170 HD
ENDBRANCH  24  25
ENDBRANCH  23  24
ENDBRANCH  22  23
ENDBRANCH   2  22
TORSDOF 8
ENDMDL
MODEL 9
REMARK VINA RESULT:      -9.6      2.509      3.110
REMARK  8 active torsions:
REMARK  status: ('A' for Active; 'I' for Inactive)
REMARK    1  A    between atoms: C_2  and  O_3 
REMARK    2  A    between atoms: C_2  and  C_14 
REMARK    3  A    between atoms: O_3  and  C_4 
REMARK       I    between atoms: C_14  and  N_15 
REMARK    4  A    between atoms: N_15  and  N_16 
REMARK       I    between atoms: N_16  and  C_17 
REMARK    5  A    between atoms: C_17  and  C_18 
REMARK    6  A    between atoms: C_18  and  C_19 
REMARK    7  A    between atoms: C_19  and  C_20 
REMARK    8  A    between atoms: C_20  and  C_21 
ROOT
HETATM    1  N   UNL     1       7.627  30.732  59.830  1.00  0.00    -0.267 N 
HETATM    2  C   UNL     1       8.482  30.947  60.895  1.00  0.00     0.236 C 
HETATM    3  O   UNL     1       9.392  30.174  61.185  1.00  0.00    -0.272 OA
HETATM    4  H   UNL     1       7.119  31.516  59.420  1.00  0.00     0.190 HD
ENDROOT
BRANCH   1   5
HETATM    5  N   UNL     1       7.999  29.733  58.907  1.00  0.00    -0.265 N 
HETATM    6  C   UNL     1       7.215  29.613  57.769  1.00  0.00     0.265 C 
HETATM    7  O   UNL     1       6.112  30.152  57.677  1.00  0.00    -0.269 OA
HETATM    8  H   UNL     1       9.007  29.592  58.797  1.00  0.00     0.190 HD
BRANCH   6   9
HETATM    9  C   UNL     1       7.803  28.664  56.714  1.00  0.00     0.218 C 
HETATM   10  C   UNL     1       9.268  28.380  57.023  1.00  0.00     0.050 C 
BRANCH   9  11
HETATM   11  O   UNL     1       7.056  27.444  56.748  1.00  0.00    -0.337 OA
BRANCH  11  12
HETATM   12  C   UNL     1       7.223  26.548  55.729  1.00  0.00     0.070 A 
HETATM   13  C   UNL     1       7.421  25.227  56.143  1.00  0.00     0.049 A 
HETATM   14  C   UNL     1       7.609  24.191  55.213  1.00  0.00    -0.023 A 
HETATM   15  C   UNL     1       7.607  24.496  53.834  1.00  0.00    -0.026 A 
HETATM   16  C   UNL     1       7.798  22.861  55.621  1.00  0.00     0.012 A 
HETATM   17  C   UNL     1       7.422  25.825  53.429  1.00  0.00     0.015 A 
HETATM   18  C   UNL     1       7.795  23.463  52.900  1.00  0.00     0.012 A 
HETATM   19  C   UNL     1       7.234  26.845  54.369  1.00  0.00     0.037 A 
HETATM   20  C   UNL     1       7.982  22.146  53.323  1.00  0.00     0.001 A 
HETATM   21  C   UNL     1       7.983  21.846  54.682  1.00  0.00     0.001 A 
ENDBRANCH  11  12
ENDBRANCH   9  11
ENDBRANCH   6   9
ENDBRANCH   1   5
BRANCH   2  22
HETATM   22  C   UNL     1       8.136  32.191  61.689  1.00  0.00     0.105 C 
BRANCH  22  23
HETATM   23  C   UNL     1       7.993  31.898  63.181  1.00  0.00     0.014 C 
BRANCH  23  24
HETATM   24  C   UNL     1       7.412  33.101  63.926  1.00  0.00     0.039 C 
BRANCH  24  25
HETATM   25  C   UNL     1       6.141  33.602  63.281  1.00  0.00    -0.056 A 
HETATM   26  C   UNL     1       6.108  34.871  62.678  1.00  0.00     0.039 A 
HETATM   27  C   UNL     1       4.923  35.256  62.095  1.00  0.00     0.063 A 
HETATM   28  C   UNL     1       3.796  34.437  62.088  1.00  0.00     0.063 A 
HETATM   29  N   UNL     1       4.598  36.436  61.436  1.00  0.00    -0.306 N 
HETATM   30  N   UNL     1       2.778  35.113  61.425  1.00  0.00    -0.307 N 
HETATM   31  C   UNL     1       3.794  33.190  62.661  1.00  0.00     0.032 A 
HETATM   32  C   UNL     1       3.263  36.362  61.011  1.00  0.00     0.325 A 
HETATM   33  H   UNL     1       1.841  34.789  61.250  1.00  0.00     0.170 HD
HETATM   34  O   UNL     1       2.645  37.216  60.402  1.00  0.00    -0.247 OA
HETATM   35  C   UNL     1       4.988  32.772  63.262  1.00  0.00     0.009 A 
HETATM   36  H   UNL     1       5.196  37.227  61.268  1.00  0.00     0.170 HD
ENDBRANCH  24  25
ENDBRANCH  23  24
ENDBRANCH  22  23
ENDBRANCH   2  22
TORSDOF 8
ENDMDL
MODEL 10
REMARK VINA RESULT:      -9.6      2.154      3.458
REMARK  8 active torsions:
REMARK  status: ('A' for Active; 'I' for Inactive)
REMARK    1  A    between atoms: C_2  and  O_3 
REMARK    2  A    between atoms: C_2  and  C_14 
REMARK    3  A    between atoms: O_3  and  C_4 
REMARK       I    between atoms: C_14  and  N_15 
REMARK    4  A    between atoms: N_15  and  N_16 
REMARK       I    between atoms: N_16  and  C_17 
REMARK    5  A    between atoms: C_17  and  C_18 
REMARK    6  A    between atoms: C_18  and  C_19 
REMARK    7  A    between atoms: C_19  and  C_20 
REMARK    8  A    between atoms: C_20  and  C_21 
ROOT
HETATM    1  N   UNL     1       4.411  28.149  55.363  1.00  0.00    -0.267 N 
HETATM    2  C   UNL     1       5.227  28.476  56.431  1.00  0.00     0.236 C 
HETATM    3  O   UNL     1       5.976  27.665  56.969  1.00  0.00    -0.272 OA
HETATM    4  H   UNL     1       4.066  28.882  54.744  1.00  0.00     0.190 HD
ENDROOT
BRANCH   1   5
HETATM    5  N   UNL     1       4.663  26.917  54.724  1.00  0.00    -0.265 N 
HETATM    6  C   UNL     1       4.828  26.953  53.347  1.00  0.00     0.265 C 
HETATM    7  O   UNL     1       4.518  27.939  52.678  1.00  0.00    -0.269 OA
HETATM    8  H   UNL     1       5.251  26.264  55.249  1.00  0.00     0.190 HD
BRANCH   6   9
HETATM    9  C   UNL     1       5.315  25.623  52.752  1.00  0.00     0.218 C 
HETATM   10  C   UNL     1       5.175  25.646  51.234  1.00  0.00     0.050 C 
BRANCH   9  11
HETATM   11  O   UNL     1       6.690  25.454  53.109  1.00  0.00    -0.337 OA
BRANCH  11  12
HETATM   12  C   UNL     1       7.132  24.200  53.427  1.00  0.00     0.070 A 
HETATM   13  C   UNL     1       7.342  23.987  54.793  1.00  0.00     0.049 A 
HETATM   14  C   UNL     1       7.797  22.749  55.277  1.00  0.00    -0.023 A 
HETATM   15  C   UNL     1       8.055  21.705  54.362  1.00  0.00    -0.026 A 
HETATM   16  C   UNL     1       8.000  22.524  56.648  1.00  0.00     0.012 A 
HETATM   17  C   UNL     1       7.856  21.933  52.992  1.00  0.00     0.015 A 
HETATM   18  C   UNL     1       8.512  20.466  54.841  1.00  0.00     0.012 A 
HETATM   19  C   UNL     1       7.400  23.172  52.528  1.00  0.00     0.037 A 
HETATM   20  C   UNL     1       8.708  20.259  56.207  1.00  0.00     0.001 A 
HETATM   21  C   UNL     1       8.452  21.288  57.109  1.00  0.00     0.001 A 
ENDBRANCH  11  12
ENDBRANCH   9  11
ENDBRANCH   6   9
ENDBRANCH   1   5
BRANCH   2  22
HETATM   22  C   UNL     1       5.050  29.909  56.892  1.00  0.00     0.105 C 
BRANCH  22  23
HETATM   23  C   UNL     1       6.090  30.308  57.936  1.00  0.00     0.014 C 
BRANCH  23  24
HETATM   24  C   UNL     1       5.919  31.769  58.354  1.00  0.00     0.039 C 
BRANCH  24  25
HETATM   25  C   UNL     1       6.580  32.056  59.682  1.00  0.00    -0.056 A 
HETATM   26  C   UNL     1       5.796  32.334  60.815  1.00  0.00     0.039 A 
HETATM   27  C   UNL     1       6.464  32.568  61.995  1.00  0.00     0.063 A 
HETATM   28  C   UNL     1       7.853  32.532  62.084  1.00  0.00     0.063 A 
HETATM   29  N   UNL     1       5.962  32.866  63.257  1.00  0.00    -0.306 N 
HETATM   30  N   UNL     1       8.207  32.806  63.400  1.00  0.00    -0.307 N 
HETATM   31  C   UNL     1       8.650  32.257  61.000  1.00  0.00     0.032 A 
HETATM   32  C   UNL     1       7.037  33.017  64.145  1.00  0.00     0.325 A 
HETATM   33  H   UNL     1       9.134  32.851  63.789  1.00  0.00     0.170 HD
HETATM   34  O   UNL     1       6.969  33.279  65.332  1.00  0.00    -0.247 OA
HETATM   35  C   UNL     1       7.997  32.014  59.786  1.00  0.00     0.009 A 
HETATM   36  H   UNL     1       4.997  32.959  63.524  1.00  0.00     0.170 HD
ENDBRANCH  24  25
ENDBRANCH  23  24
ENDBRANCH  22  23
ENDBRANCH   2  22
TORSDOF 8
ENDMDL
