MODEL 1
REMARK VINA RESULT:      -8.5      0.000      0.000
REMARK  5 active torsions:
REMARK  status: ('A' for Active; 'I' for Inactive)
REMARK    1  A    between atoms: C_3  and  N_4 
REMARK       I    between atoms: N_4  and  C_5 
REMARK       I    between atoms: C_5  and  N_6 
REMARK    2  A    between atoms: N_6  and  C_7 
REMARK    3  A    between atoms: C_7  and  C_8 
REMARK    4  A    between atoms: C_8  and  O_9 
REMARK    5  A    between atoms: O_9  and  C_10 
ROOT
HETATM    1  N   UNL     1       8.319  28.157  56.980  1.00  0.00    -0.307 N 
HETATM    2  C   UNL     1       7.600  28.135  55.806  1.00  0.00     0.320 C 
HETATM    3  N   UNL     1       7.451  26.841  55.354  1.00  0.00    -0.340 N 
HETATM    4  O   UNL     1       7.095  29.093  55.238  1.00  0.00    -0.247 OA
HETATM    5  H   UNL     1       8.192  27.311  57.518  1.00  0.00     0.170 HD
HETATM    6  H   UNL     1       8.165  26.175  55.617  1.00  0.00     0.164 HD
ENDROOT
BRANCH   3   7
HETATM    7  C   UNL     1       6.710  26.543  54.138  1.00  0.00     0.156 C 
BRANCH   7   8
HETATM    8  C   UNL     1       6.269  25.071  54.028  1.00  0.00     0.142 C 
HETATM    9  C   UNL     1       4.992  24.905  53.205  1.00  0.00     0.042 C 
BRANCH   8  10
HETATM   10  O   UNL     1       7.291  24.297  53.377  1.00  0.00    -0.345 OA
BRANCH  10  11
HETATM   11  C   UNL     1       7.619  23.068  53.877  1.00  0.00     0.070 A 
HETATM   12  C   UNL     1       7.793  22.739  55.222  1.00  0.00     0.060 A 
HETATM   13  C   UNL     1       8.143  21.434  55.577  1.00  0.00     0.036 A 
HETATM   14 CL   UNL     1       8.362  21.036  57.239  1.00  0.00    -0.084 Cl
HETATM   15  C   UNL     1       8.323  20.451  54.607  1.00  0.00     0.024 A 
HETATM   16  C   UNL     1       8.152  20.776  53.264  1.00  0.00     0.004 A 
HETATM   17  C   UNL     1       7.804  22.081  52.905  1.00  0.00     0.037 A 
ENDBRANCH  10  11
ENDBRANCH   8  10
ENDBRANCH   7   8
ENDBRANCH   3   7
BRANCH   1  18
HETATM   18  C   UNL     1       8.677  29.310  57.719  1.00  0.00     0.059 A 
HETATM   19  C   UNL     1       9.855  30.058  57.570  1.00  0.00    -0.032 A 
HETATM   20  C   UNL     1      10.986  29.700  56.649  1.00  0.00     0.050 C 
HETATM   21  C   UNL     1      10.011  31.213  58.356  1.00  0.00     0.028 A 
HETATM   22  C   UNL     1       9.043  31.544  59.290  1.00  0.00     0.117 A 
HETATM   23  N   UNL     1       7.938  30.810  59.507  1.00  0.00    -0.271 NA
HETATM   24  C   UNL     1       7.787  29.719  58.719  1.00  0.00     0.146 A 
ENDBRANCH   1  18
TORSDOF 5
ENDMDL
MODEL 2
REMARK VINA RESULT:      -8.4      3.370      8.460
REMARK  5 active torsions:
REMARK  status: ('A' for Active; 'I' for Inactive)
REMARK    1  A    between atoms: C_3  and  N_4 
REMARK       I    between atoms: N_4  and  C_5 
REMARK       I    between atoms: C_5  and  N_6 
REMARK    2  A    between atoms: N_6  and  C_7 
REMARK    3  A    between atoms: C_7  and  C_8 
REMARK    4  A    between atoms: C_8  and  O_9 
REMARK    5  A    between atoms: O_9  and  C_10 
ROOT
HETATM    1  N   UNL     1       8.890  23.410  55.668  1.00  0.00    -0.307 N 
HETATM    2  C   UNL     1       7.871  24.128  56.251  1.00  0.00     0.320 C 
HETATM    3  N   UNL     1       8.381  25.123  57.058  1.00  0.00    -0.340 N 
HETATM    4  O   UNL     1       6.671  23.981  56.065  1.00  0.00    -0.247 OA
HETATM    5  H   UNL     1       9.719  23.971  55.530  1.00  0.00     0.170 HD
HETATM    6  H   UNL     1       9.294  24.967  57.462  1.00  0.00     0.164 HD
ENDROOT
BRANCH   3   7
HETATM    7  C   UNL     1       7.507  26.039  57.776  1.00  0.00     0.156 C 
BRANCH   7   8
HETATM    8  C   UNL     1       7.269  27.371  57.040  1.00  0.00     0.142 C 
HETATM    9  C   UNL     1       5.977  27.362  56.225  1.00  0.00     0.042 C 
BRANCH   8  10
HETATM   10  O   UNL     1       7.160  28.446  57.988  1.00  0.00    -0.345 OA
BRANCH  10  11
HETATM   11  C   UNL     1       8.197  29.327  58.121  1.00  0.00     0.070 A 
HETATM   12  C   UNL     1       8.394  30.226  59.170  1.00  0.00     0.060 A 
HETATM   13  C   UNL     1       9.503  31.076  59.157  1.00  0.00     0.036 A 
HETATM   14 CL   UNL     1       9.736  32.186  60.454  1.00  0.00    -0.084 Cl
HETATM   15  C   UNL     1      10.418  31.042  58.109  1.00  0.00     0.024 A 
HETATM   16  C   UNL     1      10.224  30.149  57.059  1.00  0.00     0.004 A 
HETATM   17  C   UNL     1       9.116  29.299  57.068  1.00  0.00     0.037 A 
ENDBRANCH  10  11
ENDBRANCH   8  10
ENDBRANCH   7   8
ENDBRANCH   3   7
BRANCH   1  18
HETATM   18  C   UNL     1       8.740  22.307  54.792  1.00  0.00     0.059 A 
HETATM   19  C   UNL     1       8.339  22.364  53.449  1.00  0.00    -0.032 A 
HETATM   20  C   UNL     1       7.913  23.615  52.734  1.00  0.00     0.050 C 
HETATM   21  C   UNL     1       8.303  21.165  52.716  1.00  0.00     0.028 A 
HETATM   22  C   UNL     1       8.596  19.966  53.346  1.00  0.00     0.117 A 
HETATM   23  N   UNL     1       8.913  19.870  54.649  1.00  0.00    -0.271 NA
HETATM   24  C   UNL     1       8.976  21.037  55.332  1.00  0.00     0.146 A 
ENDBRANCH   1  18
TORSDOF 5
ENDMDL
MODEL 3
REMARK VINA RESULT:      -8.4      1.082      1.653
REMARK  5 active torsions:
REMARK  status: ('A' for Active; 'I' for Inactive)
REMARK    1  A    between atoms: C_3  and  N_4 
REMARK       I    between atoms: N_4  and  C_5 
REMARK       I    between atoms: C_5  and  N_6 
REMARK    2  A    between atoms: N_6  and  C_7 
REMARK    3  A    between atoms: C_7  and  C_8 
REMARK    4  A    between atoms: C_8  and  O_9 
REMARK    5  A    between atoms: O_9  and  C_10 
ROOT
HETATM    1  N   UNL     1       8.209  27.878  56.755  1.00  0.00    -0.307 N 
HETATM    2  C   UNL     1       7.292  27.896  55.728  1.00  0.00     0.320 C 
HETATM    3  N   UNL     1       6.680  26.666  55.605  1.00  0.00    -0.340 N 
HETATM    4  O   UNL     1       6.985  28.857  55.036  1.00  0.00    -0.247 OA
HETATM    5  H   UNL     1       7.951  27.226  57.482  1.00  0.00     0.170 HD
HETATM    6  H   UNL     1       7.205  25.857  55.908  1.00  0.00     0.164 HD
ENDROOT
BRANCH   3   7
HETATM    7  C   UNL     1       5.653  26.428  54.602  1.00  0.00     0.156 C 
BRANCH   7   8
HETATM    8  C   UNL     1       5.661  24.994  54.038  1.00  0.00     0.142 C 
HETATM    9  C   UNL     1       4.833  24.866  52.761  1.00  0.00     0.042 C 
BRANCH   8  10
HETATM   10  O   UNL     1       7.004  24.601  53.710  1.00  0.00    -0.345 OA
BRANCH  10  11
HETATM   11  C   UNL     1       7.429  23.342  54.031  1.00  0.00     0.070 A 
HETATM   12  C   UNL     1       7.613  22.830  55.316  1.00  0.00     0.060 A 
HETATM   13  C   UNL     1       8.068  21.520  55.483  1.00  0.00     0.036 A 
HETATM   14 CL   UNL     1       8.298  20.897  57.072  1.00  0.00    -0.084 Cl
HETATM   15  C   UNL     1       8.344  20.712  54.382  1.00  0.00     0.024 A 
HETATM   16  C   UNL     1       8.164  21.220  53.098  1.00  0.00     0.004 A 
HETATM   17  C   UNL     1       7.711  22.530  52.928  1.00  0.00     0.037 A 
ENDBRANCH  10  11
ENDBRANCH   8  10
ENDBRANCH   7   8
ENDBRANCH   3   7
BRANCH   1  18
HETATM   18  C   UNL     1       9.032  28.957  57.158  1.00  0.00     0.059 A 
HETATM   19  C   UNL     1       8.650  30.029  57.979  1.00  0.00    -0.032 A 
HETATM   20  C   UNL     1       7.260  30.256  58.500  1.00  0.00     0.050 C 
HETATM   21  C   UNL     1       9.625  30.982  58.322  1.00  0.00     0.028 A 
HETATM   22  C   UNL     1      10.903  30.877  57.796  1.00  0.00     0.117 A 
HETATM   23  N   UNL     1      11.280  29.903  56.950  1.00  0.00    -0.271 NA
HETATM   24  C   UNL     1      10.338  28.976  56.656  1.00  0.00     0.146 A 
ENDBRANCH   1  18
TORSDOF 5
ENDMDL
MODEL 4
REMARK VINA RESULT:      -8.3      1.751      2.125
REMARK  5 active torsions:
REMARK  status: ('A' for Active; 'I' for Inactive)
REMARK    1  A    between atoms: C_3  and  N_4 
REMARK       I    between atoms: N_4  and  C_5 
REMARK       I    between atoms: C_5  and  N_6 
REMARK    2  A    between atoms: N_6  and  C_7 
REMARK    3  A    between atoms: C_7  and  C_8 
REMARK    4  A    between atoms: C_8  and  O_9 
REMARK    5  A    between atoms: O_9  and  C_10 
ROOT
HETATM    1  N   UNL     1       7.388  29.249  57.139  1.00  0.00    -0.307 N 
HETATM    2  C   UNL     1       7.300  27.889  57.330  1.00  0.00     0.320 C 
HETATM    3  N   UNL     1       6.458  27.322  56.397  1.00  0.00    -0.340 N 
HETATM    4  O   UNL     1       7.910  27.224  58.157  1.00  0.00    -0.247 OA
HETATM    5  H   UNL     1       7.256  29.505  56.171  1.00  0.00     0.170 HD
HETATM    6  H   UNL     1       5.728  27.909  56.018  1.00  0.00     0.164 HD
ENDROOT
BRANCH   3   7
HETATM    7  C   UNL     1       6.211  25.888  56.370  1.00  0.00     0.156 C 
BRANCH   7   8
HETATM    8  C   UNL     1       6.911  25.162  55.205  1.00  0.00     0.142 C 
HETATM    9  C   UNL     1       7.372  26.125  54.113  1.00  0.00     0.042 C 
BRANCH   8  10
HETATM   10  O   UNL     1       8.081  24.478  55.683  1.00  0.00    -0.345 OA
BRANCH  10  11
HETATM   11  C   UNL     1       8.199  23.132  55.475  1.00  0.00     0.070 A 
HETATM   12  C   UNL     1       8.208  22.480  54.242  1.00  0.00     0.060 A 
HETATM   13  C   UNL     1       8.324  21.088  54.193  1.00  0.00     0.036 A 
HETATM   14 CL   UNL     1       8.328  20.290  52.666  1.00  0.00    -0.084 Cl
HETATM   15  C   UNL     1       8.430  20.337  55.360  1.00  0.00     0.024 A 
HETATM   16  C   UNL     1       8.419  20.984  56.593  1.00  0.00     0.004 A 
HETATM   17  C   UNL     1       8.302  22.375  56.646  1.00  0.00     0.037 A 
ENDBRANCH  10  11
ENDBRANCH   8  10
ENDBRANCH   7   8
ENDBRANCH   3   7
BRANCH   1  18
HETATM   18  C   UNL     1       8.147  30.155  57.918  1.00  0.00     0.059 A 
HETATM   19  C   UNL     1       9.528  30.383  57.812  1.00  0.00    -0.032 A 
HETATM   20  C   UNL     1      10.453  29.630  56.901  1.00  0.00     0.050 C 
HETATM   21  C   UNL     1      10.102  31.368  58.635  1.00  0.00     0.028 A 
HETATM   22  C   UNL     1       9.315  32.033  59.562  1.00  0.00     0.117 A 
HETATM   23  N   UNL     1       8.006  31.786  59.738  1.00  0.00    -0.271 NA
HETATM   24  C   UNL     1       7.462  30.858  58.915  1.00  0.00     0.146 A 
ENDBRANCH   1  18
TORSDOF 5
ENDMDL
MODEL 5
REMARK VINA RESULT:      -8.3      6.445     10.764
REMARK  5 active torsions:
REMARK  status: ('A' for Active; 'I' for Inactive)
REMARK    1  A    between atoms: C_3  and  N_4 
REMARK       I    between atoms: N_4  and  C_5 
REMARK       I    between atoms: C_5  and  N_6 
REMARK    2  A    between atoms: N_6  and  C_7 
REMARK    3  A    between atoms: C_7  and  C_8 
REMARK    4  A    between atoms: C_8  and  O_9 
REMARK    5  A    between atoms: O_9  and  C_10 
ROOT
HETATM    1  N   UNL     1       7.440  30.893  59.603  1.00  0.00    -0.307 N 
HETATM    2  C   UNL     1       6.406  31.770  59.361  1.00  0.00     0.320 C 
HETATM    3  N   UNL     1       5.522  31.779  60.420  1.00  0.00    -0.340 N 
HETATM    4  O   UNL     1       6.277  32.501  58.389  1.00  0.00    -0.247 OA
HETATM    5  H   UNL     1       7.637  30.802  60.590  1.00  0.00     0.170 HD
HETATM    6  H   UNL     1       5.459  30.937  60.975  1.00  0.00     0.164 HD
ENDROOT
BRANCH   3   7
HETATM    7  C   UNL     1       4.349  32.640  60.420  1.00  0.00     0.156 C 
BRANCH   7   8
HETATM    8  C   UNL     1       4.170  33.440  61.724  1.00  0.00     0.142 C 
HETATM    9  C   UNL     1       2.768  34.031  61.857  1.00  0.00     0.042 C 
BRANCH   8  10
HETATM   10  O   UNL     1       4.374  32.584  62.860  1.00  0.00    -0.345 OA
BRANCH  10  11
HETATM   11  C   UNL     1       5.156  33.019  63.893  1.00  0.00     0.070 A 
HETATM   12  C   UNL     1       4.714  33.602  65.082  1.00  0.00     0.060 A 
HETATM   13  C   UNL     1       5.643  34.010  66.043  1.00  0.00     0.036 A 
HETATM   14 CL   UNL     1       5.089  34.733  67.505  1.00  0.00    -0.084 Cl
HETATM   15  C   UNL     1       7.009  33.845  65.833  1.00  0.00     0.024 A 
HETATM   16  C   UNL     1       7.455  33.267  64.647  1.00  0.00     0.004 A 
HETATM   17  C   UNL     1       6.530  32.859  63.684  1.00  0.00     0.037 A 
ENDBRANCH  10  11
ENDBRANCH   8  10
ENDBRANCH   7   8
ENDBRANCH   3   7
BRANCH   1  18
HETATM   18  C   UNL     1       8.520  30.615  58.731  1.00  0.00     0.059 A 
HETATM   19  C   UNL     1       8.634  29.505  57.881  1.00  0.00    -0.032 A 
HETATM   20  C   UNL     1       7.655  28.367  57.822  1.00  0.00     0.050 C 
HETATM   21  C   UNL     1       9.758  29.426  57.040  1.00  0.00     0.028 A 
HETATM   22  C   UNL     1      10.742  30.398  57.115  1.00  0.00     0.117 A 
HETATM   23  N   UNL     1      10.696  31.436  57.969  1.00  0.00    -0.271 NA
HETATM   24  C   UNL     1       9.593  31.514  58.749  1.00  0.00     0.146 A 
ENDBRANCH   1  18
TORSDOF 5
ENDMDL
MODEL 6
REMARK VINA RESULT:      -7.9      3.651      7.303
REMARK  5 active torsions:
REMARK  status: ('A' for Active; 'I' for Inactive)
REMARK    1  A    between atoms: C_3  and  N_4 
REMARK       I    between atoms: N_4  and  C_5 
REMARK       I    between atoms: C_5  and  N_6 
REMARK    2  A    between atoms: N_6  and  C_7 
REMARK    3  A    between atoms: C_7  and  C_8 
REMARK    4  A    between atoms: C_8  and  O_9 
REMARK    5  A    between atoms: O_9  and  C_10 
ROOT
HETATM    1  N   UNL     1       8.141  23.564  52.809  1.00  0.00    -0.307 N 
HETATM    2  C   UNL     1       7.015  24.356  52.824  1.00  0.00     0.320 C 
HETATM    3  N   UNL     1       7.134  25.385  51.914  1.00  0.00    -0.340 N 
HETATM    4  O   UNL     1       6.003  24.178  53.488  1.00  0.00    -0.247 OA
HETATM    5  H   UNL     1       8.586  23.555  51.902  1.00  0.00     0.170 HD
HETATM    6  H   UNL     1       8.069  25.700  51.694  1.00  0.00     0.164 HD
ENDROOT
BRANCH   3   7
HETATM    7  C   UNL     1       6.067  26.355  51.721  1.00  0.00     0.156 C 
BRANCH   7   8
HETATM    8  C   UNL     1       6.259  27.653  52.528  1.00  0.00     0.142 C 
HETATM    9  C   UNL     1       5.432  28.811  51.972  1.00  0.00     0.042 C 
BRANCH   8  10
HETATM   10  O   UNL     1       5.841  27.454  53.889  1.00  0.00    -0.345 OA
BRANCH  10  11
HETATM   11  C   UNL     1       6.745  27.637  54.898  1.00  0.00     0.070 A 
HETATM   12  C   UNL     1       7.824  28.523  54.897  1.00  0.00     0.060 A 
HETATM   13  C   UNL     1       8.672  28.586  56.006  1.00  0.00     0.036 A 
HETATM   14 CL   UNL     1      10.004  29.678  55.994  1.00  0.00    -0.084 Cl
HETATM   15  C   UNL     1       8.458  27.775  57.117  1.00  0.00     0.024 A 
HETATM   16  C   UNL     1       7.385  26.888  57.121  1.00  0.00     0.004 A 
HETATM   17  C   UNL     1       6.536  26.822  56.014  1.00  0.00     0.037 A 
ENDBRANCH  10  11
ENDBRANCH   8  10
ENDBRANCH   7   8
ENDBRANCH   3   7
BRANCH   1  18
HETATM   18  C   UNL     1       8.373  22.428  53.621  1.00  0.00     0.059 A 
HETATM   19  C   UNL     1       8.678  22.437  54.990  1.00  0.00    -0.032 A 
HETATM   20  C   UNL     1       8.896  23.675  55.812  1.00  0.00     0.050 C 
HETATM   21  C   UNL     1       8.819  21.201  55.646  1.00  0.00     0.028 A 
HETATM   22  C   UNL     1       8.720  20.023  54.922  1.00  0.00     0.117 A 
HETATM   23  N   UNL     1       8.501  19.984  53.597  1.00  0.00    -0.271 NA
HETATM   24  C   UNL     1       8.335  21.181  52.987  1.00  0.00     0.146 A 
ENDBRANCH   1  18
TORSDOF 5
ENDMDL
MODEL 7
REMARK VINA RESULT:      -7.9      3.874      6.382
REMARK  5 active torsions:
REMARK  status: ('A' for Active; 'I' for Inactive)
REMARK    1  A    between atoms: C_3  and  N_4 
REMARK       I    between atoms: N_4  and  C_5 
REMARK       I    between atoms: C_5  and  N_6 
REMARK    2  A    between atoms: N_6  and  C_7 
REMARK    3  A    between atoms: C_7  and  C_8 
REMARK    4  A    between atoms: C_8  and  O_9 
REMARK    5  A    between atoms: O_9  and  C_10 
ROOT
HETATM    1  N   UNL     1       6.716  31.184  61.724  1.00  0.00    -0.307 N 
HETATM    2  C   UNL     1       7.519  31.505  60.653  1.00  0.00     0.320 C 
HETATM    3  N   UNL     1       8.098  30.369  60.126  1.00  0.00    -0.340 N 
HETATM    4  O   UNL     1       7.680  32.614  60.163  1.00  0.00    -0.247 OA
HETATM    5  H   UNL     1       6.324  30.257  61.641  1.00  0.00     0.170 HD
HETATM    6  H   UNL     1       8.242  29.591  60.755  1.00  0.00     0.164 HD
ENDROOT
BRANCH   3   7
HETATM    7  C   UNL     1       8.979  30.435  58.970  1.00  0.00     0.156 C 
BRANCH   7   8
HETATM    8  C   UNL     1       8.597  29.453  57.846  1.00  0.00     0.142 C 
HETATM    9  C   UNL     1       9.796  29.056  56.987  1.00  0.00     0.042 C 
BRANCH   8  10
HETATM   10  O   UNL     1       8.065  28.242  58.409  1.00  0.00    -0.345 OA
BRANCH  10  11
HETATM   11  C   UNL     1       7.287  27.429  57.631  1.00  0.00     0.070 A 
HETATM   12  C   UNL     1       7.589  26.127  57.231  1.00  0.00     0.060 A 
HETATM   13  C   UNL     1       6.693  25.425  56.420  1.00  0.00     0.036 A 
HETATM   14 CL   UNL     1       7.075  23.819  55.926  1.00  0.00    -0.084 Cl
HETATM   15  C   UNL     1       5.500  26.007  56.002  1.00  0.00     0.024 A 
HETATM   16  C   UNL     1       5.196  27.307  56.397  1.00  0.00     0.004 A 
HETATM   17  C   UNL     1       6.090  28.012  57.206  1.00  0.00     0.037 A 
ENDBRANCH  10  11
ENDBRANCH   8  10
ENDBRANCH   7   8
ENDBRANCH   3   7
BRANCH   1  18
HETATM   18  C   UNL     1       5.977  32.097  62.516  1.00  0.00     0.059 A 
HETATM   19  C   UNL     1       6.493  32.929  63.520  1.00  0.00    -0.032 A 
HETATM   20  C   UNL     1       7.921  32.925  63.987  1.00  0.00     0.050 C 
HETATM   21  C   UNL     1       5.613  33.817  64.164  1.00  0.00     0.028 A 
HETATM   22  C   UNL     1       4.265  33.802  63.842  1.00  0.00     0.117 A 
HETATM   23  N   UNL     1       3.728  32.967  62.936  1.00  0.00    -0.271 NA
HETATM   24  C   UNL     1       4.594  32.142  62.302  1.00  0.00     0.146 A 
ENDBRANCH   1  18
TORSDOF 5
ENDMDL
MODEL 8
REMARK VINA RESULT:      -7.8      4.118      7.150
REMARK  5 active torsions:
REMARK  status: ('A' for Active; 'I' for Inactive)
REMARK    1  A    between atoms: C_3  and  N_4 
REMARK       I    between atoms: N_4  and  C_5 
REMARK       I    between atoms: C_5  and  N_6 
REMARK    2  A    between atoms: N_6  and  C_7 
REMARK    3  A    between atoms: C_7  and  C_8 
REMARK    4  A    between atoms: C_8  and  O_9 
REMARK    5  A    between atoms: O_9  and  C_10 
ROOT
HETATM    1  N   UNL     1       5.264  26.005  50.431  1.00  0.00    -0.307 N 
HETATM    2  C   UNL     1       5.106  26.158  51.790  1.00  0.00     0.320 C 
HETATM    3  N   UNL     1       5.649  25.084  52.464  1.00  0.00    -0.340 N 
HETATM    4  O   UNL     1       4.615  27.118  52.366  1.00  0.00    -0.247 OA
HETATM    5  H   UNL     1       6.090  25.469  50.203  1.00  0.00     0.170 HD
HETATM    6  H   UNL     1       5.683  24.201  51.974  1.00  0.00     0.164 HD
ENDROOT
BRANCH   3   7
HETATM    7  C   UNL     1       5.629  25.014  53.917  1.00  0.00     0.156 C 
BRANCH   7   8
HETATM    8  C   UNL     1       7.026  25.109  54.559  1.00  0.00     0.142 C 
HETATM    9  C   UNL     1       7.319  26.503  55.112  1.00  0.00     0.042 C 
BRANCH   8  10
HETATM   10  O   UNL     1       7.126  24.192  55.661  1.00  0.00    -0.345 OA
BRANCH  10  11
HETATM   11  C   UNL     1       7.614  22.934  55.440  1.00  0.00     0.070 A 
HETATM   12  C   UNL     1       7.750  22.301  54.204  1.00  0.00     0.060 A 
HETATM   13  C   UNL     1       8.255  21.000  54.142  1.00  0.00     0.036 A 
HETATM   14 CL   UNL     1       8.415  20.223  52.612  1.00  0.00    -0.084 Cl
HETATM   15  C   UNL     1       8.627  20.320  55.299  1.00  0.00     0.024 A 
HETATM   16  C   UNL     1       8.490  20.947  56.535  1.00  0.00     0.004 A 
HETATM   17  C   UNL     1       7.984  22.247  56.601  1.00  0.00     0.037 A 
ENDBRANCH  10  11
ENDBRANCH   8  10
ENDBRANCH   7   8
ENDBRANCH   3   7
BRANCH   1  18
HETATM   18  C   UNL     1       4.817  26.903  49.432  1.00  0.00     0.059 A 
HETATM   19  C   UNL     1       3.877  26.624  48.428  1.00  0.00    -0.032 A 
HETATM   20  C   UNL     1       3.246  25.282  48.193  1.00  0.00     0.050 C 
HETATM   21  C   UNL     1       3.511  27.664  47.555  1.00  0.00     0.028 A 
HETATM   22  C   UNL     1       4.127  28.901  47.664  1.00  0.00     0.117 A 
HETATM   23  N   UNL     1       5.083  29.177  48.567  1.00  0.00    -0.271 NA
HETATM   24  C   UNL     1       5.399  28.175  49.421  1.00  0.00     0.146 A 
ENDBRANCH   1  18
TORSDOF 5
ENDMDL
MODEL 9
REMARK VINA RESULT:      -7.8      3.108      8.668
REMARK  5 active torsions:
REMARK  status: ('A' for Active; 'I' for Inactive)
REMARK    1  A    between atoms: C_3  and  N_4 
REMARK       I    between atoms: N_4  and  C_5 
REMARK       I    between atoms: C_5  and  N_6 
REMARK    2  A    between atoms: N_6  and  C_7 
REMARK    3  A    between atoms: C_7  and  C_8 
REMARK    4  A    between atoms: C_8  and  O_9 
REMARK    5  A    between atoms: O_9  and  C_10 
ROOT
HETATM    1  N   UNL     1       8.435  24.103  55.752  1.00  0.00    -0.307 N 
HETATM    2  C   UNL     1       7.507  25.075  56.051  1.00  0.00     0.320 C 
HETATM    3  N   UNL     1       8.075  26.062  56.829  1.00  0.00    -0.340 N 
HETATM    4  O   UNL     1       6.351  25.130  55.658  1.00  0.00    -0.247 OA
HETATM    5  H   UNL     1       9.374  24.473  55.714  1.00  0.00     0.170 HD
HETATM    6  H   UNL     1       8.856  25.796  57.414  1.00  0.00     0.164 HD
ENDROOT
BRANCH   3   7
HETATM    7  C   UNL     1       7.307  27.218  57.267  1.00  0.00     0.156 C 
BRANCH   7   8
HETATM    8  C   UNL     1       7.967  28.566  56.918  1.00  0.00     0.142 C 
HETATM    9  C   UNL     1       8.292  28.686  55.430  1.00  0.00     0.042 C 
BRANCH   8  10
HETATM   10  O   UNL     1       7.079  29.648  57.243  1.00  0.00    -0.345 OA
BRANCH  10  11
HETATM   11  C   UNL     1       7.318  30.395  58.362  1.00  0.00     0.070 A 
HETATM   12  C   UNL     1       8.260  30.125  59.356  1.00  0.00     0.060 A 
HETATM   13  C   UNL     1       8.377  30.982  60.453  1.00  0.00     0.036 A 
HETATM   14 CL   UNL     1       9.538  30.639  61.678  1.00  0.00    -0.084 Cl
HETATM   15  C   UNL     1       7.564  32.106  60.573  1.00  0.00     0.024 A 
HETATM   16  C   UNL     1       6.621  32.378  59.586  1.00  0.00     0.004 A 
HETATM   17  C   UNL     1       6.500  31.523  58.488  1.00  0.00     0.037 A 
ENDBRANCH  10  11
ENDBRANCH   8  10
ENDBRANCH   7   8
ENDBRANCH   3   7
BRANCH   1  18
HETATM   18  C   UNL     1       8.202  22.935  54.986  1.00  0.00     0.059 A 
HETATM   19  C   UNL     1       8.045  22.874  53.593  1.00  0.00    -0.032 A 
HETATM   20  C   UNL     1       8.010  24.068  52.682  1.00  0.00     0.050 C 
HETATM   21  C   UNL     1       7.879  21.611  52.999  1.00  0.00     0.028 A 
HETATM   22  C   UNL     1       7.811  20.480  53.797  1.00  0.00     0.117 A 
HETATM   23  N   UNL     1       7.886  20.512  55.138  1.00  0.00    -0.271 NA
HETATM   24  C   UNL     1       8.078  21.732  55.692  1.00  0.00     0.146 A 
ENDBRANCH   1  18
TORSDOF 5
ENDMDL
MODEL 10
REMARK VINA RESULT:      -7.8      2.034      2.584
REMARK  5 active torsions:
REMARK  status: ('A' for Active; 'I' for Inactive)
REMARK    1  A    between atoms: C_3  and  N_4 
REMARK       I    between atoms: N_4  and  C_5 
REMARK       I    between atoms: C_5  and  N_6 
REMARK    2  A    between atoms: N_6  and  C_7 
REMARK    3  A    between atoms: C_7  and  C_8 
REMARK    4  A    between atoms: C_8  and  O_9 
REMARK    5  A    between atoms: O_9  and  C_10 
ROOT
HETATM    1  N   UNL     1       6.500  29.170  55.313  1.00  0.00    -0.307 N 
HETATM    2  C   UNL     1       5.633  28.131  55.059  1.00  0.00     0.320 C 
HETATM    3  N   UNL     1       5.476  27.953  53.701  1.00  0.00    -0.340 N 
HETATM    4  O   UNL     1       5.100  27.402  55.885  1.00  0.00    -0.247 OA
HETATM    5  H   UNL     1       7.185  29.280  54.579  1.00  0.00     0.170 HD
HETATM    6  H   UNL     1       5.609  28.763  53.111  1.00  0.00     0.164 HD
ENDROOT
BRANCH   3   7
HETATM    7  C   UNL     1       4.623  26.901  53.167  1.00  0.00     0.156 C 
BRANCH   7   8
HETATM    8  C   UNL     1       5.397  25.798  52.421  1.00  0.00     0.142 C 
HETATM    9  C   UNL     1       5.395  26.008  50.908  1.00  0.00     0.042 C 
BRANCH   8  10
HETATM   10  O   UNL     1       6.771  25.788  52.841  1.00  0.00    -0.345 OA
BRANCH  10  11
HETATM   11  C   UNL     1       7.278  24.670  53.444  1.00  0.00     0.070 A 
HETATM   12  C   UNL     1       7.449  23.416  52.857  1.00  0.00     0.060 A 
HETATM   13  C   UNL     1       7.970  22.362  53.612  1.00  0.00     0.036 A 
HETATM   14 CL   UNL     1       8.173  20.814  52.882  1.00  0.00    -0.084 Cl
HETATM   15  C   UNL     1       8.323  22.543  54.947  1.00  0.00     0.024 A 
HETATM   16  C   UNL     1       8.151  23.792  55.537  1.00  0.00     0.004 A 
HETATM   17  C   UNL     1       7.629  24.848  54.786  1.00  0.00     0.037 A 
ENDBRANCH  10  11
ENDBRANCH   8  10
ENDBRANCH   7   8
ENDBRANCH   3   7
BRANCH   1  18
HETATM   18  C   UNL     1       6.883  29.644  56.591  1.00  0.00     0.059 A 
HETATM   19  C   UNL     1       7.852  29.074  57.430  1.00  0.00    -0.032 A 
HETATM   20  C   UNL     1       8.589  27.797  57.144  1.00  0.00     0.050 C 
HETATM   21  C   UNL     1       8.141  29.721  58.645  1.00  0.00     0.028 A 
HETATM   22  C   UNL     1       7.428  30.852  59.007  1.00  0.00     0.117 A 
HETATM   23  N   UNL     1       6.445  31.381  58.259  1.00  0.00    -0.271 NA
HETATM   24  C   UNL     1       6.201  30.766  57.078  1.00  0.00     0.146 A 
ENDBRANCH   1  18
TORSDOF 5
ENDMDL
