MODEL 1
REMARK VINA RESULT:     -10.1      0.000      0.000
REMARK  9 active torsions:
REMARK  status: ('A' for Active; 'I' for Inactive)
REMARK    1  A    between atoms: C_6  and  C_7 
REMARK       I    between atoms: C_7  and  N_8 
REMARK    2  A    between atoms: N_8  and  C_9 
REMARK    3  A    between atoms: C_9  and  C_10 
REMARK    4  A    between atoms: N_15  and  C_17 
REMARK    5  A    between atoms: C_17  and  C_18 
REMARK    6  A    between atoms: C_21  and  C_22 
REMARK    7  A    between atoms: C_22  and  C_23 
REMARK    8  A    between atoms: C_23  and  C_24 
REMARK    9  A    between atoms: C_24  and  O_25 
ROOT
HETATM    1  C   UNL     1       7.079  29.782  58.018  1.00  0.00     0.140 C 
HETATM    2  O   UNL     1       6.771  28.383  57.851  1.00  0.00    -0.373 OA
HETATM    3  C   UNL     1       7.440  27.872  56.681  1.00  0.00     0.064 C 
HETATM    4  C   UNL     1       6.349  27.353  55.737  1.00  0.00     0.066 C 
HETATM    5  C   UNL     1       5.577  26.205  56.376  1.00  0.00     0.238 C 
HETATM    6  N   UNL     1       6.506  25.088  56.791  1.00  0.00    -0.067 N 
HETATM    7  H   UNL     1       5.922  24.454  57.350  1.00  0.00     0.280 HD
HETATM    8  C   UNL     1       7.574  25.588  57.740  1.00  0.00     0.238 C 
HETATM    9  C   UNL     1       8.361  26.723  57.101  1.00  0.00     0.066 C 
HETATM   10  C   UNL     1       8.224  29.041  56.080  1.00  0.00     0.041 C 
HETATM   11  C   UNL     1       7.520  30.254  56.644  1.00  0.00     0.036 C 
ENDROOT
BRANCH   1  12
HETATM   12  C   UNL     1       8.166  29.963  59.097  1.00  0.00     0.155 C 
BRANCH  12  13
HETATM   13  N   UNL     1       7.679  30.710  60.244  1.00  0.00    -0.353 N 
HETATM   14  C   UNL     1       8.064  32.006  60.511  1.00  0.00     0.270 C 
HETATM   15  O   UNL     1       8.806  32.636  59.760  1.00  0.00    -0.266 OA
HETATM   16  H   UNL     1       7.047  30.247  60.881  1.00  0.00     0.162 HD
BRANCH  14  17
HETATM   17  C   UNL     1       7.532  32.559  61.735  1.00  0.00     0.122 A 
HETATM   18  N   UNL     1       6.319  33.200  61.835  1.00  0.00    -0.269 N 
HETATM   19  N   UNL     1       6.058  33.684  63.063  1.00  0.00    -0.177 NA
HETATM   20  C   UNL     1       5.328  33.380  60.798  1.00  0.00     0.180 C 
HETATM   21  C   UNL     1       7.107  33.308  63.797  1.00  0.00     0.053 A 
HETATM   22  C   UNL     1       7.182  33.645  65.240  1.00  0.00     0.072 C 
HETATM   23  C   UNL     1       8.054  32.607  63.019  1.00  0.00     0.065 A 
ENDBRANCH  14  17
ENDBRANCH  12  13
ENDBRANCH   1  12
BRANCH   6  24
HETATM   24  C   UNL     1       7.051  24.228  55.673  1.00  0.00     0.273 C 
BRANCH  24  25
HETATM   25  C   UNL     1       6.581  24.656  54.309  1.00  0.00    -0.033 A 
HETATM   26  C   UNL     1       7.493  25.176  53.377  1.00  0.00     0.010 A 
HETATM   27  C   UNL     1       7.051  25.630  52.132  1.00  0.00     0.021 A 
HETATM   28  C   UNL     1       5.698  25.566  51.806  1.00  0.00     0.017 A 
HETATM   29  C   UNL     1       4.785  25.035  52.719  1.00  0.00     0.021 A 
HETATM   30  C   UNL     1       5.223  24.579  53.965  1.00  0.00     0.010 A 
BRANCH  28  31
HETATM   31  C   UNL     1       5.241  26.056  50.546  1.00  0.00    -0.064 C 
BRANCH  31  32
HETATM   32  C   UNL     1       4.838  26.479  49.380  1.00  0.00    -0.064 C 
BRANCH  32  33
HETATM   33  C   UNL     1       4.367  26.973  48.022  1.00  0.00     0.114 C 
HETATM   34  C   UNL     1       3.235  26.092  47.504  1.00  0.00     0.060 C 
HETATM   35  C   UNL     1       3.932  28.431  48.119  1.00  0.00     0.060 C 
BRANCH  33  36
HETATM   36  O   UNL     1       5.463  26.898  47.115  1.00  0.00    -0.378 OA
HETATM   37  H   UNL     1       6.212  26.513  47.600  1.00  0.00     0.211 HD
ENDBRANCH  33  36
ENDBRANCH  32  33
ENDBRANCH  31  32
ENDBRANCH  28  31
ENDBRANCH  24  25
ENDBRANCH   6  24
TORSDOF 9
ENDMDL
MODEL 2
REMARK VINA RESULT:      -9.6      3.253     12.017
REMARK  9 active torsions:
REMARK  status: ('A' for Active; 'I' for Inactive)
REMARK    1  A    between atoms: C_6  and  C_7 
REMARK       I    between atoms: C_7  and  N_8 
REMARK    2  A    between atoms: N_8  and  C_9 
REMARK    3  A    between atoms: C_9  and  C_10 
REMARK    4  A    between atoms: N_15  and  C_17 
REMARK    5  A    between atoms: C_17  and  C_18 
REMARK    6  A    between atoms: C_21  and  C_22 
REMARK    7  A    between atoms: C_22  and  C_23 
REMARK    8  A    between atoms: C_23  and  C_24 
REMARK    9  A    between atoms: C_24  and  O_25 
ROOT
HETATM    1  C   UNL     1       6.766  27.932  55.161  1.00  0.00     0.140 C 
HETATM    2  O   UNL     1       7.369  29.025  55.884  1.00  0.00    -0.373 OA
HETATM    3  C   UNL     1       7.969  28.534  57.099  1.00  0.00     0.064 C 
HETATM    4  C   UNL     1       7.282  29.262  58.260  1.00  0.00     0.066 C 
HETATM    5  C   UNL     1       7.530  30.764  58.185  1.00  0.00     0.238 C 
HETATM    6  N   UNL     1       9.010  31.070  58.158  1.00  0.00    -0.067 N 
HETATM    7  H   UNL     1       9.067  32.073  57.942  1.00  0.00     0.280 HD
HETATM    8  C   UNL     1       9.692  30.372  57.003  1.00  0.00     0.238 C 
HETATM    9  C   UNL     1       9.463  28.870  57.081  1.00  0.00     0.066 C 
HETATM   10  C   UNL     1       7.724  27.025  57.130  1.00  0.00     0.041 C 
HETATM   11  C   UNL     1       6.544  26.848  56.202  1.00  0.00     0.036 C 
ENDROOT
BRANCH   1  12
HETATM   12  C   UNL     1       7.687  27.484  54.009  1.00  0.00     0.155 C 
BRANCH  12  13
HETATM   13  N   UNL     1       7.904  26.047  54.010  1.00  0.00    -0.353 N 
HETATM   14  C   UNL     1       7.031  25.158  53.419  1.00  0.00     0.270 C 
HETATM   15  O   UNL     1       6.036  25.531  52.802  1.00  0.00    -0.266 OA
HETATM   16  H   UNL     1       8.720  25.688  54.485  1.00  0.00     0.162 HD
BRANCH  14  17
HETATM   17  C   UNL     1       7.376  23.765  53.587  1.00  0.00     0.122 A 
HETATM   18  N   UNL     1       7.355  23.099  54.791  1.00  0.00    -0.269 N 
HETATM   19  N   UNL     1       7.771  21.822  54.715  1.00  0.00    -0.177 NA
HETATM   20  C   UNL     1       6.928  23.610  56.074  1.00  0.00     0.180 C 
HETATM   21  C   UNL     1       8.025  21.633  53.419  1.00  0.00     0.053 A 
HETATM   22  C   UNL     1       8.497  20.318  52.923  1.00  0.00     0.072 C 
HETATM   23  C   UNL     1       7.798  22.811  52.674  1.00  0.00     0.065 A 
ENDBRANCH  14  17
ENDBRANCH  12  13
ENDBRANCH   1  12
BRANCH   6  24
HETATM   24  C   UNL     1       9.742  30.916  59.472  1.00  0.00     0.273 C 
BRANCH  24  25
HETATM   25  C   UNL     1       8.973  31.449  60.650  1.00  0.00    -0.033 A 
HETATM   26  C   UNL     1       8.229  32.635  60.533  1.00  0.00     0.010 A 
HETATM   27  C   UNL     1       7.564  33.166  61.640  1.00  0.00     0.021 A 
HETATM   28  C   UNL     1       7.631  32.517  62.871  1.00  0.00     0.017 A 
HETATM   29  C   UNL     1       8.353  31.328  62.995  1.00  0.00     0.021 A 
HETATM   30  C   UNL     1       9.020  30.794  61.890  1.00  0.00     0.010 A 
BRANCH  28  31
HETATM   31  C   UNL     1       6.974  33.073  64.010  1.00  0.00    -0.064 C 
BRANCH  31  32
HETATM   32  C   UNL     1       6.397  33.600  65.053  1.00  0.00    -0.064 C 
BRANCH  32  33
HETATM   33  C   UNL     1       5.724  34.214  66.270  1.00  0.00     0.114 C 
HETATM   34  C   UNL     1       6.726  34.354  67.412  1.00  0.00     0.060 C 
HETATM   35  C   UNL     1       5.114  35.562  65.903  1.00  0.00     0.060 C 
BRANCH  33  36
HETATM   36  O   UNL     1       4.670  33.349  66.682  1.00  0.00    -0.378 OA
HETATM   37  H   UNL     1       3.869  33.623  66.204  1.00  0.00     0.211 HD
ENDBRANCH  33  36
ENDBRANCH  32  33
ENDBRANCH  31  32
ENDBRANCH  28  31
ENDBRANCH  24  25
ENDBRANCH   6  24
TORSDOF 9
ENDMDL
MODEL 3
REMARK VINA RESULT:      -9.6      4.950      8.125
REMARK  9 active torsions:
REMARK  status: ('A' for Active; 'I' for Inactive)
REMARK    1  A    between atoms: C_6  and  C_7 
REMARK       I    between atoms: C_7  and  N_8 
REMARK    2  A    between atoms: N_8  and  C_9 
REMARK    3  A    between atoms: C_9  and  C_10 
REMARK    4  A    between atoms: N_15  and  C_17 
REMARK    5  A    between atoms: C_17  and  C_18 
REMARK    6  A    between atoms: C_21  and  C_22 
REMARK    7  A    between atoms: C_22  and  C_23 
REMARK    8  A    between atoms: C_23  and  C_24 
REMARK    9  A    between atoms: C_24  and  O_25 
ROOT
HETATM    1  C   UNL     1       5.872  26.578  56.966  1.00  0.00     0.140 C 
HETATM    2  O   UNL     1       5.568  26.196  55.608  1.00  0.00    -0.373 OA
HETATM    3  C   UNL     1       6.156  27.141  54.693  1.00  0.00     0.064 C 
HETATM    4  C   UNL     1       5.006  27.747  53.880  1.00  0.00     0.066 C 
HETATM    5  C   UNL     1       4.295  26.677  53.060  1.00  0.00     0.238 C 
HETATM    6  N   UNL     1       5.264  25.948  52.159  1.00  0.00    -0.067 N 
HETATM    7  H   UNL     1       4.730  25.156  51.784  1.00  0.00     0.280 HD
HETATM    8  C   UNL     1       6.392  25.329  52.956  1.00  0.00     0.238 C 
HETATM    9  C   UNL     1       7.118  26.395  53.763  1.00  0.00     0.066 C 
HETATM   10  C   UNL     1       6.881  28.185  55.545  1.00  0.00     0.041 C 
HETATM   11  C   UNL     1       6.207  28.058  56.892  1.00  0.00     0.036 C 
ENDROOT
BRANCH   1  12
HETATM   12  C   UNL     1       7.033  25.722  57.512  1.00  0.00     0.155 C 
BRANCH  12  13
HETATM   13  N   UNL     1       7.200  24.487  56.764  1.00  0.00    -0.353 N 
HETATM   14  C   UNL     1       8.436  23.961  56.455  1.00  0.00     0.270 C 
HETATM   15  O   UNL     1       9.482  24.478  56.842  1.00  0.00    -0.266 OA
HETATM   16  H   UNL     1       6.371  24.010  56.442  1.00  0.00     0.162 HD
BRANCH  14  17
HETATM   17  C   UNL     1       8.403  22.767  55.643  1.00  0.00     0.122 A 
HETATM   18  N   UNL     1       8.420  21.486  56.145  1.00  0.00    -0.269 N 
HETATM   19  N   UNL     1       8.442  20.530  55.198  1.00  0.00    -0.177 NA
HETATM   20  C   UNL     1       8.396  21.082  57.532  1.00  0.00     0.180 C 
HETATM   21  C   UNL     1       8.390  21.203  54.047  1.00  0.00     0.053 A 
HETATM   22  C   UNL     1       8.377  20.485  52.750  1.00  0.00     0.072 C 
HETATM   23  C   UNL     1       8.367  22.598  54.267  1.00  0.00     0.065 A 
ENDBRANCH  14  17
ENDBRANCH  12  13
ENDBRANCH   1  12
BRANCH   6  24
HETATM   24  C   UNL     1       5.736  26.708  50.940  1.00  0.00     0.273 C 
BRANCH  24  25
HETATM   25  C   UNL     1       4.631  27.013  49.964  1.00  0.00    -0.033 A 
HETATM   26  C   UNL     1       4.054  28.293  49.926  1.00  0.00     0.010 A 
HETATM   27  C   UNL     1       2.988  28.563  49.065  1.00  0.00     0.021 A 
HETATM   28  C   UNL     1       2.493  27.561  48.232  1.00  0.00     0.017 A 
HETATM   29  C   UNL     1       3.072  26.291  48.249  1.00  0.00     0.021 A 
HETATM   30  C   UNL     1       4.137  26.016  49.109  1.00  0.00     0.010 A 
BRANCH  28  31
HETATM   31  C   UNL     1       1.386  27.828  47.371  1.00  0.00    -0.064 C 
BRANCH  31  32
HETATM   32  C   UNL     1       0.395  28.080  46.563  1.00  0.00    -0.064 C 
BRANCH  32  33
HETATM   33  C   UNL     1      -0.761  28.375  45.621  1.00  0.00     0.114 C 
HETATM   34  C   UNL     1      -0.739  29.842  45.203  1.00  0.00     0.060 C 
HETATM   35  C   UNL     1      -0.692  27.454  44.407  1.00  0.00     0.060 C 
BRANCH  33  36
HETATM   36  O   UNL     1      -1.978  28.108  46.310  1.00  0.00    -0.378 OA
HETATM   37  H   UNL     1      -2.704  28.256  45.681  1.00  0.00     0.211 HD
ENDBRANCH  33  36
ENDBRANCH  32  33
ENDBRANCH  31  32
ENDBRANCH  28  31
ENDBRANCH  24  25
ENDBRANCH   6  24
TORSDOF 9
ENDMDL
MODEL 4
REMARK VINA RESULT:      -9.6      4.159     12.402
REMARK  9 active torsions:
REMARK  status: ('A' for Active; 'I' for Inactive)
REMARK    1  A    between atoms: C_6  and  C_7 
REMARK       I    between atoms: C_7  and  N_8 
REMARK    2  A    between atoms: N_8  and  C_9 
REMARK    3  A    between atoms: C_9  and  C_10 
REMARK    4  A    between atoms: N_15  and  C_17 
REMARK    5  A    between atoms: C_17  and  C_18 
REMARK    6  A    between atoms: C_21  and  C_22 
REMARK    7  A    between atoms: C_22  and  C_23 
REMARK    8  A    between atoms: C_23  and  C_24 
REMARK    9  A    between atoms: C_24  and  O_25 
ROOT
HETATM    1  C   UNL     1       8.348  27.180  56.077  1.00  0.00     0.140 C 
HETATM    2  O   UNL     1       8.731  28.043  57.168  1.00  0.00    -0.373 OA
HETATM    3  C   UNL     1       8.170  29.356  56.973  1.00  0.00     0.064 C 
HETATM    4  C   UNL     1       9.347  30.336  56.904  1.00  0.00     0.066 C 
HETATM    5  C   UNL     1      10.124  30.346  58.216  1.00  0.00     0.238 C 
HETATM    6  N   UNL     1       9.220  30.671  59.382  1.00  0.00    -0.067 N 
HETATM    7  H   UNL     1       9.791  30.491  60.216  1.00  0.00     0.280 HD
HETATM    8  C   UNL     1       8.067  29.695  59.469  1.00  0.00     0.238 C 
HETATM    9  C   UNL     1       7.275  29.693  58.169  1.00  0.00     0.066 C 
HETATM   10  C   UNL     1       7.378  29.303  55.664  1.00  0.00     0.041 C 
HETATM   11  C   UNL     1       7.984  28.122  54.942  1.00  0.00     0.036 C 
ENDROOT
BRANCH   1  12
HETATM   12  C   UNL     1       7.181  26.268  56.503  1.00  0.00     0.155 C 
BRANCH  12  13
HETATM   13  N   UNL     1       7.282  24.942  55.917  1.00  0.00    -0.353 N 
HETATM   14  C   UNL     1       8.299  24.064  56.224  1.00  0.00     0.270 C 
HETATM   15  O   UNL     1       9.161  24.329  57.060  1.00  0.00    -0.266 OA
HETATM   16  H   UNL     1       6.585  24.665  55.240  1.00  0.00     0.162 HD
BRANCH  14  17
HETATM   17  C   UNL     1       8.274  22.822  55.487  1.00  0.00     0.122 A 
HETATM   18  N   UNL     1       8.304  21.574  56.068  1.00  0.00    -0.269 N 
HETATM   19  N   UNL     1       8.331  20.562  55.182  1.00  0.00    -0.177 NA
HETATM   20  C   UNL     1       8.287  21.257  57.478  1.00  0.00     0.180 C 
HETATM   21  C   UNL     1       8.270  21.162  53.991  1.00  0.00     0.053 A 
HETATM   22  C   UNL     1       8.259  20.364  52.741  1.00  0.00     0.072 C 
HETATM   23  C   UNL     1       8.236  22.567  54.125  1.00  0.00     0.065 A 
ENDBRANCH  14  17
ENDBRANCH  12  13
ENDBRANCH   1  12
BRANCH   6  24
HETATM   24  C   UNL     1       8.795  32.116  59.509  1.00  0.00     0.273 C 
BRANCH  24  25
HETATM   25  C   UNL     1       8.207  32.449  60.854  1.00  0.00    -0.033 A 
HETATM   26  C   UNL     1       6.947  33.062  60.944  1.00  0.00     0.010 A 
HETATM   27  C   UNL     1       6.425  33.428  62.186  1.00  0.00     0.021 A 
HETATM   28  C   UNL     1       7.152  33.180  63.349  1.00  0.00     0.017 A 
HETATM   29  C   UNL     1       8.398  32.554  63.272  1.00  0.00     0.021 A 
HETATM   30  C   UNL     1       8.924  32.188  62.031  1.00  0.00     0.010 A 
BRANCH  28  31
HETATM   31  C   UNL     1       6.632  33.578  64.617  1.00  0.00    -0.064 C 
BRANCH  31  32
HETATM   32  C   UNL     1       6.153  33.970  65.765  1.00  0.00    -0.064 C 
BRANCH  32  33
HETATM   33  C   UNL     1       5.596  34.426  67.103  1.00  0.00     0.114 C 
HETATM   34  C   UNL     1       6.718  34.536  68.131  1.00  0.00     0.060 C 
HETATM   35  C   UNL     1       4.866  35.754  66.939  1.00  0.00     0.060 C 
BRANCH  33  36
HETATM   36  O   UNL     1       4.654  33.456  67.549  1.00  0.00    -0.378 OA
HETATM   37  H   UNL     1       4.906  32.605  67.153  1.00  0.00     0.211 HD
ENDBRANCH  33  36
ENDBRANCH  32  33
ENDBRANCH  31  32
ENDBRANCH  28  31
ENDBRANCH  24  25
ENDBRANCH   6  24
TORSDOF 9
ENDMDL
MODEL 5
REMARK VINA RESULT:      -9.1      2.773     11.237
REMARK  9 active torsions:
REMARK  status: ('A' for Active; 'I' for Inactive)
REMARK    1  A    between atoms: C_6  and  C_7 
REMARK       I    between atoms: C_7  and  N_8 
REMARK    2  A    between atoms: N_8  and  C_9 
REMARK    3  A    between atoms: C_9  and  C_10 
REMARK    4  A    between atoms: N_15  and  C_17 
REMARK    5  A    between atoms: C_17  and  C_18 
REMARK    6  A    between atoms: C_21  and  C_22 
REMARK    7  A    between atoms: C_22  and  C_23 
REMARK    8  A    between atoms: C_23  and  C_24 
REMARK    9  A    between atoms: C_24  and  O_25 
ROOT
HETATM    1  C   UNL     1       6.170  24.646  55.516  1.00  0.00     0.140 C 
HETATM    2  O   UNL     1       6.301  26.068  55.722  1.00  0.00    -0.373 OA
HETATM    3  C   UNL     1       7.516  26.347  56.445  1.00  0.00     0.064 C 
HETATM    4  C   UNL     1       7.108  27.055  57.742  1.00  0.00     0.066 C 
HETATM    5  C   UNL     1       6.421  28.383  57.445  1.00  0.00     0.238 C 
HETATM    6  N   UNL     1       7.302  29.273  56.599  1.00  0.00    -0.067 N 
HETATM    7  H   UNL     1       6.696  30.054  56.320  1.00  0.00     0.280 HD
HETATM    8  C   UNL     1       7.692  28.589  55.307  1.00  0.00     0.238 C 
HETATM    9  C   UNL     1       8.394  27.270  55.597  1.00  0.00     0.066 C 
HETATM   10  C   UNL     1       8.190  24.998  56.705  1.00  0.00     0.041 C 
HETATM   11  C   UNL     1       7.050  24.013  56.580  1.00  0.00     0.036 C 
ENDROOT
BRANCH   1  12
HETATM   12  C   UNL     1       6.594  24.274  54.081  1.00  0.00     0.155 C 
BRANCH  12  13
HETATM   13  N   UNL     1       5.848  25.019  53.081  1.00  0.00    -0.353 N 
HETATM   14  C   UNL     1       6.446  25.618  51.993  1.00  0.00     0.270 C 
HETATM   15  O   UNL     1       7.650  25.512  51.768  1.00  0.00    -0.266 OA
HETATM   16  H   UNL     1       4.851  25.117  53.205  1.00  0.00     0.162 HD
BRANCH  14  17
HETATM   17  C   UNL     1       5.553  26.376  51.148  1.00  0.00     0.122 A 
HETATM   18  N   UNL     1       5.230  27.699  51.348  1.00  0.00    -0.269 N 
HETATM   19  N   UNL     1       4.333  28.180  50.469  1.00  0.00    -0.177 NA
HETATM   20  C   UNL     1       5.755  28.592  52.356  1.00  0.00     0.180 C 
HETATM   21  C   UNL     1       4.098  27.159  49.642  1.00  0.00     0.053 A 
HETATM   22  C   UNL     1       3.158  27.305  48.505  1.00  0.00     0.072 C 
HETATM   23  C   UNL     1       4.830  26.012  50.022  1.00  0.00     0.065 A 
ENDBRANCH  14  17
ENDBRANCH  12  13
ENDBRANCH   1  12
BRANCH   6  24
HETATM   24  C   UNL     1       8.467  29.923  57.311  1.00  0.00     0.273 C 
BRANCH  24  25
HETATM   25  C   UNL     1       8.067  30.650  58.566  1.00  0.00    -0.033 A 
HETATM   26  C   UNL     1       8.742  30.403  59.773  1.00  0.00     0.010 A 
HETATM   27  C   UNL     1       8.336  31.030  60.953  1.00  0.00     0.021 A 
HETATM   28  C   UNL     1       7.256  31.911  60.938  1.00  0.00     0.017 A 
HETATM   29  C   UNL     1       6.589  32.178  59.741  1.00  0.00     0.021 A 
HETATM   30  C   UNL     1       6.993  31.552  58.559  1.00  0.00     0.010 A 
BRANCH  28  31
HETATM   31  C   UNL     1       6.822  32.531  62.148  1.00  0.00    -0.064 C 
BRANCH  31  32
HETATM   32  C   UNL     1       6.397  33.094  63.245  1.00  0.00    -0.064 C 
BRANCH  32  33
HETATM   33  C   UNL     1       5.902  33.752  64.522  1.00  0.00     0.114 C 
HETATM   34  C   UNL     1       6.994  33.724  65.587  1.00  0.00     0.060 C 
HETATM   35  C   UNL     1       5.450  35.179  64.233  1.00  0.00     0.060 C 
BRANCH  33  36
HETATM   36  O   UNL     1       4.776  33.019  64.995  1.00  0.00    -0.378 OA
HETATM   37  H   UNL     1       4.034  33.642  65.066  1.00  0.00     0.211 HD
ENDBRANCH  33  36
ENDBRANCH  32  33
ENDBRANCH  31  32
ENDBRANCH  28  31
ENDBRANCH  24  25
ENDBRANCH   6  24
TORSDOF 9
ENDMDL
MODEL 6
REMARK VINA RESULT:      -9.1      3.631      5.420
REMARK  9 active torsions:
REMARK  status: ('A' for Active; 'I' for Inactive)
REMARK    1  A    between atoms: C_6  and  C_7 
REMARK       I    between atoms: C_7  and  N_8 
REMARK    2  A    between atoms: N_8  and  C_9 
REMARK    3  A    between atoms: C_9  and  C_10 
REMARK    4  A    between atoms: N_15  and  C_17 
REMARK    5  A    between atoms: C_17  and  C_18 
REMARK    6  A    between atoms: C_21  and  C_22 
REMARK    7  A    between atoms: C_22  and  C_23 
REMARK    8  A    between atoms: C_23  and  C_24 
REMARK    9  A    between atoms: C_24  and  O_25 
ROOT
HETATM    1  C   UNL     1       3.391  32.437  59.624  1.00  0.00     0.140 C 
HETATM    2  O   UNL     1       3.321  31.536  58.500  1.00  0.00    -0.373 OA
HETATM    3  C   UNL     1       4.496  31.687  57.679  1.00  0.00     0.064 C 
HETATM    4  C   UNL     1       4.014  32.108  56.285  1.00  0.00     0.066 C 
HETATM    5  C   UNL     1       3.140  31.026  55.662  1.00  0.00     0.238 C 
HETATM    6  N   UNL     1       3.869  29.704  55.603  1.00  0.00    -0.067 N 
HETATM    7  H   UNL     1       3.153  29.021  55.329  1.00  0.00     0.280 HD
HETATM    8  C   UNL     1       4.331  29.271  56.977  1.00  0.00     0.238 C 
HETATM    9  C   UNL     1       5.219  30.339  57.599  1.00  0.00     0.066 C 
HETATM   10  C   UNL     1       5.360  32.759  58.345  1.00  0.00     0.041 C 
HETATM   11  C   UNL     1       4.371  33.517  59.200  1.00  0.00     0.036 C 
ENDROOT
BRANCH   1  12
HETATM   12  C   UNL     1       3.839  31.677  60.888  1.00  0.00     0.155 C 
BRANCH  12  13
HETATM   13  N   UNL     1       4.241  32.579  61.954  1.00  0.00    -0.353 N 
HETATM   14  C   UNL     1       4.765  32.138  63.150  1.00  0.00     0.270 C 
HETATM   15  O   UNL     1       4.978  30.948  63.372  1.00  0.00    -0.266 OA
HETATM   16  H   UNL     1       4.109  33.571  61.814  1.00  0.00     0.162 HD
BRANCH  14  17
HETATM   17  C   UNL     1       5.036  33.178  64.116  1.00  0.00     0.122 A 
HETATM   18  N   UNL     1       6.293  33.508  64.568  1.00  0.00    -0.269 N 
HETATM   19  N   UNL     1       6.299  34.469  65.510  1.00  0.00    -0.177 NA
HETATM   20  C   UNL     1       7.559  32.962  64.134  1.00  0.00     0.180 C 
HETATM   21  C   UNL     1       5.015  34.810  65.643  1.00  0.00     0.053 A 
HETATM   22  C   UNL     1       4.607  35.872  66.594  1.00  0.00     0.072 C 
HETATM   23  C   UNL     1       4.188  34.035  64.800  1.00  0.00     0.065 A 
ENDBRANCH  14  17
ENDBRANCH  12  13
ENDBRANCH   1  12
BRANCH   6  24
HETATM   24  C   UNL     1       4.941  29.585  54.543  1.00  0.00     0.273 C 
BRANCH  24  25
HETATM   25  C   UNL     1       5.546  28.210  54.459  1.00  0.00    -0.033 A 
HETATM   26  C   UNL     1       4.820  27.150  53.892  1.00  0.00     0.010 A 
HETATM   27  C   UNL     1       5.354  25.860  53.867  1.00  0.00     0.021 A 
HETATM   28  C   UNL     1       6.618  25.617  54.403  1.00  0.00     0.017 A 
HETATM   29  C   UNL     1       7.356  26.667  54.952  1.00  0.00     0.021 A 
HETATM   30  C   UNL     1       6.825  27.959  54.979  1.00  0.00     0.010 A 
BRANCH  28  31
HETATM   31  C   UNL     1       7.153  24.294  54.403  1.00  0.00    -0.064 C 
BRANCH  31  32
HETATM   32  C   UNL     1       7.627  23.080  54.428  1.00  0.00    -0.064 C 
BRANCH  32  33
HETATM   33  C   UNL     1       8.179  21.664  54.457  1.00  0.00     0.114 C 
HETATM   34  C   UNL     1       7.577  20.888  55.625  1.00  0.00     0.060 C 
HETATM   35  C   UNL     1       7.901  20.968  53.130  1.00  0.00     0.060 C 
BRANCH  33  36
HETATM   36  O   UNL     1       9.591  21.739  54.631  1.00  0.00    -0.378 OA
HETATM   37  H   UNL     1       9.801  22.649  54.898  1.00  0.00     0.211 HD
ENDBRANCH  33  36
ENDBRANCH  32  33
ENDBRANCH  31  32
ENDBRANCH  28  31
ENDBRANCH  24  25
ENDBRANCH   6  24
TORSDOF 9
ENDMDL
MODEL 7
REMARK VINA RESULT:      -8.9      3.821      5.816
REMARK  9 active torsions:
REMARK  status: ('A' for Active; 'I' for Inactive)
REMARK    1  A    between atoms: C_6  and  C_7 
REMARK       I    between atoms: C_7  and  N_8 
REMARK    2  A    between atoms: N_8  and  C_9 
REMARK    3  A    between atoms: C_9  and  C_10 
REMARK    4  A    between atoms: N_15  and  C_17 
REMARK    5  A    between atoms: C_17  and  C_18 
REMARK    6  A    between atoms: C_21  and  C_22 
REMARK    7  A    between atoms: C_22  and  C_23 
REMARK    8  A    between atoms: C_23  and  C_24 
REMARK    9  A    between atoms: C_24  and  O_25 
ROOT
HETATM    1  C   UNL     1       2.673  34.076  59.572  1.00  0.00     0.140 C 
HETATM    2  O   UNL     1       3.301  32.844  59.162  1.00  0.00    -0.373 OA
HETATM    3  C   UNL     1       3.971  33.033  57.901  1.00  0.00     0.064 C 
HETATM    4  C   UNL     1       3.338  32.049  56.909  1.00  0.00     0.066 C 
HETATM    5  C   UNL     1       3.565  30.609  57.351  1.00  0.00     0.238 C 
HETATM    6  N   UNL     1       5.037  30.319  57.531  1.00  0.00    -0.067 N 
HETATM    7  H   UNL     1       5.071  29.397  57.981  1.00  0.00     0.280 HD
HETATM    8  C   UNL     1       5.665  31.273  58.524  1.00  0.00     0.238 C 
HETATM    9  C   UNL     1       5.458  32.713  58.080  1.00  0.00     0.066 C 
HETATM   10  C   UNL     1       3.745  34.492  57.499  1.00  0.00     0.041 C 
HETATM   11  C   UNL     1       2.520  34.882  58.293  1.00  0.00     0.036 C 
ENDROOT
BRANCH   1  12
HETATM   12  C   UNL     1       3.537  34.786  60.634  1.00  0.00     0.155 C 
BRANCH  12  13
HETATM   13  N   UNL     1       4.630  33.949  61.097  1.00  0.00    -0.353 N 
HETATM   14  C   UNL     1       5.696  34.441  61.819  1.00  0.00     0.270 C 
HETATM   15  O   UNL     1       5.762  35.619  62.166  1.00  0.00    -0.266 OA
HETATM   16  H   UNL     1       4.613  32.968  60.859  1.00  0.00     0.162 HD
BRANCH  14  17
HETATM   17  C   UNL     1       6.722  33.472  62.128  1.00  0.00     0.122 A 
HETATM   18  N   UNL     1       7.026  33.043  63.399  1.00  0.00    -0.269 N 
HETATM   19  N   UNL     1       8.058  32.180  63.450  1.00  0.00    -0.177 NA
HETATM   20  C   UNL     1       6.361  33.396  64.633  1.00  0.00     0.180 C 
HETATM   21  C   UNL     1       8.406  32.004  62.174  1.00  0.00     0.053 A 
HETATM   22  C   UNL     1       9.516  31.090  61.811  1.00  0.00     0.072 C 
HETATM   23  C   UNL     1       7.608  32.787  61.311  1.00  0.00     0.065 A 
ENDBRANCH  14  17
ENDBRANCH  12  13
ENDBRANCH   1  12
BRANCH   6  24
HETATM   24  C   UNL     1       5.841  30.159  56.261  1.00  0.00     0.273 C 
BRANCH  24  25
HETATM   25  C   UNL     1       6.215  28.731  55.969  1.00  0.00    -0.033 A 
HETATM   26  C   UNL     1       6.209  27.773  56.995  1.00  0.00     0.010 A 
HETATM   27  C   UNL     1       6.614  26.460  56.741  1.00  0.00     0.021 A 
HETATM   28  C   UNL     1       7.023  26.092  55.461  1.00  0.00     0.017 A 
HETATM   29  C   UNL     1       7.015  27.032  54.429  1.00  0.00     0.021 A 
HETATM   30  C   UNL     1       6.612  28.345  54.679  1.00  0.00     0.010 A 
BRANCH  28  31
HETATM   31  C   UNL     1       7.463  24.758  55.207  1.00  0.00    -0.064 C 
BRANCH  31  32
HETATM   32  C   UNL     1       7.841  23.536  54.956  1.00  0.00    -0.064 C 
BRANCH  32  33
HETATM   33  C   UNL     1       8.283  22.112  54.663  1.00  0.00     0.114 C 
HETATM   34  C   UNL     1       7.657  21.149  55.667  1.00  0.00     0.060 C 
HETATM   35  C   UNL     1       7.913  21.734  53.233  1.00  0.00     0.060 C 
BRANCH  33  36
HETATM   36  O   UNL     1       9.700  22.049  54.784  1.00  0.00    -0.378 OA
HETATM   37  H   UNL     1       9.938  22.489  55.617  1.00  0.00     0.211 HD
ENDBRANCH  33  36
ENDBRANCH  32  33
ENDBRANCH  31  32
ENDBRANCH  28  31
ENDBRANCH  24  25
ENDBRANCH   6  24
TORSDOF 9
ENDMDL
MODEL 8
REMARK VINA RESULT:      -8.4      4.040      5.730
REMARK  9 active torsions:
REMARK  status: ('A' for Active; 'I' for Inactive)
REMARK    1  A    between atoms: C_6  and  C_7 
REMARK       I    between atoms: C_7  and  N_8 
REMARK    2  A    between atoms: N_8  and  C_9 
REMARK    3  A    between atoms: C_9  and  C_10 
REMARK    4  A    between atoms: N_15  and  C_17 
REMARK    5  A    between atoms: C_17  and  C_18 
REMARK    6  A    between atoms: C_21  and  C_22 
REMARK    7  A    between atoms: C_22  and  C_23 
REMARK    8  A    between atoms: C_23  and  C_24 
REMARK    9  A    between atoms: C_24  and  O_25 
ROOT
HETATM    1  C   UNL     1       3.243  33.922  58.662  1.00  0.00     0.140 C 
HETATM    2  O   UNL     1       3.607  32.564  58.341  1.00  0.00    -0.373 OA
HETATM    3  C   UNL     1       3.938  32.464  56.942  1.00  0.00     0.064 C 
HETATM    4  C   UNL     1       2.966  31.450  56.326  1.00  0.00     0.066 C 
HETATM    5  C   UNL     1       3.147  30.073  56.951  1.00  0.00     0.238 C 
HETATM    6  N   UNL     1       4.576  29.598  56.818  1.00  0.00    -0.067 N 
HETATM    7  H   UNL     1       4.629  28.757  57.405  1.00  0.00     0.280 HD
HETATM    8  C   UNL     1       5.540  30.583  57.442  1.00  0.00     0.238 C 
HETATM    9  C   UNL     1       5.377  31.958  56.810  1.00  0.00     0.066 C 
HETATM   10  C   UNL     1       3.770  33.866  56.352  1.00  0.00     0.041 C 
HETATM   11  C   UNL     1       2.845  34.545  57.335  1.00  0.00     0.036 C 
ENDROOT
BRANCH   1  12
HETATM   12  C   UNL     1       4.426  34.644  59.338  1.00  0.00     0.155 C 
BRANCH  12  13
HETATM   13  N   UNL     1       4.304  34.653  60.786  1.00  0.00    -0.353 N 
HETATM   14  C   UNL     1       4.723  33.607  61.579  1.00  0.00     0.270 C 
HETATM   15  O   UNL     1       5.280  32.615  61.113  1.00  0.00    -0.266 OA
HETATM   16  H   UNL     1       3.874  35.456  61.223  1.00  0.00     0.162 HD
BRANCH  14  17
HETATM   17  C   UNL     1       4.452  33.766  62.989  1.00  0.00     0.122 A 
HETATM   18  N   UNL     1       3.218  34.075  63.513  1.00  0.00    -0.269 N 
HETATM   19  N   UNL     1       3.217  34.231  64.849  1.00  0.00    -0.177 NA
HETATM   20  C   UNL     1       1.969  34.223  62.800  1.00  0.00     0.180 C 
HETATM   21  C   UNL     1       4.473  33.969  65.215  1.00  0.00     0.053 A 
HETATM   22  C   UNL     1       4.874  34.020  66.642  1.00  0.00     0.072 C 
HETATM   23  C   UNL     1       5.283  33.677  64.096  1.00  0.00     0.065 A 
ENDBRANCH  14  17
ENDBRANCH  12  13
ENDBRANCH   1  12
BRANCH   6  24
HETATM   24  C   UNL     1       4.995  29.136  55.441  1.00  0.00     0.273 C 
BRANCH  24  25
HETATM   25  C   UNL     1       5.580  27.750  55.431  1.00  0.00    -0.033 A 
HETATM   26  C   UNL     1       6.562  27.402  54.488  1.00  0.00     0.010 A 
HETATM   27  C   UNL     1       7.063  26.100  54.435  1.00  0.00     0.021 A 
HETATM   28  C   UNL     1       6.593  25.135  55.324  1.00  0.00     0.017 A 
HETATM   29  C   UNL     1       5.630  25.474  56.277  1.00  0.00     0.021 A 
HETATM   30  C   UNL     1       5.126  26.775  56.333  1.00  0.00     0.010 A 
BRANCH  28  31
HETATM   31  C   UNL     1       7.084  23.797  55.253  1.00  0.00    -0.064 C 
BRANCH  31  32
HETATM   32  C   UNL     1       7.510  22.567  55.170  1.00  0.00    -0.064 C 
BRANCH  32  33
HETATM   33  C   UNL     1       8.007  21.134  55.073  1.00  0.00     0.114 C 
HETATM   34  C   UNL     1       7.926  20.645  53.630  1.00  0.00     0.060 C 
HETATM   35  C   UNL     1       9.431  21.038  55.609  1.00  0.00     0.060 C 
BRANCH  33  36
HETATM   36  O   UNL     1       7.172  20.316  55.886  1.00  0.00    -0.378 OA
HETATM   37  H   UNL     1       6.278  20.693  55.853  1.00  0.00     0.211 HD
ENDBRANCH  33  36
ENDBRANCH  32  33
ENDBRANCH  31  32
ENDBRANCH  28  31
ENDBRANCH  24  25
ENDBRANCH   6  24
TORSDOF 9
ENDMDL
MODEL 9
REMARK VINA RESULT:      -8.3      3.679      5.765
REMARK  9 active torsions:
REMARK  status: ('A' for Active; 'I' for Inactive)
REMARK    1  A    between atoms: C_6  and  C_7 
REMARK       I    between atoms: C_7  and  N_8 
REMARK    2  A    between atoms: N_8  and  C_9 
REMARK    3  A    between atoms: C_9  and  C_10 
REMARK    4  A    between atoms: N_15  and  C_17 
REMARK    5  A    between atoms: C_17  and  C_18 
REMARK    6  A    between atoms: C_21  and  C_22 
REMARK    7  A    between atoms: C_22  and  C_23 
REMARK    8  A    between atoms: C_23  and  C_24 
REMARK    9  A    between atoms: C_24  and  O_25 
ROOT
HETATM    1  C   UNL     1       2.624  34.206  57.660  1.00  0.00     0.140 C 
HETATM    2  O   UNL     1       3.178  32.892  57.445  1.00  0.00    -0.373 OA
HETATM    3  C   UNL     1       3.471  32.708  56.046  1.00  0.00     0.064 C 
HETATM    4  C   UNL     1       2.644  31.507  55.573  1.00  0.00     0.066 C 
HETATM    5  C   UNL     1       3.055  30.238  56.311  1.00  0.00     0.238 C 
HETATM    6  N   UNL     1       4.533  29.970  56.151  1.00  0.00    -0.067 N 
HETATM    7  H   UNL     1       4.735  29.207  56.808  1.00  0.00     0.280 HD
HETATM    8  C   UNL     1       5.358  31.143  56.635  1.00  0.00     0.238 C 
HETATM    9  C   UNL     1       4.965  32.410  55.890  1.00  0.00     0.066 C 
HETATM   10  C   UNL     1       3.071  34.005  55.341  1.00  0.00     0.041 C 
HETATM   11  C   UNL     1       2.089  34.632  56.303  1.00  0.00     0.036 C 
ENDROOT
BRANCH   1  12
HETATM   12  C   UNL     1       3.705  35.158  58.209  1.00  0.00     0.155 C 
BRANCH  12  13
HETATM   13  N   UNL     1       4.614  34.483  59.121  1.00  0.00    -0.353 N 
HETATM   14  C   UNL     1       4.308  34.248  60.444  1.00  0.00     0.270 C 
HETATM   15  O   UNL     1       3.218  34.547  60.926  1.00  0.00    -0.266 OA
HETATM   16  H   UNL     1       5.516  34.196  58.769  1.00  0.00     0.162 HD
BRANCH  14  17
HETATM   17  C   UNL     1       5.365  33.632  61.213  1.00  0.00     0.122 A 
HETATM   18  N   UNL     1       6.028  34.244  62.252  1.00  0.00    -0.269 N 
HETATM   19  N   UNL     1       7.015  33.500  62.782  1.00  0.00    -0.177 NA
HETATM   20  C   UNL     1       5.765  35.547  62.820  1.00  0.00     0.180 C 
HETATM   21  C   UNL     1       6.965  32.351  62.104  1.00  0.00     0.053 A 
HETATM   22  C   UNL     1       7.903  31.246  62.416  1.00  0.00     0.072 C 
HETATM   23  C   UNL     1       5.958  32.383  61.114  1.00  0.00     0.065 A 
ENDBRANCH  14  17
ENDBRANCH  12  13
ENDBRANCH   1  12
BRANCH   6  24
HETATM   24  C   UNL     1       4.970  29.444  54.803  1.00  0.00     0.273 C 
BRANCH  24  25
HETATM   25  C   UNL     1       5.487  28.032  54.853  1.00  0.00    -0.033 A 
HETATM   26  C   UNL     1       6.541  27.694  55.718  1.00  0.00     0.010 A 
HETATM   27  C   UNL     1       7.065  26.399  55.723  1.00  0.00     0.021 A 
HETATM   28  C   UNL     1       6.539  25.431  54.870  1.00  0.00     0.017 A 
HETATM   29  C   UNL     1       5.480  25.751  54.020  1.00  0.00     0.021 A 
HETATM   30  C   UNL     1       4.954  27.045  54.011  1.00  0.00     0.010 A 
BRANCH  28  31
HETATM   31  C   UNL     1       7.092  24.115  54.855  1.00  0.00    -0.064 C 
BRANCH  31  32
HETATM   32  C   UNL     1       7.587  22.909  54.813  1.00  0.00    -0.064 C 
BRANCH  32  33
HETATM   33  C   UNL     1       8.165  21.504  54.764  1.00  0.00     0.114 C 
HETATM   34  C   UNL     1       7.565  20.649  55.875  1.00  0.00     0.060 C 
HETATM   35  C   UNL     1       7.915  20.885  53.394  1.00  0.00     0.060 C 
BRANCH  33  36
HETATM   36  O   UNL     1       9.573  21.594  54.958  1.00  0.00    -0.378 OA
HETATM   37  H   UNL     1       9.983  20.889  54.429  1.00  0.00     0.211 HD
ENDBRANCH  33  36
ENDBRANCH  32  33
ENDBRANCH  31  32
ENDBRANCH  28  31
ENDBRANCH  24  25
ENDBRANCH   6  24
TORSDOF 9
ENDMDL
MODEL 10
REMARK VINA RESULT:      -8.0      2.927      5.572
REMARK  9 active torsions:
REMARK  status: ('A' for Active; 'I' for Inactive)
REMARK    1  A    between atoms: C_6  and  C_7 
REMARK       I    between atoms: C_7  and  N_8 
REMARK    2  A    between atoms: N_8  and  C_9 
REMARK    3  A    between atoms: C_9  and  C_10 
REMARK    4  A    between atoms: N_15  and  C_17 
REMARK    5  A    between atoms: C_17  and  C_18 
REMARK    6  A    between atoms: C_21  and  C_22 
REMARK    7  A    between atoms: C_22  and  C_23 
REMARK    8  A    between atoms: C_23  and  C_24 
REMARK    9  A    between atoms: C_24  and  O_25 
ROOT
HETATM    1  C   UNL     1       8.117  24.902  56.420  1.00  0.00     0.140 C 
HETATM    2  O   UNL     1       7.752  25.643  55.238  1.00  0.00    -0.373 OA
HETATM    3  C   UNL     1       6.780  24.900  54.477  1.00  0.00     0.064 C 
HETATM    4  C   UNL     1       7.395  24.647  53.095  1.00  0.00     0.066 C 
HETATM    5  C   UNL     1       7.660  25.960  52.368  1.00  0.00     0.238 C 
HETATM    6  N   UNL     1       6.397  26.782  52.252  1.00  0.00    -0.067 N 
HETATM    7  H   UNL     1       6.709  27.696  51.905  1.00  0.00     0.280 HD
HETATM    8  C   UNL     1       5.794  27.054  53.613  1.00  0.00     0.238 C 
HETATM    9  C   UNL     1       5.511  25.746  54.338  1.00  0.00     0.066 C 
HETATM   10  C   UNL     1       6.520  23.603  55.246  1.00  0.00     0.041 C 
HETATM   11  C   UNL     1       7.753  23.461  56.108  1.00  0.00     0.036 C 
ENDROOT
BRANCH   1  12
HETATM   12  C   UNL     1       7.373  25.461  57.650  1.00  0.00     0.155 C 
BRANCH  12  13
HETATM   13  N   UNL     1       6.856  26.799  57.414  1.00  0.00    -0.353 N 
HETATM   14  C   UNL     1       7.656  27.921  57.422  1.00  0.00     0.270 C 
HETATM   15  O   UNL     1       8.873  27.856  57.575  1.00  0.00    -0.266 OA
HETATM   16  H   UNL     1       5.864  26.906  57.259  1.00  0.00     0.162 HD
BRANCH  14  17
HETATM   17  C   UNL     1       6.952  29.170  57.241  1.00  0.00     0.122 A 
HETATM   18  N   UNL     1       7.061  30.252  58.085  1.00  0.00    -0.269 N 
HETATM   19  N   UNL     1       6.268  31.286  57.751  1.00  0.00    -0.177 NA
HETATM   20  C   UNL     1       7.925  30.389  59.236  1.00  0.00     0.180 C 
HETATM   21  C   UNL     1       5.659  30.888  56.632  1.00  0.00     0.053 A 
HETATM   22  C   UNL     1       4.700  31.778  55.934  1.00  0.00     0.072 C 
HETATM   23  C   UNL     1       6.048  29.579  56.273  1.00  0.00     0.065 A 
ENDBRANCH  14  17
ENDBRANCH  12  13
ENDBRANCH   1  12
BRANCH   6  24
HETATM   24  C   UNL     1       5.388  26.306  51.231  1.00  0.00     0.273 C 
BRANCH  24  25
HETATM   25  C   UNL     1       5.198  27.267  50.089  1.00  0.00    -0.033 A 
HETATM   26  C   UNL     1       5.518  28.625  50.244  1.00  0.00     0.010 A 
HETATM   27  C   UNL     1       5.286  29.531  49.207  1.00  0.00     0.021 A 
HETATM   28  C   UNL     1       4.737  29.088  48.005  1.00  0.00     0.017 A 
HETATM   29  C   UNL     1       4.432  27.737  47.832  1.00  0.00     0.021 A 
HETATM   30  C   UNL     1       4.663  26.828  48.868  1.00  0.00     0.010 A 
BRANCH  28  31
HETATM   31  C   UNL     1       4.474  30.017  46.953  1.00  0.00    -0.064 C 
BRANCH  31  32
HETATM   32  C   UNL     1       4.208  30.874  46.007  1.00  0.00    -0.064 C 
BRANCH  32  33
HETATM   33  C   UNL     1       3.899  31.873  44.905  1.00  0.00     0.114 C 
HETATM   34  C   UNL     1       2.400  31.895  44.619  1.00  0.00     0.060 C 
HETATM   35  C   UNL     1       4.406  33.256  45.296  1.00  0.00     0.060 C 
BRANCH  33  36
HETATM   36  O   UNL     1       4.588  31.466  43.726  1.00  0.00    -0.378 OA
HETATM   37  H   UNL     1       4.678  30.500  43.764  1.00  0.00     0.211 HD
ENDBRANCH  33  36
ENDBRANCH  32  33
ENDBRANCH  31  32
ENDBRANCH  28  31
ENDBRANCH  24  25
ENDBRANCH   6  24
TORSDOF 9
ENDMDL
