MODEL 1
REMARK VINA RESULT:     -10.1      0.000      0.000
REMARK  8 active torsions:
REMARK  status: ('A' for Active; 'I' for Inactive)
REMARK    1  A    between atoms: C_4  and  N_5 
REMARK       I    between atoms: N_5  and  C_6 
REMARK    2  A    between atoms: C_6  and  C_7 
REMARK    3  A    between atoms: C_7  and  N_8 
REMARK    4  A    between atoms: C_7  and  C_24 
REMARK    5  A    between atoms: N_8  and  C_11 
REMARK    6  A    between atoms: C_11  and  C_12 
REMARK    7  A    between atoms: C_15  and  N_16 
REMARK    8  A    between atoms: C_31  and  O_32 
ROOT
HETATM    1  C   UNL     1       7.105  25.860  53.555  1.00  0.00     0.310 C 
ENDROOT
BRANCH   1   2
HETATM    2  C   UNL     1       5.855  26.229  52.715  1.00  0.00     0.257 C 
HETATM    3  N   UNL     1       6.042  26.855  51.511  1.00  0.00    -0.323 N 
HETATM    4  H   UNL     1       6.972  27.165  51.227  1.00  0.00     0.169 HD
HETATM    5  O   UNL     1       4.782  25.781  53.140  1.00  0.00    -0.270 OA
BRANCH   3   6
HETATM    6  C   UNL     1       5.088  27.034  50.478  1.00  0.00     0.069 A 
HETATM    7  C   UNL     1       4.600  25.997  49.677  1.00  0.00     0.039 A 
HETATM    8  C   UNL     1       3.698  26.263  48.638  1.00  0.00    -0.060 A 
HETATM    9  C   UNL     1       3.152  25.146  47.795  1.00  0.00     0.048 C 
HETATM   10  C   UNL     1       3.270  27.576  48.424  1.00  0.00     0.009 A 
HETATM   11  C   UNL     1       3.743  28.619  49.225  1.00  0.00     0.039 A 
HETATM   12  C   UNL     1       4.649  28.356  50.255  1.00  0.00     0.095 A 
BRANCH  12  13
HETATM   13  O   UNL     1       5.198  29.304  51.088  1.00  0.00    -0.354 OA
HETATM   14  C   UNL     1       4.297  30.007  51.938  1.00  0.00     0.210 C 
ENDBRANCH  12  13
ENDBRANCH   3   6
ENDBRANCH   1   2
BRANCH   1  15
HETATM   15  N   UNL     1       6.987  26.668  54.822  1.00  0.00    -0.054 N 
HETATM   16  H   UNL     1       6.074  26.392  55.227  1.00  0.00     0.278 HD
HETATM   17  H   UNL     1       7.663  26.333  55.517  1.00  0.00     0.278 HD
BRANCH  15  18
HETATM   18  C   UNL     1       7.036  28.145  54.747  1.00  0.00     0.272 C 
BRANCH  18  19
HETATM   19  C   UNL     1       7.405  28.655  56.113  1.00  0.00    -0.033 A 
HETATM   20  C   UNL     1       6.495  29.418  56.850  1.00  0.00     0.011 A 
HETATM   21  C   UNL     1       6.908  30.095  58.003  1.00  0.00     0.030 A 
HETATM   22  C   UNL     1       8.233  30.040  58.451  1.00  0.00     0.037 A 
HETATM   23  C   UNL     1       9.120  29.214  57.744  1.00  0.00     0.030 A 
HETATM   24  C   UNL     1       8.717  28.536  56.586  1.00  0.00     0.011 A 
BRANCH  22  25
HETATM   25  N   UNL     1       8.682  30.809  59.557  1.00  0.00    -0.318 N 
HETATM   26  C   UNL     1       9.640  31.839  59.510  1.00  0.00     0.224 C 
HETATM   27  O   UNL     1      10.219  32.303  58.540  1.00  0.00    -0.273 OA
HETATM   28  C   UNL     1       9.946  32.253  60.931  1.00  0.00     0.105 C 
HETATM   29  C   UNL     1       8.773  31.702  61.716  1.00  0.00     0.029 C 
HETATM   30  C   UNL     1       8.370  30.475  60.928  1.00  0.00     0.133 C 
ENDBRANCH  22  25
ENDBRANCH  18  19
ENDBRANCH  15  18
ENDBRANCH   1  15
BRANCH   1  31
HETATM   31  C   UNL     1       7.359  24.388  53.788  1.00  0.00    -0.019 A 
HETATM   32  C   UNL     1       7.293  23.882  55.098  1.00  0.00     0.010 A 
HETATM   33  C   UNL     1       7.543  22.533  55.355  1.00  0.00     0.001 A 
HETATM   34  C   UNL     1       7.864  21.674  54.310  1.00  0.00     0.000 A 
HETATM   35  C   UNL     1       7.943  22.160  53.007  1.00  0.00     0.001 A 
HETATM   36  C   UNL     1       7.696  23.509  52.744  1.00  0.00     0.010 A 
ENDBRANCH   1  31
TORSDOF 8
ENDMDL
MODEL 2
REMARK VINA RESULT:     -10.0      1.665      2.260
REMARK  8 active torsions:
REMARK  status: ('A' for Active; 'I' for Inactive)
REMARK    1  A    between atoms: C_4  and  N_5 
REMARK       I    between atoms: N_5  and  C_6 
REMARK    2  A    between atoms: C_6  and  C_7 
REMARK    3  A    between atoms: C_7  and  N_8 
REMARK    4  A    between atoms: C_7  and  C_24 
REMARK    5  A    between atoms: N_8  and  C_11 
REMARK    6  A    between atoms: C_11  and  C_12 
REMARK    7  A    between atoms: C_15  and  N_16 
REMARK    8  A    between atoms: C_31  and  O_32 
ROOT
HETATM    1  C   UNL     1       6.915  24.526  54.244  1.00  0.00     0.310 C 
ENDROOT
BRANCH   1   2
HETATM    2  C   UNL     1       6.719  25.242  52.883  1.00  0.00     0.257 C 
HETATM    3  N   UNL     1       5.445  25.568  52.498  1.00  0.00    -0.323 N 
HETATM    4  H   UNL     1       4.642  25.253  53.042  1.00  0.00     0.169 HD
HETATM    5  O   UNL     1       7.761  25.602  52.320  1.00  0.00    -0.270 OA
BRANCH   3   6
HETATM    6  C   UNL     1       5.061  26.446  51.452  1.00  0.00     0.069 A 
HETATM    7  C   UNL     1       5.034  26.086  50.102  1.00  0.00     0.039 A 
HETATM    8  C   UNL     1       4.695  27.027  49.120  1.00  0.00    -0.060 A 
HETATM    9  C   UNL     1       4.640  26.634  47.671  1.00  0.00     0.048 C 
HETATM   10  C   UNL     1       4.360  28.327  49.507  1.00  0.00     0.009 A 
HETATM   11  C   UNL     1       4.373  28.695  50.855  1.00  0.00     0.039 A 
HETATM   12  C   UNL     1       4.719  27.760  51.832  1.00  0.00     0.095 A 
BRANCH  12  13
HETATM   13  O   UNL     1       4.789  28.015  53.184  1.00  0.00    -0.354 OA
HETATM   14  C   UNL     1       4.402  29.318  53.609  1.00  0.00     0.210 C 
ENDBRANCH  12  13
ENDBRANCH   3   6
ENDBRANCH   1   2
BRANCH   1  15
HETATM   15  N   UNL     1       5.632  24.755  55.003  1.00  0.00    -0.054 N 
HETATM   16  H   UNL     1       5.154  25.518  54.490  1.00  0.00     0.278 HD
HETATM   17  H   UNL     1       5.001  23.957  54.877  1.00  0.00     0.278 HD
BRANCH  15  18
HETATM   18  C   UNL     1       5.694  25.125  56.434  1.00  0.00     0.272 C 
BRANCH  18  19
HETATM   19  C   UNL     1       6.612  26.310  56.556  1.00  0.00    -0.033 A 
HETATM   20  C   UNL     1       7.899  26.153  57.080  1.00  0.00     0.011 A 
HETATM   21  C   UNL     1       8.667  27.272  57.420  1.00  0.00     0.030 A 
HETATM   22  C   UNL     1       8.178  28.573  57.259  1.00  0.00     0.037 A 
HETATM   23  C   UNL     1       6.915  28.720  56.667  1.00  0.00     0.030 A 
HETATM   24  C   UNL     1       6.136  27.605  56.326  1.00  0.00     0.011 A 
BRANCH  22  25
HETATM   25  N   UNL     1       8.909  29.708  57.702  1.00  0.00    -0.318 N 
HETATM   26  C   UNL     1      10.042  30.254  57.073  1.00  0.00     0.224 C 
HETATM   27  O   UNL     1      10.578  29.915  56.029  1.00  0.00    -0.273 OA
HETATM   28  C   UNL     1      10.602  31.329  57.977  1.00  0.00     0.105 C 
HETATM   29  C   UNL     1       9.448  31.634  58.911  1.00  0.00     0.029 C 
HETATM   30  C   UNL     1       8.709  30.317  58.997  1.00  0.00     0.133 C 
ENDBRANCH  22  25
ENDBRANCH  18  19
ENDBRANCH  15  18
ENDBRANCH   1  15
BRANCH   1  31
HETATM   31  C   UNL     1       7.348  23.078  54.196  1.00  0.00    -0.019 A 
HETATM   32  C   UNL     1       7.515  22.374  55.402  1.00  0.00     0.010 A 
HETATM   33  C   UNL     1       7.935  21.043  55.397  1.00  0.00     0.001 A 
HETATM   34  C   UNL     1       8.195  20.399  54.192  1.00  0.00     0.000 A 
HETATM   35  C   UNL     1       8.043  21.084  52.989  1.00  0.00     0.001 A 
HETATM   36  C   UNL     1       7.626  22.417  52.987  1.00  0.00     0.010 A 
ENDBRANCH   1  31
TORSDOF 8
ENDMDL
MODEL 3
REMARK VINA RESULT:      -9.9      1.721      5.409
REMARK  8 active torsions:
REMARK  status: ('A' for Active; 'I' for Inactive)
REMARK    1  A    between atoms: C_4  and  N_5 
REMARK       I    between atoms: N_5  and  C_6 
REMARK    2  A    between atoms: C_6  and  C_7 
REMARK    3  A    between atoms: C_7  and  N_8 
REMARK    4  A    between atoms: C_7  and  C_24 
REMARK    5  A    between atoms: N_8  and  C_11 
REMARK    6  A    between atoms: C_11  and  C_12 
REMARK    7  A    between atoms: C_15  and  N_16 
REMARK    8  A    between atoms: C_31  and  O_32 
ROOT
HETATM    1  C   UNL     1       5.983  26.922  53.242  1.00  0.00     0.310 C 
ENDROOT
BRANCH   1   2
HETATM    2  C   UNL     1       6.991  25.771  53.492  1.00  0.00     0.257 C 
HETATM    3  N   UNL     1       6.680  24.828  54.436  1.00  0.00    -0.323 N 
HETATM    4  H   UNL     1       5.860  24.942  55.032  1.00  0.00     0.169 HD
HETATM    5  O   UNL     1       7.937  25.715  52.696  1.00  0.00    -0.270 OA
BRANCH   3   6
HETATM    6  C   UNL     1       7.305  23.571  54.634  1.00  0.00     0.069 A 
HETATM    7  C   UNL     1       7.518  22.637  53.616  1.00  0.00     0.039 A 
HETATM    8  C   UNL     1       8.094  21.391  53.901  1.00  0.00    -0.060 A 
HETATM    9  C   UNL     1       8.348  20.397  52.804  1.00  0.00     0.048 C 
HETATM   10  C   UNL     1       8.476  21.099  55.213  1.00  0.00     0.009 A 
HETATM   11  C   UNL     1       8.278  22.029  56.237  1.00  0.00     0.039 A 
HETATM   12  C   UNL     1       7.697  23.268  55.954  1.00  0.00     0.095 A 
BRANCH  12  13
HETATM   13  O   UNL     1       7.432  24.249  56.883  1.00  0.00    -0.354 OA
HETATM   14  C   UNL     1       8.558  24.904  57.459  1.00  0.00     0.210 C 
ENDBRANCH  12  13
ENDBRANCH   3   6
ENDBRANCH   1   2
BRANCH   1  15
HETATM   15  N   UNL     1       6.572  28.125  53.935  1.00  0.00    -0.054 N 
HETATM   16  H   UNL     1       6.403  28.913  53.285  1.00  0.00     0.278 HD
HETATM   17  H   UNL     1       6.006  28.372  54.754  1.00  0.00     0.278 HD
BRANCH  15  18
HETATM   18  C   UNL     1       8.006  28.122  54.300  1.00  0.00     0.272 C 
BRANCH  18  19
HETATM   19  C   UNL     1       8.113  28.616  55.716  1.00  0.00    -0.033 A 
HETATM   20  C   UNL     1       7.018  28.524  56.579  1.00  0.00     0.011 A 
HETATM   21  C   UNL     1       7.026  29.192  57.808  1.00  0.00     0.030 A 
HETATM   22  C   UNL     1       8.115  29.974  58.211  1.00  0.00     0.037 A 
HETATM   23  C   UNL     1       9.236  30.002  57.369  1.00  0.00     0.030 A 
HETATM   24  C   UNL     1       9.236  29.340  56.134  1.00  0.00     0.011 A 
BRANCH  22  25
HETATM   25  N   UNL     1       8.085  30.741  59.407  1.00  0.00    -0.318 N 
HETATM   26  C   UNL     1       7.387  31.948  59.594  1.00  0.00     0.224 C 
HETATM   27  O   UNL     1       6.648  32.534  58.819  1.00  0.00    -0.273 OA
HETATM   28  C   UNL     1       7.780  32.506  60.943  1.00  0.00     0.105 C 
HETATM   29  C   UNL     1       8.380  31.310  61.655  1.00  0.00     0.029 C 
HETATM   30  C   UNL     1       8.962  30.486  60.527  1.00  0.00     0.133 C 
ENDBRANCH  22  25
ENDBRANCH  18  19
ENDBRANCH  15  18
ENDBRANCH   1  15
BRANCH   1  31
HETATM   31  C   UNL     1       5.582  27.177  51.808  1.00  0.00    -0.019 A 
HETATM   32  C   UNL     1       5.635  28.489  51.305  1.00  0.00     0.010 A 
HETATM   33  C   UNL     1       5.250  28.766  49.992  1.00  0.00     0.001 A 
HETATM   34  C   UNL     1       4.807  27.739  49.166  1.00  0.00     0.000 A 
HETATM   35  C   UNL     1       4.739  26.435  49.650  1.00  0.00     0.001 A 
HETATM   36  C   UNL     1       5.120  26.152  50.963  1.00  0.00     0.010 A 
ENDBRANCH   1  31
TORSDOF 8
ENDMDL
MODEL 4
REMARK VINA RESULT:      -9.9      3.192      5.794
REMARK  8 active torsions:
REMARK  status: ('A' for Active; 'I' for Inactive)
REMARK    1  A    between atoms: C_4  and  N_5 
REMARK       I    between atoms: N_5  and  C_6 
REMARK    2  A    between atoms: C_6  and  C_7 
REMARK    3  A    between atoms: C_7  and  N_8 
REMARK    4  A    between atoms: C_7  and  C_24 
REMARK    5  A    between atoms: N_8  and  C_11 
REMARK    6  A    between atoms: C_11  and  C_12 
REMARK    7  A    between atoms: C_15  and  N_16 
REMARK    8  A    between atoms: C_31  and  O_32 
ROOT
HETATM    1  C   UNL     1       6.211  27.085  54.268  1.00  0.00     0.310 C 
ENDROOT
BRANCH   1   2
HETATM    2  C   UNL     1       6.303  25.543  54.128  1.00  0.00     0.257 C 
HETATM    3  N   UNL     1       7.515  24.943  54.345  1.00  0.00    -0.323 N 
HETATM    4  H   UNL     1       8.355  25.505  54.489  1.00  0.00     0.169 HD
HETATM    5  O   UNL     1       5.222  24.960  53.980  1.00  0.00    -0.270 OA
BRANCH   3   6
HETATM    6  C   UNL     1       7.768  23.561  54.537  1.00  0.00     0.069 A 
HETATM    7  C   UNL     1       7.896  22.639  53.494  1.00  0.00     0.039 A 
HETATM    8  C   UNL     1       8.092  21.278  53.765  1.00  0.00    -0.060 A 
HETATM    9  C   UNL     1       8.257  20.291  52.646  1.00  0.00     0.048 C 
HETATM   10  C   UNL     1       8.182  20.853  55.093  1.00  0.00     0.009 A 
HETATM   11  C   UNL     1       8.066  21.767  56.144  1.00  0.00     0.039 A 
HETATM   12  C   UNL     1       7.862  23.122  55.873  1.00  0.00     0.095 A 
BRANCH  12  13
HETATM   13  O   UNL     1       7.710  24.105  56.825  1.00  0.00    -0.354 OA
HETATM   14  C   UNL     1       8.880  24.487  57.542  1.00  0.00     0.210 C 
ENDBRANCH  12  13
ENDBRANCH   3   6
ENDBRANCH   1   2
BRANCH   1  15
HETATM   15  N   UNL     1       4.742  27.383  54.433  1.00  0.00    -0.054 N 
HETATM   16  H   UNL     1       4.259  26.625  53.917  1.00  0.00     0.278 HD
HETATM   17  H   UNL     1       4.458  27.221  55.406  1.00  0.00     0.278 HD
BRANCH  15  18
HETATM   18  C   UNL     1       4.208  28.680  53.965  1.00  0.00     0.272 C 
BRANCH  18  19
HETATM   19  C   UNL     1       4.205  29.618  55.140  1.00  0.00    -0.033 A 
HETATM   20  C   UNL     1       4.750  30.900  55.020  1.00  0.00     0.011 A 
HETATM   21  C   UNL     1       4.971  31.686  56.156  1.00  0.00     0.030 A 
HETATM   22  C   UNL     1       4.666  31.220  57.440  1.00  0.00     0.037 A 
HETATM   23  C   UNL     1       4.056  29.962  57.543  1.00  0.00     0.030 A 
HETATM   24  C   UNL     1       3.834  29.165  56.411  1.00  0.00     0.011 A 
BRANCH  22  25
HETATM   25  N   UNL     1       4.988  31.969  58.604  1.00  0.00    -0.318 N 
HETATM   26  C   UNL     1       6.281  32.187  59.112  1.00  0.00     0.224 C 
HETATM   27  O   UNL     1       7.356  31.840  58.647  1.00  0.00    -0.273 OA
HETATM   28  C   UNL     1       6.144  32.872  60.453  1.00  0.00     0.105 C 
HETATM   29  C   UNL     1       4.728  33.410  60.426  1.00  0.00     0.029 C 
HETATM   30  C   UNL     1       3.992  32.419  59.551  1.00  0.00     0.133 C 
ENDBRANCH  22  25
ENDBRANCH  18  19
ENDBRANCH  15  18
ENDBRANCH   1  15
BRANCH   1  31
HETATM   31  C   UNL     1       7.088  27.727  55.318  1.00  0.00    -0.019 A 
HETATM   32  C   UNL     1       6.833  27.466  56.676  1.00  0.00     0.010 A 
HETATM   33  C   UNL     1       7.608  28.060  57.673  1.00  0.00     0.001 A 
HETATM   34  C   UNL     1       8.645  28.920  57.330  1.00  0.00     0.000 A 
HETATM   35  C   UNL     1       8.906  29.198  55.990  1.00  0.00     0.001 A 
HETATM   36  C   UNL     1       8.132  28.609  54.987  1.00  0.00     0.010 A 
ENDBRANCH   1  31
TORSDOF 8
ENDMDL
MODEL 5
REMARK VINA RESULT:      -9.6      2.295      3.072
REMARK  8 active torsions:
REMARK  status: ('A' for Active; 'I' for Inactive)
REMARK    1  A    between atoms: C_4  and  N_5 
REMARK       I    between atoms: N_5  and  C_6 
REMARK    2  A    between atoms: C_6  and  C_7 
REMARK    3  A    between atoms: C_7  and  N_8 
REMARK    4  A    between atoms: C_7  and  C_24 
REMARK    5  A    between atoms: N_8  and  C_11 
REMARK    6  A    between atoms: C_11  and  C_12 
REMARK    7  A    between atoms: C_15  and  N_16 
REMARK    8  A    between atoms: C_31  and  O_32 
ROOT
HETATM    1  C   UNL     1       8.062  24.294  54.233  1.00  0.00     0.310 C 
ENDROOT
BRANCH   1   2
HETATM    2  C   UNL     1       7.525  25.000  52.962  1.00  0.00     0.257 C 
HETATM    3  N   UNL     1       6.209  25.378  52.935  1.00  0.00    -0.323 N 
HETATM    4  H   UNL     1       5.575  25.106  53.687  1.00  0.00     0.169 HD
HETATM    5  O   UNL     1       8.384  25.305  52.125  1.00  0.00    -0.270 OA
BRANCH   3   6
HETATM    6  C   UNL     1       5.586  26.258  52.014  1.00  0.00     0.069 A 
HETATM    7  C   UNL     1       5.151  25.876  50.742  1.00  0.00     0.039 A 
HETATM    8  C   UNL     1       4.592  26.818  49.867  1.00  0.00    -0.060 A 
HETATM    9  C   UNL     1       4.099  26.403  48.510  1.00  0.00     0.048 C 
HETATM   10  C   UNL     1       4.452  28.143  50.288  1.00  0.00     0.009 A 
HETATM   11  C   UNL     1       4.873  28.534  51.562  1.00  0.00     0.039 A 
HETATM   12  C   UNL     1       5.438  27.597  52.431  1.00  0.00     0.095 A 
BRANCH  12  13
HETATM   13  O   UNL     1       5.909  27.872  53.695  1.00  0.00    -0.354 OA
HETATM   14  C   UNL     1       7.210  28.446  53.781  1.00  0.00     0.210 C 
ENDBRANCH  12  13
ENDBRANCH   3   6
ENDBRANCH   1   2
BRANCH   1  15
HETATM   15  N   UNL     1       7.158  24.747  55.352  1.00  0.00    -0.054 N 
HETATM   16  H   UNL     1       6.693  25.598  54.987  1.00  0.00     0.278 HD
HETATM   17  H   UNL     1       6.382  24.086  55.467  1.00  0.00     0.278 HD
BRANCH  15  18
HETATM   18  C   UNL     1       7.743  25.066  56.673  1.00  0.00     0.272 C 
BRANCH  18  19
HETATM   19  C   UNL     1       7.236  26.423  57.076  1.00  0.00    -0.033 A 
HETATM   20  C   UNL     1       5.872  26.719  56.991  1.00  0.00     0.011 A 
HETATM   21  C   UNL     1       5.422  28.036  57.130  1.00  0.00     0.030 A 
HETATM   22  C   UNL     1       6.312  29.096  57.347  1.00  0.00     0.037 A 
HETATM   23  C   UNL     1       7.669  28.778  57.501  1.00  0.00     0.030 A 
HETATM   24  C   UNL     1       8.129  27.462  57.360  1.00  0.00     0.011 A 
BRANCH  22  25
HETATM   25  N   UNL     1       5.873  30.447  57.381  1.00  0.00    -0.318 N 
HETATM   26  C   UNL     1       5.237  31.132  56.331  1.00  0.00     0.224 C 
HETATM   27  O   UNL     1       4.894  30.711  55.237  1.00  0.00    -0.273 OA
HETATM   28  C   UNL     1       5.116  32.585  56.731  1.00  0.00     0.105 C 
HETATM   29  C   UNL     1       5.316  32.551  58.233  1.00  0.00     0.029 C 
HETATM   30  C   UNL     1       6.232  31.365  58.438  1.00  0.00     0.133 C 
ENDBRANCH  22  25
ENDBRANCH  18  19
ENDBRANCH  15  18
ENDBRANCH   1  15
BRANCH   1  31
HETATM   31  C   UNL     1       8.237  22.794  54.157  1.00  0.00    -0.019 A 
HETATM   32  C   UNL     1       8.798  22.114  55.253  1.00  0.00     0.010 A 
HETATM   33  C   UNL     1       8.995  20.733  55.210  1.00  0.00     0.001 A 
HETATM   34  C   UNL     1       8.639  20.014  54.074  1.00  0.00     0.000 A 
HETATM   35  C   UNL     1       8.091  20.673  52.976  1.00  0.00     0.001 A 
HETATM   36  C   UNL     1       7.893  22.055  53.012  1.00  0.00     0.010 A 
ENDBRANCH   1  31
TORSDOF 8
ENDMDL
MODEL 6
REMARK VINA RESULT:      -9.5      2.409      8.671
REMARK  8 active torsions:
REMARK  status: ('A' for Active; 'I' for Inactive)
REMARK    1  A    between atoms: C_4  and  N_5 
REMARK       I    between atoms: N_5  and  C_6 
REMARK    2  A    between atoms: C_6  and  C_7 
REMARK    3  A    between atoms: C_7  and  N_8 
REMARK    4  A    between atoms: C_7  and  C_24 
REMARK    5  A    between atoms: N_8  and  C_11 
REMARK    6  A    between atoms: C_11  and  C_12 
REMARK    7  A    between atoms: C_15  and  N_16 
REMARK    8  A    between atoms: C_31  and  O_32 
ROOT
HETATM    1  C   UNL     1       6.709  25.034  55.529  1.00  0.00     0.310 C 
ENDROOT
BRANCH   1   2
HETATM    2  C   UNL     1       7.651  25.981  56.316  1.00  0.00     0.257 C 
HETATM    3  N   UNL     1       7.598  27.323  56.044  1.00  0.00    -0.323 N 
HETATM    4  H   UNL     1       7.033  27.674  55.271  1.00  0.00     0.169 HD
HETATM    5  O   UNL     1       8.272  25.454  57.248  1.00  0.00    -0.270 OA
BRANCH   3   6
HETATM    6  C   UNL     1       8.154  28.378  56.811  1.00  0.00     0.069 A 
HETATM    7  C   UNL     1       9.498  28.759  56.755  1.00  0.00     0.039 A 
HETATM    8  C   UNL     1       9.985  29.778  57.586  1.00  0.00    -0.060 A 
HETATM    9  C   UNL     1      11.423  30.206  57.507  1.00  0.00     0.048 C 
HETATM   10  C   UNL     1       9.107  30.428  58.456  1.00  0.00     0.009 A 
HETATM   11  C   UNL     1       7.759  30.063  58.513  1.00  0.00     0.039 A 
HETATM   12  C   UNL     1       7.275  29.042  57.691  1.00  0.00     0.095 A 
BRANCH  12  13
HETATM   13  O   UNL     1       5.977  28.584  57.679  1.00  0.00    -0.354 OA
HETATM   14  C   UNL     1       4.971  29.525  57.319  1.00  0.00     0.210 C 
ENDBRANCH  12  13
ENDBRANCH   3   6
ENDBRANCH   1   2
BRANCH   1  15
HETATM   15  N   UNL     1       5.999  25.916  54.533  1.00  0.00    -0.054 N 
HETATM   16  H   UNL     1       5.526  26.636  55.108  1.00  0.00     0.278 HD
HETATM   17  H   UNL     1       6.683  26.458  53.994  1.00  0.00     0.278 HD
BRANCH  15  18
HETATM   18  C   UNL     1       5.001  25.318  53.619  1.00  0.00     0.272 C 
BRANCH  18  19
HETATM   19  C   UNL     1       4.922  26.196  52.400  1.00  0.00    -0.033 A 
HETATM   20  C   UNL     1       4.483  27.518  52.512  1.00  0.00     0.011 A 
HETATM   21  C   UNL     1       4.176  28.263  51.368  1.00  0.00     0.030 A 
HETATM   22  C   UNL     1       4.289  27.715  50.085  1.00  0.00     0.037 A 
HETATM   23  C   UNL     1       4.798  26.412  49.981  1.00  0.00     0.030 A 
HETATM   24  C   UNL     1       5.104  25.657  51.122  1.00  0.00     0.011 A 
BRANCH  22  25
HETATM   25  N   UNL     1       3.878  28.428  48.927  1.00  0.00    -0.318 N 
HETATM   26  C   UNL     1       2.621  28.331  48.303  1.00  0.00     0.224 C 
HETATM   27  O   UNL     1       1.644  27.683  48.644  1.00  0.00    -0.273 OA
HETATM   28  C   UNL     1       2.681  29.116  47.012  1.00  0.00     0.105 C 
HETATM   29  C   UNL     1       3.894  30.005  47.202  1.00  0.00     0.029 C 
HETATM   30  C   UNL     1       4.792  29.187  48.103  1.00  0.00     0.133 C 
ENDBRANCH  22  25
ENDBRANCH  18  19
ENDBRANCH  15  18
ENDBRANCH   1  15
BRANCH   1  31
HETATM   31  C   UNL     1       7.336  23.801  54.919  1.00  0.00    -0.019 A 
HETATM   32  C   UNL     1       7.873  23.878  53.622  1.00  0.00     0.010 A 
HETATM   33  C   UNL     1       8.440  22.754  53.018  1.00  0.00     0.001 A 
HETATM   34  C   UNL     1       8.477  21.542  53.699  1.00  0.00     0.000 A 
HETATM   35  C   UNL     1       7.942  21.446  54.981  1.00  0.00     0.001 A 
HETATM   36  C   UNL     1       7.370  22.566  55.590  1.00  0.00     0.010 A 
ENDBRANCH   1  31
TORSDOF 8
ENDMDL
MODEL 7
REMARK VINA RESULT:      -9.5      1.677      5.275
REMARK  8 active torsions:
REMARK  status: ('A' for Active; 'I' for Inactive)
REMARK    1  A    between atoms: C_4  and  N_5 
REMARK       I    between atoms: N_5  and  C_6 
REMARK    2  A    between atoms: C_6  and  C_7 
REMARK    3  A    between atoms: C_7  and  N_8 
REMARK    4  A    between atoms: C_7  and  C_24 
REMARK    5  A    between atoms: N_8  and  C_11 
REMARK    6  A    between atoms: C_11  and  C_12 
REMARK    7  A    between atoms: C_15  and  N_16 
REMARK    8  A    between atoms: C_31  and  O_32 
ROOT
HETATM    1  C   UNL     1       4.769  26.748  52.291  1.00  0.00     0.310 C 
ENDROOT
BRANCH   1   2
HETATM    2  C   UNL     1       5.296  25.320  52.583  1.00  0.00     0.257 C 
HETATM    3  N   UNL     1       6.539  25.189  53.144  1.00  0.00    -0.323 N 
HETATM    4  H   UNL     1       7.143  26.002  53.266  1.00  0.00     0.169 HD
HETATM    5  O   UNL     1       4.473  24.410  52.424  1.00  0.00    -0.270 OA
BRANCH   3   6
HETATM    6  C   UNL     1       7.097  24.027  53.735  1.00  0.00     0.069 A 
HETATM    7  C   UNL     1       7.479  22.891  53.014  1.00  0.00     0.039 A 
HETATM    8  C   UNL     1       7.974  21.759  53.676  1.00  0.00    -0.060 A 
HETATM    9  C   UNL     1       8.410  20.549  52.900  1.00  0.00     0.048 C 
HETATM   10  C   UNL     1       8.104  21.784  55.067  1.00  0.00     0.009 A 
HETATM   11  C   UNL     1       7.736  22.917  55.797  1.00  0.00     0.039 A 
HETATM   12  C   UNL     1       7.235  24.042  55.138  1.00  0.00     0.095 A 
BRANCH  12  13
HETATM   13  O   UNL     1       6.819  25.201  55.754  1.00  0.00    -0.354 OA
HETATM   14  C   UNL     1       5.672  25.104  56.592  1.00  0.00     0.210 C 
ENDBRANCH  12  13
ENDBRANCH   3   6
ENDBRANCH   1   2
BRANCH   1  15
HETATM   15  N   UNL     1       5.392  27.627  53.347  1.00  0.00    -0.054 N 
HETATM   16  H   UNL     1       6.052  27.007  53.850  1.00  0.00     0.278 HD
HETATM   17  H   UNL     1       6.008  28.320  52.909  1.00  0.00     0.278 HD
BRANCH  15  18
HETATM   18  C   UNL     1       4.523  28.289  54.345  1.00  0.00     0.272 C 
BRANCH  18  19
HETATM   19  C   UNL     1       5.397  28.721  55.489  1.00  0.00    -0.033 A 
HETATM   20  C   UNL     1       4.825  29.211  56.666  1.00  0.00     0.011 A 
HETATM   21  C   UNL     1       5.619  29.837  57.634  1.00  0.00     0.030 A 
HETATM   22  C   UNL     1       6.998  29.999  57.457  1.00  0.00     0.037 A 
HETATM   23  C   UNL     1       7.572  29.441  56.305  1.00  0.00     0.030 A 
HETATM   24  C   UNL     1       6.784  28.817  55.329  1.00  0.00     0.011 A 
BRANCH  22  25
HETATM   25  N   UNL     1       7.791  30.727  58.384  1.00  0.00    -0.318 N 
HETATM   26  C   UNL     1       9.180  30.592  58.564  1.00  0.00     0.224 C 
HETATM   27  O   UNL     1       9.968  29.891  57.949  1.00  0.00    -0.273 OA
HETATM   28  C   UNL     1       9.574  31.416  59.769  1.00  0.00     0.105 C 
HETATM   29  C   UNL     1       8.396  32.353  59.951  1.00  0.00     0.029 C 
HETATM   30  C   UNL     1       7.225  31.550  59.429  1.00  0.00     0.133 C 
ENDBRANCH  22  25
ENDBRANCH  18  19
ENDBRANCH  15  18
ENDBRANCH   1  15
BRANCH   1  31
HETATM   31  C   UNL     1       4.946  27.265  50.882  1.00  0.00    -0.019 A 
HETATM   32  C   UNL     1       4.648  26.418  49.800  1.00  0.00     0.010 A 
HETATM   33  C   UNL     1       4.821  26.853  48.485  1.00  0.00     0.001 A 
HETATM   34  C   UNL     1       5.294  28.136  48.233  1.00  0.00     0.000 A 
HETATM   35  C   UNL     1       5.603  28.986  49.293  1.00  0.00     0.001 A 
HETATM   36  C   UNL     1       5.435  28.556  50.611  1.00  0.00     0.010 A 
ENDBRANCH   1  31
TORSDOF 8
ENDMDL
MODEL 8
REMARK VINA RESULT:      -9.3      3.424      9.722
REMARK  8 active torsions:
REMARK  status: ('A' for Active; 'I' for Inactive)
REMARK    1  A    between atoms: C_4  and  N_5 
REMARK       I    between atoms: N_5  and  C_6 
REMARK    2  A    between atoms: C_6  and  C_7 
REMARK    3  A    between atoms: C_7  and  N_8 
REMARK    4  A    between atoms: C_7  and  C_24 
REMARK    5  A    between atoms: N_8  and  C_11 
REMARK    6  A    between atoms: C_11  and  C_12 
REMARK    7  A    between atoms: C_15  and  N_16 
REMARK    8  A    between atoms: C_31  and  O_32 
ROOT
HETATM    1  C   UNL     1       6.625  30.105  57.741  1.00  0.00     0.310 C 
ENDROOT
BRANCH   1   2
HETATM    2  C   UNL     1       6.201  31.412  58.458  1.00  0.00     0.257 C 
HETATM    3  N   UNL     1       6.046  31.386  59.819  1.00  0.00    -0.323 N 
HETATM    4  H   UNL     1       6.103  30.505  60.331  1.00  0.00     0.169 HD
HETATM    5  O   UNL     1       6.189  32.425  57.747  1.00  0.00    -0.270 OA
BRANCH   3   6
HETATM    6  C   UNL     1       5.935  32.496  60.693  1.00  0.00     0.069 A 
HETATM    7  C   UNL     1       5.001  33.524  60.535  1.00  0.00     0.039 A 
HETATM    8  C   UNL     1       4.988  34.618  61.411  1.00  0.00    -0.060 A 
HETATM    9  C   UNL     1       3.968  35.709  61.258  1.00  0.00     0.048 C 
HETATM   10  C   UNL     1       5.907  34.661  62.463  1.00  0.00     0.009 A 
HETATM   11  C   UNL     1       6.838  33.634  62.638  1.00  0.00     0.039 A 
HETATM   12  C   UNL     1       6.856  32.548  61.760  1.00  0.00     0.095 A 
BRANCH  12  13
HETATM   13  O   UNL     1       7.740  31.494  61.820  1.00  0.00    -0.354 OA
HETATM   14  C   UNL     1       9.126  31.818  61.747  1.00  0.00     0.210 C 
ENDBRANCH  12  13
ENDBRANCH   3   6
ENDBRANCH   1   2
BRANCH   1  15
HETATM   15  N   UNL     1       5.687  29.972  56.567  1.00  0.00    -0.054 N 
HETATM   16  H   UNL     1       5.301  30.924  56.429  1.00  0.00     0.278 HD
HETATM   17  H   UNL     1       6.222  29.809  55.707  1.00  0.00     0.278 HD
BRANCH  15  18
HETATM   18  C   UNL     1       4.559  29.018  56.645  1.00  0.00     0.272 C 
BRANCH  18  19
HETATM   19  C   UNL     1       5.009  27.734  56.005  1.00  0.00    -0.033 A 
HETATM   20  C   UNL     1       5.115  26.567  56.767  1.00  0.00     0.011 A 
HETATM   21  C   UNL     1       5.757  25.437  56.248  1.00  0.00     0.030 A 
HETATM   22  C   UNL     1       6.315  25.436  54.964  1.00  0.00     0.037 A 
HETATM   23  C   UNL     1       6.140  26.588  54.183  1.00  0.00     0.030 A 
HETATM   24  C   UNL     1       5.503  27.726  54.696  1.00  0.00     0.011 A 
BRANCH  22  25
HETATM   25  N   UNL     1       7.060  24.331  54.472  1.00  0.00    -0.318 N 
HETATM   26  C   UNL     1       8.180  23.750  55.094  1.00  0.00     0.224 C 
HETATM   27  O   UNL     1       8.690  24.028  56.168  1.00  0.00    -0.273 OA
HETATM   28  C   UNL     1       8.764  22.732  54.142  1.00  0.00     0.105 C 
HETATM   29  C   UNL     1       7.633  22.480  53.164  1.00  0.00     0.029 C 
HETATM   30  C   UNL     1       6.892  23.799  53.139  1.00  0.00     0.133 C 
ENDBRANCH  22  25
ENDBRANCH  18  19
ENDBRANCH  15  18
ENDBRANCH   1  15
BRANCH   1  31
HETATM   31  C   UNL     1       8.086  29.970  57.376  1.00  0.00    -0.019 A 
HETATM   32  C   UNL     1       9.062  30.423  58.281  1.00  0.00     0.010 A 
HETATM   33  C   UNL     1      10.419  30.335  57.969  1.00  0.00     0.001 A 
HETATM   34  C   UNL     1      10.820  29.798  56.751  1.00  0.00     0.000 A 
HETATM   35  C   UNL     1       9.866  29.353  55.838  1.00  0.00     0.001 A 
HETATM   36  C   UNL     1       8.506  29.440  56.143  1.00  0.00     0.010 A 
ENDBRANCH   1  31
TORSDOF 8
ENDMDL
MODEL 9
REMARK VINA RESULT:      -9.3      2.912      9.240
REMARK  8 active torsions:
REMARK  status: ('A' for Active; 'I' for Inactive)
REMARK    1  A    between atoms: C_4  and  N_5 
REMARK       I    between atoms: N_5  and  C_6 
REMARK    2  A    between atoms: C_6  and  C_7 
REMARK    3  A    between atoms: C_7  and  N_8 
REMARK    4  A    between atoms: C_7  and  C_24 
REMARK    5  A    between atoms: N_8  and  C_11 
REMARK    6  A    between atoms: C_11  and  C_12 
REMARK    7  A    between atoms: C_15  and  N_16 
REMARK    8  A    between atoms: C_31  and  O_32 
ROOT
HETATM    1  C   UNL     1       6.648  27.297  54.078  1.00  0.00     0.310 C 
ENDROOT
BRANCH   1   2
HETATM    2  C   UNL     1       6.565  25.750  54.028  1.00  0.00     0.257 C 
HETATM    3  N   UNL     1       7.727  25.033  54.143  1.00  0.00    -0.323 N 
HETATM    4  H   UNL     1       8.630  25.506  54.153  1.00  0.00     0.169 HD
HETATM    5  O   UNL     1       5.420  25.282  54.042  1.00  0.00    -0.270 OA
BRANCH   3   6
HETATM    6  C   UNL     1       7.858  23.643  54.392  1.00  0.00     0.069 A 
HETATM    7  C   UNL     1       8.003  22.680  53.389  1.00  0.00     0.039 A 
HETATM    8  C   UNL     1       8.072  21.318  53.713  1.00  0.00    -0.060 A 
HETATM    9  C   UNL     1       8.256  20.285  52.638  1.00  0.00     0.048 C 
HETATM   10  C   UNL     1       8.018  20.932  55.055  1.00  0.00     0.009 A 
HETATM   11  C   UNL     1       7.884  21.886  56.067  1.00  0.00     0.039 A 
HETATM   12  C   UNL     1       7.806  23.242  55.743  1.00  0.00     0.095 A 
BRANCH  12  13
HETATM   13  O   UNL     1       7.650  24.265  56.651  1.00  0.00    -0.354 OA
HETATM   14  C   UNL     1       8.770  24.564  57.478  1.00  0.00     0.210 C 
ENDBRANCH  12  13
ENDBRANCH   3   6
ENDBRANCH   1   2
BRANCH   1  15
HETATM   15  N   UNL     1       5.260  27.783  53.743  1.00  0.00    -0.054 N 
HETATM   16  H   UNL     1       4.808  26.980  53.270  1.00  0.00     0.278 HD
HETATM   17  H   UNL     1       4.709  27.890  54.601  1.00  0.00     0.278 HD
BRANCH  15  18
HETATM   18  C   UNL     1       5.098  28.980  52.890  1.00  0.00     0.272 C 
BRANCH  18  19
HETATM   19  C   UNL     1       4.164  28.612  51.769  1.00  0.00    -0.033 A 
HETATM   20  C   UNL     1       4.645  27.930  50.648  1.00  0.00     0.011 A 
HETATM   21  C   UNL     1       3.849  27.798  49.504  1.00  0.00     0.030 A 
HETATM   22  C   UNL     1       2.562  28.345  49.439  1.00  0.00     0.037 A 
HETATM   23  C   UNL     1       2.064  28.965  50.595  1.00  0.00     0.030 A 
HETATM   24  C   UNL     1       2.855  29.105  51.743  1.00  0.00     0.011 A 
BRANCH  22  25
HETATM   25  N   UNL     1       1.792  28.307  48.246  1.00  0.00    -0.318 N 
HETATM   26  C   UNL     1       1.567  29.391  47.377  1.00  0.00     0.224 C 
HETATM   27  O   UNL     1       2.014  30.526  47.435  1.00  0.00    -0.273 OA
HETATM   28  C   UNL     1       0.551  28.955  46.345  1.00  0.00     0.105 C 
HETATM   29  C   UNL     1       0.583  27.443  46.442  1.00  0.00     0.029 C 
HETATM   30  C   UNL     1       0.947  27.191  47.888  1.00  0.00     0.133 C 
ENDBRANCH  22  25
ENDBRANCH  18  19
ENDBRANCH  15  18
ENDBRANCH   1  15
BRANCH   1  31
HETATM   31  C   UNL     1       7.224  27.908  55.336  1.00  0.00    -0.019 A 
HETATM   32  C   UNL     1       8.343  28.754  55.236  1.00  0.00     0.010 A 
HETATM   33  C   UNL     1       8.915  29.317  56.377  1.00  0.00     0.001 A 
HETATM   34  C   UNL     1       8.380  29.043  57.631  1.00  0.00     0.000 A 
HETATM   35  C   UNL     1       7.278  28.200  57.750  1.00  0.00     0.001 A 
HETATM   36  C   UNL     1       6.702  27.631  56.612  1.00  0.00     0.010 A 
ENDBRANCH   1  31
TORSDOF 8
ENDMDL
MODEL 10
REMARK VINA RESULT:      -9.2      2.949      6.126
REMARK  8 active torsions:
REMARK  status: ('A' for Active; 'I' for Inactive)
REMARK    1  A    between atoms: C_4  and  N_5 
REMARK       I    between atoms: N_5  and  C_6 
REMARK    2  A    between atoms: C_6  and  C_7 
REMARK    3  A    between atoms: C_7  and  N_8 
REMARK    4  A    between atoms: C_7  and  C_24 
REMARK    5  A    between atoms: N_8  and  C_11 
REMARK    6  A    between atoms: C_11  and  C_12 
REMARK    7  A    between atoms: C_15  and  N_16 
REMARK    8  A    between atoms: C_31  and  O_32 
ROOT
HETATM    1  C   UNL     1       6.638  28.853  56.305  1.00  0.00     0.310 C 
ENDROOT
BRANCH   1   2
HETATM    2  C   UNL     1       6.436  27.346  56.002  1.00  0.00     0.257 C 
HETATM    3  N   UNL     1       7.138  26.793  54.963  1.00  0.00    -0.323 N 
HETATM    4  H   UNL     1       7.693  27.380  54.341  1.00  0.00     0.169 HD
HETATM    5  O   UNL     1       5.764  26.725  56.835  1.00  0.00    -0.270 OA
BRANCH   3   6
HETATM    6  C   UNL     1       7.316  25.414  54.683  1.00  0.00     0.069 A 
HETATM    7  C   UNL     1       7.791  24.485  55.613  1.00  0.00     0.039 A 
HETATM    8  C   UNL     1       7.992  23.147  55.245  1.00  0.00    -0.060 A 
HETATM    9  C   UNL     1       8.477  22.142  56.250  1.00  0.00     0.048 C 
HETATM   10  C   UNL     1       7.690  22.745  53.941  1.00  0.00     0.009 A 
HETATM   11  C   UNL     1       7.204  23.663  53.007  1.00  0.00     0.039 A 
HETATM   12  C   UNL     1       7.011  24.997  53.371  1.00  0.00     0.095 A 
BRANCH  12  13
HETATM   13  O   UNL     1       6.562  25.991  52.531  1.00  0.00    -0.354 OA
HETATM   14  C   UNL     1       5.509  25.645  51.637  1.00  0.00     0.210 C 
ENDBRANCH  12  13
ENDBRANCH   3   6
ENDBRANCH   1   2
BRANCH   1  15
HETATM   15  N   UNL     1       5.560  29.208  57.298  1.00  0.00    -0.054 N 
HETATM   16  H   UNL     1       4.973  28.357  57.366  1.00  0.00     0.278 HD
HETATM   17  H   UNL     1       5.962  29.290  58.239  1.00  0.00     0.278 HD
BRANCH  15  18
HETATM   18  C   UNL     1       4.677  30.363  57.028  1.00  0.00     0.272 C 
BRANCH  18  19
HETATM   19  C   UNL     1       4.778  31.294  58.205  1.00  0.00    -0.033 A 
HETATM   20  C   UNL     1       6.014  31.831  58.574  1.00  0.00     0.011 A 
HETATM   21  C   UNL     1       6.162  32.495  59.797  1.00  0.00     0.030 A 
HETATM   22  C   UNL     1       5.091  32.638  60.688  1.00  0.00     0.037 A 
HETATM   23  C   UNL     1       3.840  32.158  60.276  1.00  0.00     0.030 A 
HETATM   24  C   UNL     1       3.683  31.487  59.055  1.00  0.00     0.011 A 
BRANCH  22  25
HETATM   25  N   UNL     1       5.260  33.216  61.975  1.00  0.00    -0.318 N 
HETATM   26  C   UNL     1       5.097  32.552  63.204  1.00  0.00     0.224 C 
HETATM   27  O   UNL     1       4.841  31.376  63.411  1.00  0.00    -0.273 OA
HETATM   28  C   UNL     1       5.191  33.583  64.305  1.00  0.00     0.105 C 
HETATM   29  C   UNL     1       5.860  34.760  63.624  1.00  0.00     0.029 C 
HETATM   30  C   UNL     1       5.405  34.638  62.186  1.00  0.00     0.133 C 
ENDBRANCH  22  25
ENDBRANCH  18  19
ENDBRANCH  15  18
ENDBRANCH   1  15
BRANCH   1  31
HETATM   31  C   UNL     1       8.024  29.284  56.725  1.00  0.00    -0.019 A 
HETATM   32  C   UNL     1       9.041  29.358  55.757  1.00  0.00     0.010 A 
HETATM   33  C   UNL     1      10.338  29.731  56.112  1.00  0.00     0.001 A 
HETATM   34  C   UNL     1      10.638  30.032  57.437  1.00  0.00     0.000 A 
HETATM   35  C   UNL     1       9.646  29.954  58.411  1.00  0.00     0.001 A 
HETATM   36  C   UNL     1       8.346  29.580  58.062  1.00  0.00     0.010 A 
ENDBRANCH   1  31
TORSDOF 8
ENDMDL
