MODEL 1
REMARK VINA RESULT:      -8.1      0.000      0.000
REMARK  6 active torsions:
REMARK  status: ('A' for Active; 'I' for Inactive)
REMARK    1  A    between atoms: C_6  and  C_7 
REMARK    2  A    between atoms: C_7  and  N_8 
REMARK    3  A    between atoms: C_7  and  C_24 
REMARK       I    between atoms: N_8  and  C_9 
REMARK       I    between atoms: C_9  and  N_10 
REMARK    4  A    between atoms: N_10  and  C_11 
REMARK    5  A    between atoms: C_14  and  C_15 
REMARK    6  A    between atoms: C_24  and  O_25 
ROOT
HETATM    1  N   UNL     1       7.342  25.084  56.303  1.00  0.00    -0.331 N 
HETATM    2  C   UNL     1       7.571  26.091  57.189  1.00  0.00     0.321 C 
HETATM    3  N   UNL     1       7.410  27.362  56.715  1.00  0.00    -0.309 N 
HETATM    4  O   UNL     1       7.894  25.769  58.328  1.00  0.00    -0.247 OA
HETATM    5  H   UNL     1       7.493  24.181  56.731  1.00  0.00     0.165 HD
HETATM    6  H   UNL     1       7.149  27.451  55.749  1.00  0.00     0.170 HD
ENDROOT
BRANCH   1   7
HETATM    7  C   UNL     1       7.010  25.100  54.882  1.00  0.00     0.161 C 
BRANCH   7   8
HETATM    8  C   UNL     1       7.417  23.787  54.288  1.00  0.00     0.056 A 
HETATM    9  N   UNL     1       7.769  23.626  52.967  1.00  0.00    -0.277 N 
HETATM   10  C   UNL     1       7.842  24.640  51.940  1.00  0.00     0.179 C 
HETATM   11  N   UNL     1       8.064  22.355  52.645  1.00  0.00    -0.185 NA
HETATM   12  C   UNL     1       7.921  21.688  53.790  1.00  0.00     0.141 A 
HETATM   13  C   UNL     1       7.516  22.522  54.842  1.00  0.00     0.050 A 
ENDBRANCH   7   8
BRANCH   7  14
HETATM   14  C   UNL     1       5.500  25.357  54.673  1.00  0.00     0.198 C 
BRANCH  14  15
HETATM   15  O   UNL     1       5.285  26.761  54.487  1.00  0.00    -0.394 OA
HETATM   16  C   UNL     1       4.838  27.058  53.172  1.00  0.00     0.201 C 
ENDBRANCH  14  15
ENDBRANCH   7  14
ENDBRANCH   1   7
BRANCH   3  17
HETATM   17  C   UNL     1       7.575  28.574  57.417  1.00  0.00     0.036 A 
HETATM   18  C   UNL     1       6.533  29.420  57.778  1.00  0.00     0.030 A 
HETATM   19  C   UNL     1       6.787  30.604  58.486  1.00  0.00     0.010 A 
HETATM   20  C   UNL     1       8.088  30.972  58.872  1.00  0.00    -0.054 A 
HETATM   21  C   UNL     1       9.130  30.126  58.469  1.00  0.00     0.010 A 
HETATM   22  C   UNL     1       8.877  28.941  57.764  1.00  0.00     0.030 A 
BRANCH  20  23
HETATM   23  C   UNL     1       8.319  32.283  59.628  1.00  0.00     0.018 C 
HETATM   24  C   UNL     1       7.135  32.694  60.537  1.00  0.00     0.009 C 
HETATM   25  C   UNL     1       7.037  31.831  61.794  1.00  0.00     0.001 C 
HETATM   26  C   UNL     1       8.327  31.884  62.604  1.00  0.00     0.000 C 
HETATM   27  C   UNL     1       9.547  31.533  61.757  1.00  0.00     0.001 C 
HETATM   28  C   UNL     1       9.612  32.367  60.475  1.00  0.00     0.009 C 
ENDBRANCH  20  23
ENDBRANCH   3  17
TORSDOF 6
ENDMDL
MODEL 2
REMARK VINA RESULT:      -7.9      5.946      8.680
REMARK  6 active torsions:
REMARK  status: ('A' for Active; 'I' for Inactive)
REMARK    1  A    between atoms: C_6  and  C_7 
REMARK    2  A    between atoms: C_7  and  N_8 
REMARK    3  A    between atoms: C_7  and  C_24 
REMARK       I    between atoms: N_8  and  C_9 
REMARK       I    between atoms: C_9  and  N_10 
REMARK    4  A    between atoms: N_10  and  C_11 
REMARK    5  A    between atoms: C_14  and  C_15 
REMARK    6  A    between atoms: C_24  and  O_25 
ROOT
HETATM    1  N   UNL     1       3.857  28.267  51.409  1.00  0.00    -0.331 N 
HETATM    2  C   UNL     1       4.479  27.448  52.300  1.00  0.00     0.321 C 
HETATM    3  N   UNL     1       5.623  26.840  51.867  1.00  0.00    -0.309 N 
HETATM    4  O   UNL     1       3.963  27.334  53.407  1.00  0.00    -0.247 OA
HETATM    5  H   UNL     1       3.016  28.665  51.805  1.00  0.00     0.165 HD
HETATM    6  H   UNL     1       5.905  27.035  50.923  1.00  0.00     0.170 HD
ENDROOT
BRANCH   1   7
HETATM    7  C   UNL     1       4.149  28.581  50.013  1.00  0.00     0.161 C 
BRANCH   7   8
HETATM    8  C   UNL     1       3.042  28.034  49.166  1.00  0.00     0.056 A 
HETATM    9  N   UNL     1       3.230  27.077  48.194  1.00  0.00    -0.277 N 
HETATM   10  C   UNL     1       4.461  26.417  47.827  1.00  0.00     0.179 C 
HETATM   11  N   UNL     1       2.103  26.760  47.533  1.00  0.00    -0.185 NA
HETATM   12  C   UNL     1       1.165  27.513  48.108  1.00  0.00     0.141 A 
HETATM   13  C   UNL     1       1.689  28.327  49.123  1.00  0.00     0.050 A 
ENDBRANCH   7   8
BRANCH   7  14
HETATM   14  C   UNL     1       4.297  30.106  49.813  1.00  0.00     0.198 C 
BRANCH  14  15
HETATM   15  O   UNL     1       4.412  30.385  48.413  1.00  0.00    -0.394 OA
HETATM   16  C   UNL     1       3.698  31.558  48.047  1.00  0.00     0.201 C 
ENDBRANCH  14  15
ENDBRANCH   7  14
ENDBRANCH   1   7
BRANCH   3  17
HETATM   17  C   UNL     1       6.457  25.958  52.584  1.00  0.00     0.036 A 
HETATM   18  C   UNL     1       6.689  26.035  53.953  1.00  0.00     0.030 A 
HETATM   19  C   UNL     1       7.529  25.109  54.588  1.00  0.00     0.010 A 
HETATM   20  C   UNL     1       8.150  24.066  53.881  1.00  0.00    -0.054 A 
HETATM   21  C   UNL     1       7.935  24.024  52.497  1.00  0.00     0.010 A 
HETATM   22  C   UNL     1       7.093  24.947  51.861  1.00  0.00     0.030 A 
BRANCH  20  23
HETATM   23  C   UNL     1       9.072  23.088  54.615  1.00  0.00     0.018 C 
HETATM   24  C   UNL     1       8.662  22.830  56.085  1.00  0.00     0.009 C 
HETATM   25  C   UNL     1       7.419  21.949  56.198  1.00  0.00     0.001 C 
HETATM   26  C   UNL     1       7.622  20.611  55.497  1.00  0.00     0.000 C 
HETATM   27  C   UNL     1       8.073  20.789  54.050  1.00  0.00     0.001 C 
HETATM   28  C   UNL     1       9.289  21.713  53.939  1.00  0.00     0.009 C 
ENDBRANCH  20  23
ENDBRANCH   3  17
TORSDOF 6
ENDMDL
MODEL 3
REMARK VINA RESULT:      -7.8      1.263      1.547
REMARK  6 active torsions:
REMARK  status: ('A' for Active; 'I' for Inactive)
REMARK    1  A    between atoms: C_6  and  C_7 
REMARK    2  A    between atoms: C_7  and  N_8 
REMARK    3  A    between atoms: C_7  and  C_24 
REMARK       I    between atoms: N_8  and  C_9 
REMARK       I    between atoms: C_9  and  N_10 
REMARK    4  A    between atoms: N_10  and  C_11 
REMARK    5  A    between atoms: C_14  and  C_15 
REMARK    6  A    between atoms: C_24  and  O_25 
ROOT
HETATM    1  N   UNL     1       6.620  25.805  55.178  1.00  0.00    -0.331 N 
HETATM    2  C   UNL     1       6.563  26.765  56.140  1.00  0.00     0.321 C 
HETATM    3  N   UNL     1       7.548  27.711  56.111  1.00  0.00    -0.309 N 
HETATM    4  O   UNL     1       5.634  26.699  56.940  1.00  0.00    -0.247 OA
HETATM    5  H   UNL     1       5.863  25.143  55.279  1.00  0.00     0.165 HD
HETATM    6  H   UNL     1       8.241  27.614  55.391  1.00  0.00     0.170 HD
ENDROOT
BRANCH   1   7
HETATM    7  C   UNL     1       7.597  25.544  54.126  1.00  0.00     0.161 C 
BRANCH   7   8
HETATM    8  C   UNL     1       7.800  24.064  54.028  1.00  0.00     0.056 A 
HETATM    9  N   UNL     1       8.406  23.313  55.010  1.00  0.00    -0.277 N 
HETATM   10  C   UNL     1       8.919  23.766  56.282  1.00  0.00     0.179 C 
HETATM   11  N   UNL     1       8.514  22.010  54.695  1.00  0.00    -0.185 NA
HETATM   12  C   UNL     1       7.943  21.918  53.494  1.00  0.00     0.141 A 
HETATM   13  C   UNL     1       7.488  23.159  53.027  1.00  0.00     0.050 A 
ENDBRANCH   7   8
BRANCH   7  14
HETATM   14  C   UNL     1       7.121  26.127  52.776  1.00  0.00     0.198 C 
BRANCH  14  15
HETATM   15  O   UNL     1       5.742  26.499  52.888  1.00  0.00    -0.394 OA
HETATM   16  C   UNL     1       5.215  26.954  51.649  1.00  0.00     0.201 C 
ENDBRANCH  14  15
ENDBRANCH   7  14
ENDBRANCH   1   7
BRANCH   3  17
HETATM   17  C   UNL     1       7.718  28.809  56.979  1.00  0.00     0.036 A 
HETATM   18  C   UNL     1       6.688  29.639  57.405  1.00  0.00     0.030 A 
HETATM   19  C   UNL     1       6.945  30.706  58.279  1.00  0.00     0.010 A 
HETATM   20  C   UNL     1       8.236  30.967  58.769  1.00  0.00    -0.054 A 
HETATM   21  C   UNL     1       9.268  30.143  58.302  1.00  0.00     0.010 A 
HETATM   22  C   UNL     1       9.012  29.074  57.431  1.00  0.00     0.030 A 
BRANCH  20  23
HETATM   23  C   UNL     1       8.472  32.153  59.708  1.00  0.00     0.018 C 
HETATM   24  C   UNL     1       7.245  32.508  60.582  1.00  0.00     0.009 C 
HETATM   25  C   UNL     1       7.015  31.497  61.703  1.00  0.00     0.001 C 
HETATM   26  C   UNL     1       8.243  31.372  62.598  1.00  0.00     0.000 C 
HETATM   27  C   UNL     1       9.504  31.066  61.794  1.00  0.00     0.001 C 
HETATM   28  C   UNL     1       9.702  32.054  60.642  1.00  0.00     0.009 C 
ENDBRANCH  20  23
ENDBRANCH   3  17
TORSDOF 6
ENDMDL
MODEL 4
REMARK VINA RESULT:      -7.6      3.142      9.170
REMARK  6 active torsions:
REMARK  status: ('A' for Active; 'I' for Inactive)
REMARK    1  A    between atoms: C_6  and  C_7 
REMARK    2  A    between atoms: C_7  and  N_8 
REMARK    3  A    between atoms: C_7  and  C_24 
REMARK       I    between atoms: N_8  and  C_9 
REMARK       I    between atoms: C_9  and  N_10 
REMARK    4  A    between atoms: N_10  and  C_11 
REMARK    5  A    between atoms: C_14  and  C_15 
REMARK    6  A    between atoms: C_24  and  O_25 
ROOT
HETATM    1  N   UNL     1       7.728  30.887  59.173  1.00  0.00    -0.331 N 
HETATM    2  C   UNL     1       7.804  29.859  58.284  1.00  0.00     0.321 C 
HETATM    3  N   UNL     1       6.630  29.225  57.992  1.00  0.00    -0.309 N 
HETATM    4  O   UNL     1       8.912  29.600  57.824  1.00  0.00    -0.247 OA
HETATM    5  H   UNL     1       8.640  31.292  59.340  1.00  0.00     0.165 HD
HETATM    6  H   UNL     1       5.810  29.558  58.465  1.00  0.00     0.170 HD
ENDROOT
BRANCH   1   7
HETATM    7  C   UNL     1       6.611  31.418  59.948  1.00  0.00     0.161 C 
BRANCH   7   8
HETATM    8  C   UNL     1       7.133  31.870  61.277  1.00  0.00     0.056 A 
HETATM    9  N   UNL     1       6.327  32.129  62.362  1.00  0.00    -0.277 N 
HETATM   10  C   UNL     1       4.890  32.002  62.449  1.00  0.00     0.179 C 
HETATM   11  N   UNL     1       7.006  32.556  63.441  1.00  0.00    -0.185 NA
HETATM   12  C   UNL     1       8.279  32.548  63.048  1.00  0.00     0.141 A 
HETATM   13  C   UNL     1       8.419  32.137  61.715  1.00  0.00     0.050 A 
ENDBRANCH   7   8
BRANCH   7  14
HETATM   14  C   UNL     1       5.927  32.583  59.198  1.00  0.00     0.198 C 
BRANCH  14  15
HETATM   15  O   UNL     1       4.950  32.050  58.297  1.00  0.00    -0.394 OA
HETATM   16  C   UNL     1       5.127  32.539  56.975  1.00  0.00     0.201 C 
ENDBRANCH  14  15
ENDBRANCH   7  14
ENDBRANCH   1   7
BRANCH   3  17
HETATM   17  C   UNL     1       6.429  28.145  57.108  1.00  0.00     0.036 A 
HETATM   18  C   UNL     1       6.923  26.861  57.311  1.00  0.00     0.030 A 
HETATM   19  C   UNL     1       6.667  25.842  56.382  1.00  0.00     0.010 A 
HETATM   20  C   UNL     1       5.894  26.067  55.230  1.00  0.00    -0.054 A 
HETATM   21  C   UNL     1       5.435  27.374  55.022  1.00  0.00     0.010 A 
HETATM   22  C   UNL     1       5.687  28.393  55.951  1.00  0.00     0.030 A 
BRANCH  20  23
HETATM   23  C   UNL     1       5.655  24.928  54.235  1.00  0.00     0.018 C 
HETATM   24  C   UNL     1       5.358  25.413  52.796  1.00  0.00     0.009 C 
HETATM   25  C   UNL     1       6.603  25.945  52.090  1.00  0.00     0.001 C 
HETATM   26  C   UNL     1       7.706  24.893  52.042  1.00  0.00     0.000 C 
HETATM   27  C   UNL     1       8.021  24.336  53.428  1.00  0.00     0.001 C 
HETATM   28  C   UNL     1       6.761  23.849  54.149  1.00  0.00     0.009 C 
ENDBRANCH  20  23
ENDBRANCH   3  17
TORSDOF 6
ENDMDL
MODEL 5
REMARK VINA RESULT:      -7.6      3.933      8.589
REMARK  6 active torsions:
REMARK  status: ('A' for Active; 'I' for Inactive)
REMARK    1  A    between atoms: C_6  and  C_7 
REMARK    2  A    between atoms: C_7  and  N_8 
REMARK    3  A    between atoms: C_7  and  C_24 
REMARK       I    between atoms: N_8  and  C_9 
REMARK       I    between atoms: C_9  and  N_10 
REMARK    4  A    between atoms: N_10  and  C_11 
REMARK    5  A    between atoms: C_14  and  C_15 
REMARK    6  A    between atoms: C_24  and  O_25 
ROOT
HETATM    1  N   UNL     1       5.561  29.743  55.120  1.00  0.00    -0.331 N 
HETATM    2  C   UNL     1       6.508  28.783  55.309  1.00  0.00     0.321 C 
HETATM    3  N   UNL     1       6.074  27.489  55.272  1.00  0.00    -0.309 N 
HETATM    4  O   UNL     1       7.660  29.165  55.490  1.00  0.00    -0.247 OA
HETATM    5  H   UNL     1       5.965  30.668  55.174  1.00  0.00     0.165 HD
HETATM    6  H   UNL     1       5.091  27.349  55.121  1.00  0.00     0.170 HD
ENDROOT
BRANCH   1   7
HETATM    7  C   UNL     1       4.115  29.655  54.943  1.00  0.00     0.161 C 
BRANCH   7   8
HETATM    8  C   UNL     1       3.509  30.956  55.371  1.00  0.00     0.056 A 
HETATM    9  N   UNL     1       3.354  31.325  56.688  1.00  0.00    -0.277 N 
HETATM   10  C   UNL     1       3.746  30.588  57.867  1.00  0.00     0.179 C 
HETATM   11  N   UNL     1       2.754  32.519  56.840  1.00  0.00    -0.185 NA
HETATM   12  C   UNL     1       2.540  32.937  55.592  1.00  0.00     0.141 A 
HETATM   13  C   UNL     1       2.982  32.007  54.640  1.00  0.00     0.050 A 
ENDBRANCH   7   8
BRANCH   7  14
HETATM   14  C   UNL     1       3.760  29.337  53.473  1.00  0.00     0.198 C 
BRANCH  14  15
HETATM   15  O   UNL     1       3.783  27.918  53.282  1.00  0.00    -0.394 OA
HETATM   16  C   UNL     1       4.496  27.553  52.108  1.00  0.00     0.201 C 
ENDBRANCH  14  15
ENDBRANCH   7  14
ENDBRANCH   1   7
BRANCH   3  17
HETATM   17  C   UNL     1       6.840  26.316  55.430  1.00  0.00     0.036 A 
HETATM   18  C   UNL     1       7.286  25.828  56.653  1.00  0.00     0.030 A 
HETATM   19  C   UNL     1       8.038  24.646  56.720  1.00  0.00     0.010 A 
HETATM   20  C   UNL     1       8.352  23.902  55.569  1.00  0.00    -0.054 A 
HETATM   21  C   UNL     1       7.926  24.427  54.342  1.00  0.00     0.010 A 
HETATM   22  C   UNL     1       7.172  25.607  54.274  1.00  0.00     0.030 A 
BRANCH  20  23
HETATM   23  C   UNL     1       9.190  22.626  55.689  1.00  0.00     0.018 C 
HETATM   24  C   UNL     1       8.484  21.491  56.469  1.00  0.00     0.009 C 
HETATM   25  C   UNL     1       7.363  20.838  55.662  1.00  0.00     0.001 C 
HETATM   26  C   UNL     1       7.881  20.285  54.339  1.00  0.00     0.000 C 
HETATM   27  C   UNL     1       8.630  21.343  53.534  1.00  0.00     0.001 C 
HETATM   28  C   UNL     1       9.720  22.028  54.364  1.00  0.00     0.009 C 
ENDBRANCH  20  23
ENDBRANCH   3  17
TORSDOF 6
ENDMDL
MODEL 6
REMARK VINA RESULT:      -7.6      2.200      3.304
REMARK  6 active torsions:
REMARK  status: ('A' for Active; 'I' for Inactive)
REMARK    1  A    between atoms: C_6  and  C_7 
REMARK    2  A    between atoms: C_7  and  N_8 
REMARK    3  A    between atoms: C_7  and  C_24 
REMARK       I    between atoms: N_8  and  C_9 
REMARK       I    between atoms: C_9  and  N_10 
REMARK    4  A    between atoms: N_10  and  C_11 
REMARK    5  A    between atoms: C_14  and  C_15 
REMARK    6  A    between atoms: C_24  and  O_25 
ROOT
HETATM    1  N   UNL     1       7.553  27.509  53.901  1.00  0.00    -0.331 N 
HETATM    2  C   UNL     1       8.118  28.410  54.749  1.00  0.00     0.321 C 
HETATM    3  N   UNL     1       7.451  28.642  55.918  1.00  0.00    -0.309 N 
HETATM    4  O   UNL     1       9.173  28.927  54.391  1.00  0.00    -0.247 OA
HETATM    5  H   UNL     1       8.103  27.406  53.059  1.00  0.00     0.165 HD
HETATM    6  H   UNL     1       6.592  28.140  56.052  1.00  0.00     0.170 HD
ENDROOT
BRANCH   1   7
HETATM    7  C   UNL     1       6.299  26.765  53.972  1.00  0.00     0.161 C 
BRANCH   7   8
HETATM    8  C   UNL     1       5.745  26.642  52.586  1.00  0.00     0.056 A 
HETATM    9  N   UNL     1       5.085  27.661  51.938  1.00  0.00    -0.277 N 
HETATM   10  C   UNL     1       4.826  28.998  52.421  1.00  0.00     0.179 C 
HETATM   11  N   UNL     1       4.643  27.317  50.715  1.00  0.00    -0.185 NA
HETATM   12  C   UNL     1       5.049  26.056  50.566  1.00  0.00     0.141 A 
HETATM   13  C   UNL     1       5.732  25.583  51.695  1.00  0.00     0.050 A 
ENDBRANCH   7   8
BRANCH   7  14
HETATM   14  C   UNL     1       6.521  25.373  54.605  1.00  0.00     0.198 C 
BRANCH  14  15
HETATM   15  O   UNL     1       6.489  25.497  56.031  1.00  0.00    -0.394 OA
HETATM   16  C   UNL     1       7.717  25.097  56.624  1.00  0.00     0.201 C 
ENDBRANCH  14  15
ENDBRANCH   7  14
ENDBRANCH   1   7
BRANCH   3  17
HETATM   17  C   UNL     1       7.818  29.514  56.963  1.00  0.00     0.036 A 
HETATM   18  C   UNL     1       9.081  29.557  57.543  1.00  0.00     0.030 A 
HETATM   19  C   UNL     1       9.363  30.464  58.575  1.00  0.00     0.010 A 
HETATM   20  C   UNL     1       8.399  31.370  59.049  1.00  0.00    -0.054 A 
HETATM   21  C   UNL     1       7.122  31.289  58.479  1.00  0.00     0.010 A 
HETATM   22  C   UNL     1       6.839  30.385  57.446  1.00  0.00     0.030 A 
BRANCH  20  23
HETATM   23  C   UNL     1       8.748  32.330  60.189  1.00  0.00     0.018 C 
HETATM   24  C   UNL     1       7.516  32.813  60.993  1.00  0.00     0.009 C 
HETATM   25  C   UNL     1       6.951  31.725  61.905  1.00  0.00     0.001 C 
HETATM   26  C   UNL     1       8.008  31.212  62.876  1.00  0.00     0.000 C 
HETATM   27  C   UNL     1       9.273  30.758  62.152  1.00  0.00     0.001 C 
HETATM   28  C   UNL     1       9.806  31.836  61.204  1.00  0.00     0.009 C 
ENDBRANCH  20  23
ENDBRANCH   3  17
TORSDOF 6
ENDMDL
MODEL 7
REMARK VINA RESULT:      -7.3      3.409      5.818
REMARK  6 active torsions:
REMARK  status: ('A' for Active; 'I' for Inactive)
REMARK    1  A    between atoms: C_6  and  C_7 
REMARK    2  A    between atoms: C_7  and  N_8 
REMARK    3  A    between atoms: C_7  and  C_24 
REMARK       I    between atoms: N_8  and  C_9 
REMARK       I    between atoms: C_9  and  N_10 
REMARK    4  A    between atoms: N_10  and  C_11 
REMARK    5  A    between atoms: C_14  and  C_15 
REMARK    6  A    between atoms: C_24  and  O_25 
ROOT
HETATM    1  N   UNL     1       8.307  29.979  57.870  1.00  0.00    -0.331 N 
HETATM    2  C   UNL     1       8.316  30.992  58.779  1.00  0.00     0.321 C 
HETATM    3  N   UNL     1       7.424  30.889  59.808  1.00  0.00    -0.309 N 
HETATM    4  O   UNL     1       9.124  31.898  58.597  1.00  0.00    -0.247 OA
HETATM    5  H   UNL     1       8.986  30.140  57.139  1.00  0.00     0.165 HD
HETATM    6  H   UNL     1       6.825  30.083  59.805  1.00  0.00     0.170 HD
ENDROOT
BRANCH   1   7
HETATM    7  C   UNL     1       7.457  28.800  57.742  1.00  0.00     0.161 C 
BRANCH   7   8
HETATM    8  C   UNL     1       6.559  28.992  56.558  1.00  0.00     0.056 A 
HETATM    9  N   UNL     1       5.358  29.662  56.616  1.00  0.00    -0.277 N 
HETATM   10  C   UNL     1       4.758  30.308  57.761  1.00  0.00     0.179 C 
HETATM   11  N   UNL     1       4.702  29.682  55.442  1.00  0.00    -0.185 NA
HETATM   12  C   UNL     1       5.511  29.031  54.606  1.00  0.00     0.141 A 
HETATM   13  C   UNL     1       6.675  28.575  55.243  1.00  0.00     0.050 A 
ENDBRANCH   7   8
BRANCH   7  14
HETATM   14  C   UNL     1       8.311  27.521  57.586  1.00  0.00     0.198 C 
BRANCH  14  15
HETATM   15  O   UNL     1       7.577  26.403  58.096  1.00  0.00    -0.394 OA
HETATM   16  C   UNL     1       7.813  25.224  57.338  1.00  0.00     0.201 C 
ENDBRANCH  14  15
ENDBRANCH   7  14
ENDBRANCH   1   7
BRANCH   3  17
HETATM   17  C   UNL     1       7.233  31.787  60.879  1.00  0.00     0.036 A 
HETATM   18  C   UNL     1       6.331  32.844  60.865  1.00  0.00     0.030 A 
HETATM   19  C   UNL     1       6.199  33.685  61.980  1.00  0.00     0.010 A 
HETATM   20  C   UNL     1       6.949  33.486  63.151  1.00  0.00    -0.054 A 
HETATM   21  C   UNL     1       7.880  32.438  63.135  1.00  0.00     0.010 A 
HETATM   22  C   UNL     1       8.011  31.595  62.023  1.00  0.00     0.030 A 
BRANCH  20  23
HETATM   23  C   UNL     1       6.784  34.440  64.337  1.00  0.00     0.018 C 
HETATM   24  C   UNL     1       5.989  35.724  63.995  1.00  0.00     0.009 C 
HETATM   25  C   UNL     1       4.494  35.458  63.830  1.00  0.00     0.001 C 
HETATM   26  C   UNL     1       3.902  34.825  65.084  1.00  0.00     0.000 C 
HETATM   27  C   UNL     1       4.666  33.574  65.506  1.00  0.00     0.001 C 
HETATM   28  C   UNL     1       6.171  33.836  65.622  1.00  0.00     0.009 C 
ENDBRANCH  20  23
ENDBRANCH   3  17
TORSDOF 6
ENDMDL
MODEL 8
REMARK VINA RESULT:      -7.2      2.549      3.005
REMARK  6 active torsions:
REMARK  status: ('A' for Active; 'I' for Inactive)
REMARK    1  A    between atoms: C_6  and  C_7 
REMARK    2  A    between atoms: C_7  and  N_8 
REMARK    3  A    between atoms: C_7  and  C_24 
REMARK       I    between atoms: N_8  and  C_9 
REMARK       I    between atoms: C_9  and  N_10 
REMARK    4  A    between atoms: N_10  and  C_11 
REMARK    5  A    between atoms: C_14  and  C_15 
REMARK    6  A    between atoms: C_24  and  O_25 
ROOT
HETATM    1  N   UNL     1       5.153  27.421  55.072  1.00  0.00    -0.331 N 
HETATM    2  C   UNL     1       5.642  27.983  56.211  1.00  0.00     0.321 C 
HETATM    3  N   UNL     1       6.051  29.282  56.119  1.00  0.00    -0.309 N 
HETATM    4  O   UNL     1       5.665  27.276  57.215  1.00  0.00    -0.247 OA
HETATM    5  H   UNL     1       4.886  26.459  55.225  1.00  0.00     0.165 HD
HETATM    6  H   UNL     1       5.971  29.715  55.216  1.00  0.00     0.170 HD
ENDROOT
BRANCH   1   7
HETATM    7  C   UNL     1       5.039  27.936  53.710  1.00  0.00     0.161 C 
BRANCH   7   8
HETATM    8  C   UNL     1       5.001  26.772  52.769  1.00  0.00     0.056 A 
HETATM    9  N   UNL     1       5.172  26.890  51.408  1.00  0.00    -0.277 N 
HETATM   10  C   UNL     1       5.435  28.090  50.648  1.00  0.00     0.179 C 
HETATM   11  N   UNL     1       5.064  25.720  50.754  1.00  0.00    -0.185 NA
HETATM   12  C   UNL     1       4.843  24.827  51.719  1.00  0.00     0.141 A 
HETATM   13  C   UNL     1       4.788  25.422  52.988  1.00  0.00     0.050 A 
ENDBRANCH   7   8
BRANCH   7  14
HETATM   14  C   UNL     1       3.774  28.811  53.559  1.00  0.00     0.198 C 
BRANCH  14  15
HETATM   15  O   UNL     1       4.136  30.188  53.710  1.00  0.00    -0.394 OA
HETATM   16  C   UNL     1       3.265  30.869  54.603  1.00  0.00     0.201 C 
ENDBRANCH  14  15
ENDBRANCH   7  14
ENDBRANCH   1   7
BRANCH   3  17
HETATM   17  C   UNL     1       6.584  30.095  57.141  1.00  0.00     0.036 A 
HETATM   18  C   UNL     1       5.878  31.099  57.794  1.00  0.00     0.030 A 
HETATM   19  C   UNL     1       6.484  31.855  58.807  1.00  0.00     0.010 A 
HETATM   20  C   UNL     1       7.809  31.621  59.214  1.00  0.00    -0.054 A 
HETATM   21  C   UNL     1       8.517  30.631  58.521  1.00  0.00     0.010 A 
HETATM   22  C   UNL     1       7.912  29.872  57.510  1.00  0.00     0.030 A 
BRANCH  20  23
HETATM   23  C   UNL     1       8.435  32.484  60.313  1.00  0.00     0.018 C 
HETATM   24  C   UNL     1       7.421  32.964  61.379  1.00  0.00     0.009 C 
HETATM   25  C   UNL     1       6.990  31.842  62.322  1.00  0.00     0.001 C 
HETATM   26  C   UNL     1       8.189  31.215  63.023  1.00  0.00     0.000 C 
HETATM   27  C   UNL     1       9.254  30.757  62.030  1.00  0.00     0.001 C 
HETATM   28  C   UNL     1       9.646  31.873  61.058  1.00  0.00     0.009 C 
ENDBRANCH  20  23
ENDBRANCH   3  17
TORSDOF 6
ENDMDL
MODEL 9
REMARK VINA RESULT:      -7.2      3.191      5.758
REMARK  6 active torsions:
REMARK  status: ('A' for Active; 'I' for Inactive)
REMARK    1  A    between atoms: C_6  and  C_7 
REMARK    2  A    between atoms: C_7  and  N_8 
REMARK    3  A    between atoms: C_7  and  C_24 
REMARK       I    between atoms: N_8  and  C_9 
REMARK       I    between atoms: C_9  and  N_10 
REMARK    4  A    between atoms: N_10  and  C_11 
REMARK    5  A    between atoms: C_14  and  C_15 
REMARK    6  A    between atoms: C_24  and  O_25 
ROOT
HETATM    1  N   UNL     1       6.978  30.374  57.573  1.00  0.00    -0.331 N 
HETATM    2  C   UNL     1       6.775  31.332  58.518  1.00  0.00     0.321 C 
HETATM    3  N   UNL     1       7.215  31.042  59.778  1.00  0.00    -0.309 N 
HETATM    4  O   UNL     1       6.224  32.366  58.154  1.00  0.00    -0.247 OA
HETATM    5  H   UNL     1       6.614  30.664  56.676  1.00  0.00     0.165 HD
HETATM    6  H   UNL     1       7.640  30.142  59.909  1.00  0.00     0.170 HD
ENDROOT
BRANCH   1   7
HETATM    7  C   UNL     1       7.534  29.027  57.663  1.00  0.00     0.161 C 
BRANCH   7   8
HETATM    8  C   UNL     1       6.727  28.125  56.781  1.00  0.00     0.056 A 
HETATM    9  N   UNL     1       6.722  26.754  56.897  1.00  0.00    -0.277 N 
HETATM   10  C   UNL     1       7.433  25.944  57.860  1.00  0.00     0.179 C 
HETATM   11  N   UNL     1       5.953  26.143  55.978  1.00  0.00    -0.185 NA
HETATM   12  C   UNL     1       5.435  27.146  55.270  1.00  0.00     0.141 A 
HETATM   13  C   UNL     1       5.883  28.397  55.718  1.00  0.00     0.050 A 
ENDBRANCH   7   8
BRANCH   7  14
HETATM   14  C   UNL     1       9.023  29.019  57.248  1.00  0.00     0.198 C 
BRANCH  14  15
HETATM   15  O   UNL     1       9.781  29.762  58.209  1.00  0.00    -0.394 OA
HETATM   16  C   UNL     1      10.550  30.789  57.598  1.00  0.00     0.201 C 
ENDBRANCH  14  15
ENDBRANCH   7  14
ENDBRANCH   1   7
BRANCH   3  17
HETATM   17  C   UNL     1       7.137  31.854  60.929  1.00  0.00     0.036 A 
HETATM   18  C   UNL     1       8.129  31.937  61.899  1.00  0.00     0.030 A 
HETATM   19  C   UNL     1       7.973  32.779  63.010  1.00  0.00     0.010 A 
HETATM   20  C   UNL     1       6.829  33.579  63.178  1.00  0.00    -0.054 A 
HETATM   21  C   UNL     1       5.824  33.455  62.210  1.00  0.00     0.010 A 
HETATM   22  C   UNL     1       5.980  32.617  61.098  1.00  0.00     0.030 A 
BRANCH  20  23
HETATM   23  C   UNL     1       6.695  34.470  64.415  1.00  0.00     0.018 C 
HETATM   24  C   UNL     1       5.959  35.805  64.143  1.00  0.00     0.009 C 
HETATM   25  C   UNL     1       4.455  35.613  63.954  1.00  0.00     0.001 C 
HETATM   26  C   UNL     1       3.825  34.937  65.165  1.00  0.00     0.000 C 
HETATM   27  C   UNL     1       4.532  33.632  65.520  1.00  0.00     0.001 C 
HETATM   28  C   UNL     1       6.045  33.821  65.661  1.00  0.00     0.009 C 
ENDBRANCH  20  23
ENDBRANCH   3  17
TORSDOF 6
ENDMDL
MODEL 10
REMARK VINA RESULT:      -7.1      5.239      8.534
REMARK  6 active torsions:
REMARK  status: ('A' for Active; 'I' for Inactive)
REMARK    1  A    between atoms: C_6  and  C_7 
REMARK    2  A    between atoms: C_7  and  N_8 
REMARK    3  A    between atoms: C_7  and  C_24 
REMARK       I    between atoms: N_8  and  C_9 
REMARK       I    between atoms: C_9  and  N_10 
REMARK    4  A    between atoms: N_10  and  C_11 
REMARK    5  A    between atoms: C_14  and  C_15 
REMARK    6  A    between atoms: C_24  and  O_25 
ROOT
HETATM    1  N   UNL     1       4.978  28.939  49.531  1.00  0.00    -0.331 N 
HETATM    2  C   UNL     1       5.394  28.514  50.755  1.00  0.00     0.321 C 
HETATM    3  N   UNL     1       4.988  27.266  51.133  1.00  0.00    -0.309 N 
HETATM    4  O   UNL     1       6.097  29.283  51.402  1.00  0.00    -0.247 OA
HETATM    5  H   UNL     1       5.313  29.872  49.336  1.00  0.00     0.165 HD
HETATM    6  H   UNL     1       4.405  26.768  50.484  1.00  0.00     0.170 HD
ENDROOT
BRANCH   1   7
HETATM    7  C   UNL     1       4.100  28.325  48.539  1.00  0.00     0.161 C 
BRANCH   7   8
HETATM    8  C   UNL     1       3.100  29.349  48.097  1.00  0.00     0.056 A 
HETATM    9  N   UNL     1       1.949  29.637  48.794  1.00  0.00    -0.277 N 
HETATM   10  C   UNL     1       1.500  29.063  50.041  1.00  0.00     0.179 C 
HETATM   11  N   UNL     1       1.181  30.565  48.194  1.00  0.00    -0.185 NA
HETATM   12  C   UNL     1       1.867  30.897  47.101  1.00  0.00     0.141 A 
HETATM   13  C   UNL     1       3.062  30.172  46.985  1.00  0.00     0.050 A 
ENDBRANCH   7   8
BRANCH   7  14
HETATM   14  C   UNL     1       4.914  27.793  47.338  1.00  0.00     0.198 C 
BRANCH  14  15
HETATM   15  O   UNL     1       4.964  26.363  47.403  1.00  0.00    -0.394 OA
HETATM   16  C   UNL     1       3.705  25.806  47.757  1.00  0.00     0.201 C 
ENDBRANCH  14  15
ENDBRANCH   7  14
ENDBRANCH   1   7
BRANCH   3  17
HETATM   17  C   UNL     1       5.281  26.589  52.335  1.00  0.00     0.036 A 
HETATM   18  C   UNL     1       5.094  27.126  53.604  1.00  0.00     0.030 A 
HETATM   19  C   UNL     1       5.404  26.378  54.748  1.00  0.00     0.010 A 
HETATM   20  C   UNL     1       5.894  25.063  54.664  1.00  0.00    -0.054 A 
HETATM   21  C   UNL     1       6.111  24.551  53.378  1.00  0.00     0.010 A 
HETATM   22  C   UNL     1       5.798  25.296  52.233  1.00  0.00     0.030 A 
BRANCH  20  23
HETATM   23  C   UNL     1       6.235  24.291  55.941  1.00  0.00     0.018 C 
HETATM   24  C   UNL     1       7.283  23.171  55.728  1.00  0.00     0.009 C 
HETATM   25  C   UNL     1       8.693  23.722  55.527  1.00  0.00     0.001 C 
HETATM   26  C   UNL     1       9.124  24.588  56.705  1.00  0.00     0.000 C 
HETATM   27  C   UNL     1       8.111  25.691  57.001  1.00  0.00     0.001 C 
HETATM   28  C   UNL     1       6.691  25.137  57.153  1.00  0.00     0.009 C 
ENDBRANCH  20  23
ENDBRANCH   3  17
TORSDOF 6
ENDMDL
