MODEL 1
REMARK VINA RESULT:      -9.6      0.000      0.000
REMARK  4 active torsions:
REMARK  status: ('A' for Active; 'I' for Inactive)
REMARK    1  A    between atoms: C_6  and  C_7 
REMARK    2  A    between atoms: C_7  and  N_8 
REMARK       I    between atoms: N_8  and  C_9 
REMARK    3  A    between atoms: C_9  and  C_10 
REMARK    4  A    between atoms: C_14  and  C_15 
ROOT
HETATM    1  N   UNL     1       6.880  26.809  55.794  1.00  0.00    -0.349 N 
HETATM    2  C   UNL     1       7.575  27.946  55.487  1.00  0.00     0.270 C 
HETATM    3  O   UNL     1       7.808  28.274  54.326  1.00  0.00    -0.266 OA
HETATM    4  H   UNL     1       6.718  26.522  56.751  1.00  0.00     0.163 HD
ENDROOT
BRANCH   2   5
HETATM    5  C   UNL     1       8.021  28.726  56.607  1.00  0.00     0.120 A 
HETATM    6  N   UNL     1       9.324  29.117  56.729  1.00  0.00    -0.272 N 
HETATM    7  H   UNL     1      10.081  28.915  56.082  1.00  0.00     0.189 HD
HETATM    8  N   UNL     1       9.586  29.829  57.833  1.00  0.00    -0.174 NA
HETATM    9  C   UNL     1       8.403  29.933  58.459  1.00  0.00     0.089 A 
HETATM   10  C   UNL     1       7.395  29.247  57.722  1.00  0.00     0.071 A 
BRANCH   9  11
HETATM   11  C   UNL     1       8.270  30.667  59.724  1.00  0.00    -0.006 A 
HETATM   12  C   UNL     1       7.190  31.533  59.953  1.00  0.00     0.015 A 
HETATM   13  C   UNL     1       7.078  32.229  61.162  1.00  0.00     0.024 A 
HETATM   14  C   UNL     1       8.044  32.062  62.152  1.00  0.00     0.034 A 
HETATM   15 CL   UNL     1       7.904  32.919  63.637  1.00  0.00    -0.084 Cl
HETATM   16  C   UNL     1       9.122  31.208  61.944  1.00  0.00     0.024 A 
HETATM   17  C   UNL     1       9.235  30.517  60.734  1.00  0.00     0.015 A 
ENDBRANCH   9  11
ENDBRANCH   2   5
BRANCH   1  18
HETATM   18  C   UNL     1       6.394  25.929  54.764  1.00  0.00     0.201 C 
BRANCH  18  19
HETATM   19  C   UNL     1       6.946  24.566  54.997  1.00  0.00     0.123 A 
HETATM   20  N   UNL     1       7.424  24.081  56.129  1.00  0.00    -0.232 NA
HETATM   21  C   UNL     1       7.820  22.797  55.841  1.00  0.00     0.085 A 
HETATM   22  C   UNL     1       7.576  22.490  54.508  1.00  0.00     0.062 A 
HETATM   23  C   UNL     1       8.401  21.828  56.671  1.00  0.00     0.034 A 
HETATM   24  C   UNL     1       7.880  21.252  53.936  1.00  0.00     0.032 A 
HETATM   25  N   UNL     1       7.018  23.632  53.993  1.00  0.00    -0.341 N 
HETATM   26  C   UNL     1       8.460  20.297  54.780  1.00  0.00     0.002 A 
HETATM   27  C   UNL     1       8.718  20.578  56.124  1.00  0.00     0.002 A 
HETATM   28  H   UNL     1       6.717  23.761  53.038  1.00  0.00     0.167 HD
ENDBRANCH  18  19
ENDBRANCH   1  18
TORSDOF 4
ENDMDL
MODEL 2
REMARK VINA RESULT:      -9.5      2.649      4.073
REMARK  4 active torsions:
REMARK  status: ('A' for Active; 'I' for Inactive)
REMARK    1  A    between atoms: C_6  and  C_7 
REMARK    2  A    between atoms: C_7  and  N_8 
REMARK       I    between atoms: N_8  and  C_9 
REMARK    3  A    between atoms: C_9  and  C_10 
REMARK    4  A    between atoms: C_14  and  C_15 
ROOT
HETATM    1  N   UNL     1       7.586  29.833  58.132  1.00  0.00    -0.349 N 
HETATM    2  C   UNL     1       8.505  30.629  58.755  1.00  0.00     0.270 C 
HETATM    3  O   UNL     1       9.512  31.036  58.180  1.00  0.00    -0.266 OA
HETATM    4  H   UNL     1       6.774  29.470  58.617  1.00  0.00     0.163 HD
ENDROOT
BRANCH   2   5
HETATM    5  C   UNL     1       8.223  30.954  60.126  1.00  0.00     0.120 A 
HETATM    6  N   UNL     1       8.790  30.256  61.154  1.00  0.00    -0.272 N 
HETATM    7  H   UNL     1       9.437  29.477  61.074  1.00  0.00     0.189 HD
HETATM    8  N   UNL     1       8.419  30.670  62.373  1.00  0.00    -0.174 NA
HETATM    9  C   UNL     1       7.588  31.700  62.144  1.00  0.00     0.089 A 
HETATM   10  C   UNL     1       7.435  31.905  60.743  1.00  0.00     0.071 A 
BRANCH   9  11
HETATM   11  C   UNL     1       6.971  32.443  63.249  1.00  0.00    -0.006 A 
HETATM   12  C   UNL     1       5.576  32.506  63.394  1.00  0.00     0.015 A 
HETATM   13  C   UNL     1       5.000  33.221  64.450  1.00  0.00     0.024 A 
HETATM   14  C   UNL     1       5.815  33.877  65.370  1.00  0.00     0.034 A 
HETATM   15 CL   UNL     1       5.104  34.756  66.668  1.00  0.00    -0.084 Cl
HETATM   16  C   UNL     1       7.199  33.827  65.244  1.00  0.00     0.024 A 
HETATM   17  C   UNL     1       7.773  33.116  64.185  1.00  0.00     0.015 A 
ENDBRANCH   9  11
ENDBRANCH   2   5
BRANCH   1  18
HETATM   18  C   UNL     1       7.760  29.419  56.764  1.00  0.00     0.201 C 
BRANCH  18  19
HETATM   19  C   UNL     1       7.820  27.932  56.716  1.00  0.00     0.123 A 
HETATM   20  N   UNL     1       8.451  27.131  57.557  1.00  0.00    -0.232 NA
HETATM   21  C   UNL     1       8.223  25.858  57.092  1.00  0.00     0.085 A 
HETATM   22  C   UNL     1       7.436  25.881  55.947  1.00  0.00     0.062 A 
HETATM   23  C   UNL     1       8.660  24.625  57.597  1.00  0.00     0.034 A 
HETATM   24  C   UNL     1       7.047  24.730  55.258  1.00  0.00     0.032 A 
HETATM   25  N   UNL     1       7.192  27.212  55.729  1.00  0.00    -0.341 N 
HETATM   26  C   UNL     1       7.493  23.508  55.776  1.00  0.00     0.002 A 
HETATM   27  C   UNL     1       8.286  23.454  56.925  1.00  0.00     0.002 A 
HETATM   28  H   UNL     1       6.646  27.596  54.971  1.00  0.00     0.167 HD
ENDBRANCH  18  19
ENDBRANCH   1  18
TORSDOF 4
ENDMDL
MODEL 3
REMARK VINA RESULT:      -9.5      3.870      9.432
REMARK  4 active torsions:
REMARK  status: ('A' for Active; 'I' for Inactive)
REMARK    1  A    between atoms: C_6  and  C_7 
REMARK    2  A    between atoms: C_7  and  N_8 
REMARK       I    between atoms: N_8  and  C_9 
REMARK    3  A    between atoms: C_9  and  C_10 
REMARK    4  A    between atoms: C_14  and  C_15 
ROOT
HETATM    1  N   UNL     1       6.224  30.348  56.477  1.00  0.00    -0.349 N 
HETATM    2  C   UNL     1       5.670  29.102  56.580  1.00  0.00     0.270 C 
HETATM    3  O   UNL     1       4.723  28.869  57.327  1.00  0.00    -0.266 OA
HETATM    4  H   UNL     1       7.026  30.531  55.886  1.00  0.00     0.163 HD
ENDROOT
BRANCH   2   5
HETATM    5  C   UNL     1       6.269  28.083  55.764  1.00  0.00     0.120 A 
HETATM    6  N   UNL     1       7.087  28.398  54.717  1.00  0.00    -0.272 N 
HETATM    7  H   UNL     1       7.350  29.331  54.412  1.00  0.00     0.189 HD
HETATM    8  N   UNL     1       7.558  27.339  54.045  1.00  0.00    -0.174 NA
HETATM    9  C   UNL     1       7.050  26.275  54.688  1.00  0.00     0.089 A 
HETATM   10  C   UNL     1       6.228  26.703  55.771  1.00  0.00     0.071 A 
BRANCH   9  11
HETATM   11  C   UNL     1       7.351  24.906  54.256  1.00  0.00    -0.006 A 
HETATM   12  C   UNL     1       7.651  24.614  52.917  1.00  0.00     0.015 A 
HETATM   13  C   UNL     1       7.933  23.303  52.518  1.00  0.00     0.024 A 
HETATM   14  C   UNL     1       7.919  22.273  53.456  1.00  0.00     0.034 A 
HETATM   15 CL   UNL     1       8.266  20.662  52.963  1.00  0.00    -0.084 Cl
HETATM   16  C   UNL     1       7.624  22.541  54.788  1.00  0.00     0.024 A 
HETATM   17  C   UNL     1       7.339  23.851  55.185  1.00  0.00     0.015 A 
ENDBRANCH   9  11
ENDBRANCH   2   5
BRANCH   1  18
HETATM   18  C   UNL     1       5.728  31.453  57.255  1.00  0.00     0.201 C 
BRANCH  18  19
HETATM   19  C   UNL     1       6.582  31.610  58.464  1.00  0.00     0.123 A 
HETATM   20  N   UNL     1       7.901  31.656  58.510  1.00  0.00    -0.232 NA
HETATM   21  C   UNL     1       8.218  31.797  59.840  1.00  0.00     0.085 A 
HETATM   22  C   UNL     1       7.070  31.842  60.622  1.00  0.00     0.062 A 
HETATM   23  C   UNL     1       9.473  31.893  60.460  1.00  0.00     0.034 A 
HETATM   24  C   UNL     1       7.092  31.980  62.012  1.00  0.00     0.032 A 
HETATM   25  N   UNL     1       6.042  31.722  59.723  1.00  0.00    -0.341 N 
HETATM   26  C   UNL     1       8.352  32.074  62.613  1.00  0.00     0.002 A 
HETATM   27  C   UNL     1       9.524  32.031  61.853  1.00  0.00     0.002 A 
HETATM   28  H   UNL     1       5.058  31.715  59.950  1.00  0.00     0.167 HD
ENDBRANCH  18  19
ENDBRANCH   1  18
TORSDOF 4
ENDMDL
MODEL 4
REMARK VINA RESULT:      -9.4      3.816      9.664
REMARK  4 active torsions:
REMARK  status: ('A' for Active; 'I' for Inactive)
REMARK    1  A    between atoms: C_6  and  C_7 
REMARK    2  A    between atoms: C_7  and  N_8 
REMARK       I    between atoms: N_8  and  C_9 
REMARK    3  A    between atoms: C_9  and  C_10 
REMARK    4  A    between atoms: C_14  and  C_15 
ROOT
HETATM    1  N   UNL     1       6.723  29.657  57.229  1.00  0.00    -0.349 N 
HETATM    2  C   UNL     1       5.881  28.638  56.881  1.00  0.00     0.270 C 
HETATM    3  O   UNL     1       4.663  28.789  56.827  1.00  0.00    -0.266 OA
HETATM    4  H   UNL     1       7.724  29.523  57.307  1.00  0.00     0.163 HD
ENDROOT
BRANCH   2   5
HETATM    5  C   UNL     1       6.510  27.380  56.590  1.00  0.00     0.120 A 
HETATM    6  N   UNL     1       7.473  26.860  57.407  1.00  0.00    -0.272 N 
HETATM    7  H   UNL     1       7.833  27.275  58.261  1.00  0.00     0.189 HD
HETATM    8  N   UNL     1       7.971  25.686  56.995  1.00  0.00    -0.174 NA
HETATM    9  C   UNL     1       7.294  25.405  55.869  1.00  0.00     0.089 A 
HETATM   10  C   UNL     1       6.371  26.450  55.579  1.00  0.00     0.071 A 
BRANCH   9  11
HETATM   11  C   UNL     1       7.547  24.173  55.113  1.00  0.00    -0.006 A 
HETATM   12  C   UNL     1       7.635  22.929  55.757  1.00  0.00     0.015 A 
HETATM   13  C   UNL     1       7.880  21.763  55.023  1.00  0.00     0.024 A 
HETATM   14  C   UNL     1       8.039  21.831  53.641  1.00  0.00     0.034 A 
HETATM   15 CL   UNL     1       8.340  20.396  52.742  1.00  0.00    -0.084 Cl
HETATM   16  C   UNL     1       7.956  23.055  52.985  1.00  0.00     0.024 A 
HETATM   17  C   UNL     1       7.715  24.220  53.719  1.00  0.00     0.015 A 
ENDBRANCH   9  11
ENDBRANCH   2   5
BRANCH   1  18
HETATM   18  C   UNL     1       6.219  30.964  57.563  1.00  0.00     0.201 C 
BRANCH  18  19
HETATM   19  C   UNL     1       6.670  31.315  58.937  1.00  0.00     0.123 A 
HETATM   20  N   UNL     1       7.808  30.976  59.516  1.00  0.00    -0.232 NA
HETATM   21  C   UNL     1       7.758  31.523  60.775  1.00  0.00     0.085 A 
HETATM   22  C   UNL     1       6.567  32.212  60.970  1.00  0.00     0.062 A 
HETATM   23  C   UNL     1       8.697  31.471  61.816  1.00  0.00     0.034 A 
HETATM   24  C   UNL     1       6.245  32.869  62.160  1.00  0.00     0.032 A 
HETATM   25  N   UNL     1       5.893  32.066  59.785  1.00  0.00    -0.341 N 
HETATM   26  C   UNL     1       7.193  32.806  63.188  1.00  0.00     0.002 A 
HETATM   27  C   UNL     1       8.398  32.119  63.022  1.00  0.00     0.002 A 
HETATM   28  H   UNL     1       4.980  32.445  59.576  1.00  0.00     0.167 HD
ENDBRANCH  18  19
ENDBRANCH   1  18
TORSDOF 4
ENDMDL
MODEL 5
REMARK VINA RESULT:      -9.2      6.951     10.319
REMARK  4 active torsions:
REMARK  status: ('A' for Active; 'I' for Inactive)
REMARK    1  A    between atoms: C_6  and  C_7 
REMARK    2  A    between atoms: C_7  and  N_8 
REMARK       I    between atoms: N_8  and  C_9 
REMARK    3  A    between atoms: C_9  and  C_10 
REMARK    4  A    between atoms: C_14  and  C_15 
ROOT
HETATM    1  N   UNL     1       5.620  27.628  49.534  1.00  0.00    -0.349 N 
HETATM    2  C   UNL     1       5.523  27.799  50.886  1.00  0.00     0.270 C 
HETATM    3  O   UNL     1       5.320  28.900  51.392  1.00  0.00    -0.266 OA
HETATM    4  H   UNL     1       5.822  26.726  49.119  1.00  0.00     0.163 HD
ENDROOT
BRANCH   2   5
HETATM    5  C   UNL     1       5.680  26.611  51.678  1.00  0.00     0.120 A 
HETATM    6  N   UNL     1       4.600  25.912  52.136  1.00  0.00    -0.272 N 
HETATM    7  H   UNL     1       3.622  26.135  51.979  1.00  0.00     0.189 HD
HETATM    8  N   UNL     1       4.910  24.834  52.870  1.00  0.00    -0.174 NA
HETATM    9  C   UNL     1       6.253  24.805  52.881  1.00  0.00     0.089 A 
HETATM   10  C   UNL     1       6.774  25.910  52.148  1.00  0.00     0.071 A 
BRANCH   9  11
HETATM   11  C   UNL     1       6.988  23.747  53.584  1.00  0.00    -0.006 A 
HETATM   12  C   UNL     1       7.686  22.755  52.879  1.00  0.00     0.015 A 
HETATM   13  C   UNL     1       8.380  21.749  53.561  1.00  0.00     0.024 A 
HETATM   14  C   UNL     1       8.382  21.729  54.954  1.00  0.00     0.034 A 
HETATM   15 CL   UNL     1       9.235  20.491  55.791  1.00  0.00    -0.084 Cl
HETATM   16  C   UNL     1       7.695  22.703  55.671  1.00  0.00     0.024 A 
HETATM   17  C   UNL     1       6.999  23.705  54.988  1.00  0.00     0.015 A 
ENDBRANCH   9  11
ENDBRANCH   2   5
BRANCH   1  18
HETATM   18  C   UNL     1       5.501  28.742  48.629  1.00  0.00     0.201 C 
BRANCH  18  19
HETATM   19  C   UNL     1       4.155  28.701  47.994  1.00  0.00     0.123 A 
HETATM   20  N   UNL     1       3.456  29.725  47.536  1.00  0.00    -0.232 NA
HETATM   21  C   UNL     1       2.286  29.186  47.057  1.00  0.00     0.085 A 
HETATM   22  C   UNL     1       2.270  27.807  47.223  1.00  0.00     0.062 A 
HETATM   23  C   UNL     1       1.182  29.817  46.465  1.00  0.00     0.034 A 
HETATM   24  C   UNL     1       1.202  26.997  46.828  1.00  0.00     0.032 A 
HETATM   25  N   UNL     1       3.471  27.523  47.820  1.00  0.00    -0.341 N 
HETATM   26  C   UNL     1       0.109  27.644  46.239  1.00  0.00     0.002 A 
HETATM   27  C   UNL     1       0.096  29.029  46.060  1.00  0.00     0.002 A 
HETATM   28  H   UNL     1       3.794  26.603  48.087  1.00  0.00     0.167 HD
ENDBRANCH  18  19
ENDBRANCH   1  18
TORSDOF 4
ENDMDL
MODEL 6
REMARK VINA RESULT:      -9.0      1.459      1.595
REMARK  4 active torsions:
REMARK  status: ('A' for Active; 'I' for Inactive)
REMARK    1  A    between atoms: C_6  and  C_7 
REMARK    2  A    between atoms: C_7  and  N_8 
REMARK       I    between atoms: N_8  and  C_9 
REMARK    3  A    between atoms: C_9  and  C_10 
REMARK    4  A    between atoms: C_14  and  C_15 
ROOT
HETATM    1  N   UNL     1       6.226  27.115  54.163  1.00  0.00    -0.349 N 
HETATM    2  C   UNL     1       7.217  28.037  54.358  1.00  0.00     0.270 C 
HETATM    3  O   UNL     1       8.185  28.123  53.607  1.00  0.00    -0.266 OA
HETATM    4  H   UNL     1       5.446  27.022  54.802  1.00  0.00     0.163 HD
ENDROOT
BRANCH   2   5
HETATM    5  C   UNL     1       7.056  28.892  55.501  1.00  0.00     0.120 A 
HETATM    6  N   UNL     1       6.033  29.793  55.578  1.00  0.00    -0.272 N 
HETATM    7  H   UNL     1       5.311  29.952  54.882  1.00  0.00     0.189 HD
HETATM    8  N   UNL     1       6.026  30.527  56.700  1.00  0.00    -0.174 NA
HETATM    9  C   UNL     1       7.076  30.078  57.406  1.00  0.00     0.089 A 
HETATM   10  C   UNL     1       7.753  29.054  56.682  1.00  0.00     0.071 A 
BRANCH   9  11
HETATM   11  C   UNL     1       7.402  30.632  58.725  1.00  0.00    -0.006 A 
HETATM   12  C   UNL     1       6.634  31.660  59.293  1.00  0.00     0.015 A 
HETATM   13  C   UNL     1       6.958  32.182  60.551  1.00  0.00     0.024 A 
HETATM   14  C   UNL     1       8.053  31.679  61.250  1.00  0.00     0.034 A 
HETATM   15 CL   UNL     1       8.450  32.322  62.796  1.00  0.00    -0.084 Cl
HETATM   16  C   UNL     1       8.827  30.660  60.704  1.00  0.00     0.024 A 
HETATM   17  C   UNL     1       8.504  30.142  59.446  1.00  0.00     0.015 A 
ENDBRANCH   9  11
ENDBRANCH   2   5
BRANCH   1  18
HETATM   18  C   UNL     1       6.277  26.184  53.065  1.00  0.00     0.201 C 
BRANCH  18  19
HETATM   19  C   UNL     1       6.724  24.861  53.579  1.00  0.00     0.123 A 
HETATM   20  N   UNL     1       6.781  24.470  54.840  1.00  0.00    -0.232 NA
HETATM   21  C   UNL     1       7.263  23.184  54.805  1.00  0.00     0.085 A 
HETATM   22  C   UNL     1       7.502  22.779  53.498  1.00  0.00     0.062 A 
HETATM   23  C   UNL     1       7.527  22.294  55.857  1.00  0.00     0.034 A 
HETATM   24  C   UNL     1       7.996  21.515  53.163  1.00  0.00     0.032 A 
HETATM   25  N   UNL     1       7.150  23.863  52.737  1.00  0.00    -0.341 N 
HETATM   26  C   UNL     1       8.254  20.641  54.225  1.00  0.00     0.002 A 
HETATM   27  C   UNL     1       8.024  21.021  55.550  1.00  0.00     0.002 A 
HETATM   28  H   UNL     1       7.199  23.916  51.729  1.00  0.00     0.167 HD
ENDBRANCH  18  19
ENDBRANCH   1  18
TORSDOF 4
ENDMDL
MODEL 7
REMARK VINA RESULT:      -8.8      6.010      8.722
REMARK  4 active torsions:
REMARK  status: ('A' for Active; 'I' for Inactive)
REMARK    1  A    between atoms: C_6  and  C_7 
REMARK    2  A    between atoms: C_7  and  N_8 
REMARK       I    between atoms: N_8  and  C_9 
REMARK    3  A    between atoms: C_9  and  C_10 
REMARK    4  A    between atoms: C_14  and  C_15 
ROOT
HETATM    1  N   UNL     1       6.255  26.398  54.188  1.00  0.00    -0.349 N 
HETATM    2  C   UNL     1       6.667  27.491  53.477  1.00  0.00     0.270 C 
HETATM    3  O   UNL     1       7.678  28.121  53.777  1.00  0.00    -0.266 OA
HETATM    4  H   UNL     1       5.404  25.900  53.960  1.00  0.00     0.163 HD
ENDROOT
BRANCH   2   5
HETATM    5  C   UNL     1       5.840  27.858  52.361  1.00  0.00     0.120 A 
HETATM    6  N   UNL     1       5.825  29.134  51.876  1.00  0.00    -0.272 N 
HETATM    7  H   UNL     1       6.364  29.922  52.223  1.00  0.00     0.189 HD
HETATM    8  N   UNL     1       4.993  29.322  50.842  1.00  0.00    -0.174 NA
HETATM    9  C   UNL     1       4.450  28.114  50.618  1.00  0.00     0.089 A 
HETATM   10  C   UNL     1       4.953  27.168  51.558  1.00  0.00     0.071 A 
BRANCH   9  11
HETATM   11  C   UNL     1       3.480  27.901  49.538  1.00  0.00    -0.006 A 
HETATM   12  C   UNL     1       3.678  26.907  48.567  1.00  0.00     0.015 A 
HETATM   13  C   UNL     1       2.747  26.717  47.541  1.00  0.00     0.024 A 
HETATM   14  C   UNL     1       1.609  27.519  47.477  1.00  0.00     0.034 A 
HETATM   15 CL   UNL     1       0.466  27.283  46.213  1.00  0.00    -0.084 Cl
HETATM   16  C   UNL     1       1.395  28.510  48.429  1.00  0.00     0.024 A 
HETATM   17  C   UNL     1       2.329  28.701  49.453  1.00  0.00     0.015 A 
ENDBRANCH   9  11
ENDBRANCH   2   5
BRANCH   1  18
HETATM   18  C   UNL     1       6.986  25.937  55.340  1.00  0.00     0.201 C 
BRANCH  18  19
HETATM   19  C   UNL     1       7.325  24.500  55.149  1.00  0.00     0.123 A 
HETATM   20  N   UNL     1       7.554  23.601  56.090  1.00  0.00    -0.232 NA
HETATM   21  C   UNL     1       7.833  22.433  55.422  1.00  0.00     0.085 A 
HETATM   22  C   UNL     1       7.771  22.621  54.047  1.00  0.00     0.062 A 
HETATM   23  C   UNL     1       8.153  21.164  55.926  1.00  0.00     0.034 A 
HETATM   24  C   UNL     1       8.011  21.603  53.121  1.00  0.00     0.032 A 
HETATM   25  N   UNL     1       7.445  23.944  53.899  1.00  0.00    -0.341 N 
HETATM   26  C   UNL     1       8.329  20.343  53.642  1.00  0.00     0.002 A 
HETATM   27  C   UNL     1       8.400  20.125  55.020  1.00  0.00     0.002 A 
HETATM   28  H   UNL     1       7.318  24.425  53.020  1.00  0.00     0.167 HD
ENDBRANCH  18  19
ENDBRANCH   1  18
TORSDOF 4
ENDMDL
MODEL 8
REMARK VINA RESULT:      -8.8      3.766      9.222
REMARK  4 active torsions:
REMARK  status: ('A' for Active; 'I' for Inactive)
REMARK    1  A    between atoms: C_6  and  C_7 
REMARK    2  A    between atoms: C_7  and  N_8 
REMARK       I    between atoms: N_8  and  C_9 
REMARK    3  A    between atoms: C_9  and  C_10 
REMARK    4  A    between atoms: C_14  and  C_15 
ROOT
HETATM    1  N   UNL     1       5.604  29.224  55.623  1.00  0.00    -0.349 N 
HETATM    2  C   UNL     1       4.796  28.591  54.720  1.00  0.00     0.270 C 
HETATM    3  O   UNL     1       3.813  29.140  54.228  1.00  0.00    -0.266 OA
HETATM    4  H   UNL     1       6.394  28.759  56.055  1.00  0.00     0.163 HD
ENDROOT
BRANCH   2   5
HETATM    5  C   UNL     1       5.165  27.243  54.390  1.00  0.00     0.120 A 
HETATM    6  N   UNL     1       4.530  26.553  53.397  1.00  0.00    -0.272 N 
HETATM    7  H   UNL     1       3.771  26.892  52.813  1.00  0.00     0.189 HD
HETATM    8  N   UNL     1       4.979  25.303  53.217  1.00  0.00    -0.174 NA
HETATM    9  C   UNL     1       5.970  25.166  54.114  1.00  0.00     0.089 A 
HETATM   10  C   UNL     1       6.113  26.362  54.874  1.00  0.00     0.071 A 
BRANCH   9  11
HETATM   11  C   UNL     1       6.734  23.918  54.221  1.00  0.00    -0.006 A 
HETATM   12  C   UNL     1       7.017  23.344  55.470  1.00  0.00     0.015 A 
HETATM   13  C   UNL     1       7.751  22.155  55.558  1.00  0.00     0.024 A 
HETATM   14  C   UNL     1       8.206  21.531  54.398  1.00  0.00     0.034 A 
HETATM   15 CL   UNL     1       9.107  20.070  54.510  1.00  0.00    -0.084 Cl
HETATM   16  C   UNL     1       7.936  22.085  53.151  1.00  0.00     0.024 A 
HETATM   17  C   UNL     1       7.206  23.275  53.065  1.00  0.00     0.015 A 
ENDBRANCH   9  11
ENDBRANCH   2   5
BRANCH   1  18
HETATM   18  C   UNL     1       5.333  30.571  56.054  1.00  0.00     0.201 C 
BRANCH  18  19
HETATM   19  C   UNL     1       6.138  30.856  57.273  1.00  0.00     0.123 A 
HETATM   20  N   UNL     1       5.894  31.768  58.197  1.00  0.00    -0.232 NA
HETATM   21  C   UNL     1       6.917  31.653  59.106  1.00  0.00     0.085 A 
HETATM   22  C   UNL     1       7.803  30.650  58.733  1.00  0.00     0.062 A 
HETATM   23  C   UNL     1       7.160  32.378  60.283  1.00  0.00     0.034 A 
HETATM   24  C   UNL     1       8.940  30.313  59.473  1.00  0.00     0.032 A 
HETATM   25  N   UNL     1       7.285  30.157  57.564  1.00  0.00    -0.341 N 
HETATM   26  C   UNL     1       9.166  31.047  60.643  1.00  0.00     0.002 A 
HETATM   27  C   UNL     1       8.294  32.062  61.043  1.00  0.00     0.002 A 
HETATM   28  H   UNL     1       7.681  29.410  57.012  1.00  0.00     0.167 HD
ENDBRANCH  18  19
ENDBRANCH   1  18
TORSDOF 4
ENDMDL
MODEL 9
REMARK VINA RESULT:      -8.8      1.455      2.372
REMARK  4 active torsions:
REMARK  status: ('A' for Active; 'I' for Inactive)
REMARK    1  A    between atoms: C_6  and  C_7 
REMARK    2  A    between atoms: C_7  and  N_8 
REMARK       I    between atoms: N_8  and  C_9 
REMARK    3  A    between atoms: C_9  and  C_10 
REMARK    4  A    between atoms: C_14  and  C_15 
ROOT
HETATM    1  N   UNL     1       7.157  28.849  56.533  1.00  0.00    -0.349 N 
HETATM    2  C   UNL     1       8.279  29.600  56.742  1.00  0.00     0.270 C 
HETATM    3  O   UNL     1       9.145  29.732  55.880  1.00  0.00    -0.266 OA
HETATM    4  H   UNL     1       6.460  28.712  57.256  1.00  0.00     0.163 HD
ENDROOT
BRANCH   2   5
HETATM    5  C   UNL     1       8.385  30.217  58.035  1.00  0.00     0.120 A 
HETATM    6  N   UNL     1       9.553  30.191  58.743  1.00  0.00    -0.272 N 
HETATM    7  H   UNL     1      10.427  29.761  58.455  1.00  0.00     0.189 HD
HETATM    8  N   UNL     1       9.490  30.799  59.935  1.00  0.00    -0.174 NA
HETATM    9  C   UNL     1       8.233  31.267  60.012  1.00  0.00     0.089 A 
HETATM   10  C   UNL     1       7.506  30.916  58.838  1.00  0.00     0.071 A 
BRANCH   9  11
HETATM   11  C   UNL     1       7.768  32.018  61.184  1.00  0.00    -0.006 A 
HETATM   12  C   UNL     1       8.451  31.952  62.408  1.00  0.00     0.015 A 
HETATM   13  C   UNL     1       7.994  32.671  63.519  1.00  0.00     0.024 A 
HETATM   14  C   UNL     1       6.852  33.462  63.413  1.00  0.00     0.034 A 
HETATM   15 CL   UNL     1       6.293  34.345  64.780  1.00  0.00    -0.084 Cl
HETATM   16  C   UNL     1       6.162  33.541  62.208  1.00  0.00     0.024 A 
HETATM   17  C   UNL     1       6.617  32.819  61.100  1.00  0.00     0.015 A 
ENDBRANCH   9  11
ENDBRANCH   2   5
BRANCH   1  18
HETATM   18  C   UNL     1       6.938  28.161  55.287  1.00  0.00     0.201 C 
BRANCH  18  19
HETATM   19  C   UNL     1       7.229  26.714  55.480  1.00  0.00     0.123 A 
HETATM   20  N   UNL     1       7.816  26.149  56.520  1.00  0.00    -0.232 NA
HETATM   21  C   UNL     1       7.867  24.807  56.228  1.00  0.00     0.085 A 
HETATM   22  C   UNL     1       7.298  24.546  54.988  1.00  0.00     0.062 A 
HETATM   23  C   UNL     1       8.391  23.743  56.979  1.00  0.00     0.034 A 
HETATM   24  C   UNL     1       7.213  23.266  54.435  1.00  0.00     0.032 A 
HETATM   25  N   UNL     1       6.898  25.776  54.533  1.00  0.00    -0.341 N 
HETATM   26  C   UNL     1       7.740  22.217  55.198  1.00  0.00     0.002 A 
HETATM   27  C   UNL     1       8.320  22.449  56.447  1.00  0.00     0.002 A 
HETATM   28  H   UNL     1       6.441  25.958  53.650  1.00  0.00     0.167 HD
ENDBRANCH  18  19
ENDBRANCH   1  18
TORSDOF 4
ENDMDL
MODEL 10
REMARK VINA RESULT:      -8.7      6.620      9.550
REMARK  4 active torsions:
REMARK  status: ('A' for Active; 'I' for Inactive)
REMARK    1  A    between atoms: C_6  and  C_7 
REMARK    2  A    between atoms: C_7  and  N_8 
REMARK       I    between atoms: N_8  and  C_9 
REMARK    3  A    between atoms: C_9  and  C_10 
REMARK    4  A    between atoms: C_14  and  C_15 
ROOT
HETATM    1  N   UNL     1       5.655  26.043  53.049  1.00  0.00    -0.349 N 
HETATM    2  C   UNL     1       5.731  27.207  52.335  1.00  0.00     0.270 C 
HETATM    3  O   UNL     1       6.368  28.177  52.737  1.00  0.00    -0.266 OA
HETATM    4  H   UNL     1       5.102  25.255  52.733  1.00  0.00     0.163 HD
ENDROOT
BRANCH   2   5
HETATM    5  C   UNL     1       5.012  27.224  51.092  1.00  0.00     0.120 A 
HETATM    6  N   UNL     1       5.337  26.379  50.070  1.00  0.00    -0.272 N 
HETATM    7  H   UNL     1       6.076  25.682  50.070  1.00  0.00     0.189 HD
HETATM    8  N   UNL     1       4.583  26.525  48.971  1.00  0.00    -0.174 NA
HETATM    9  C   UNL     1       3.708  27.494  49.286  1.00  0.00     0.089 A 
HETATM   10  C   UNL     1       3.950  27.963  50.609  1.00  0.00     0.071 A 
BRANCH   9  11
HETATM   11  C   UNL     1       2.687  27.940  48.331  1.00  0.00    -0.006 A 
HETATM   12  C   UNL     1       1.642  27.092  47.934  1.00  0.00     0.015 A 
HETATM   13  C   UNL     1       0.676  27.530  47.019  1.00  0.00     0.024 A 
HETATM   14  C   UNL     1       0.749  28.820  46.497  1.00  0.00     0.034 A 
HETATM   15 CL   UNL     1      -0.439  29.355  45.373  1.00  0.00    -0.084 Cl
HETATM   16  C   UNL     1       1.777  29.675  46.878  1.00  0.00     0.024 A 
HETATM   17  C   UNL     1       2.743  29.235  47.789  1.00  0.00     0.015 A 
ENDBRANCH   9  11
ENDBRANCH   2   5
BRANCH   1  18
HETATM   18  C   UNL     1       6.315  25.902  54.321  1.00  0.00     0.201 C 
BRANCH  18  19
HETATM   19  C   UNL     1       6.821  24.507  54.446  1.00  0.00     0.123 A 
HETATM   20  N   UNL     1       7.010  23.823  55.560  1.00  0.00    -0.232 NA
HETATM   21  C   UNL     1       7.494  22.600  55.163  1.00  0.00     0.085 A 
HETATM   22  C   UNL     1       7.601  22.534  53.779  1.00  0.00     0.062 A 
HETATM   23  C   UNL     1       7.870  21.488  55.932  1.00  0.00     0.034 A 
HETATM   24  C   UNL     1       8.067  21.407  53.097  1.00  0.00     0.032 A 
HETATM   25  N   UNL     1       7.165  23.759  53.347  1.00  0.00    -0.341 N 
HETATM   26  C   UNL     1       8.437  20.308  53.880  1.00  0.00     0.002 A 
HETATM   27  C   UNL     1       8.342  20.346  55.273  1.00  0.00     0.002 A 
HETATM   28  H   UNL     1       7.110  24.060  52.383  1.00  0.00     0.167 HD
ENDBRANCH  18  19
ENDBRANCH   1  18
TORSDOF 4
ENDMDL
