MODEL 1
REMARK VINA RESULT:     -10.2      0.000      0.000
REMARK  2 active torsions:
REMARK  status: ('A' for Active; 'I' for Inactive)
REMARK    1  A    between atoms: O_2  and  C_3 
REMARK    2  A    between atoms: C_5  and  N_6 
REMARK       I    between atoms: N_6  and  C_7 
REMARK       I    between atoms: C_7  and  N_8 
ROOT
HETATM    1  N   UNL     1       7.673  28.496  57.964  1.00  0.00    -0.307 N 
HETATM    2  C   UNL     1       6.972  28.275  56.802  1.00  0.00     0.323 C 
HETATM    3  N   UNL     1       6.560  26.960  56.615  1.00  0.00    -0.328 N 
HETATM    4  C   UNL     1       7.056  25.796  57.371  1.00  0.00     0.185 C 
HETATM    5  C   UNL     1       7.349  24.691  56.414  1.00  0.00     0.035 A 
HETATM    6  C   UNL     1       7.052  24.659  55.065  1.00  0.00    -0.020 A 
HETATM    7  C   UNL     1       6.371  25.809  54.402  1.00  0.00     0.061 C 
HETATM    8  C   UNL     1       5.666  26.663  55.475  1.00  0.00     0.132 C 
HETATM    9  N   UNL     1       7.968  23.515  56.738  1.00  0.00    -0.357 N 
HETATM   10  H   UNL     1       8.302  23.253  57.654  1.00  0.00     0.166 HD
HETATM   11  C   UNL     1       8.083  22.723  55.615  1.00  0.00     0.043 A 
HETATM   12  C   UNL     1       7.516  23.423  54.546  1.00  0.00    -0.001 A 
HETATM   13  C   UNL     1       8.648  21.450  55.467  1.00  0.00     0.030 A 
HETATM   14  C   UNL     1       8.634  20.879  54.191  1.00  0.00     0.002 A 
HETATM   15  C   UNL     1       8.078  21.555  53.107  1.00  0.00     0.001 A 
HETATM   16  C   UNL     1       7.516  22.826  53.270  1.00  0.00     0.014 A 
HETATM   17  O   UNL     1       6.703  29.153  55.986  1.00  0.00    -0.247 OA
HETATM   18  H   UNL     1       7.545  27.821  58.703  1.00  0.00     0.170 HD
ENDROOT
BRANCH   1  19
HETATM   19  C   UNL     1       8.364  29.666  58.367  1.00  0.00     0.060 A 
HETATM   20  C   UNL     1       7.849  30.582  59.293  1.00  0.00     0.068 A 
HETATM   21  C   UNL     1       8.575  31.724  59.647  1.00  0.00     0.070 A 
HETATM   22  C   UNL     1       9.814  31.968  59.052  1.00  0.00     0.038 A 
HETATM   23  C   UNL     1      10.338  31.076  58.119  1.00  0.00     0.029 A 
HETATM   24  C   UNL     1       9.616  29.931  57.781  1.00  0.00     0.061 A 
HETATM   25 CL   UNL     1      10.301  28.849  56.613  1.00  0.00    -0.082 Cl
BRANCH  21  26
HETATM   26  O   UNL     1       8.181  32.678  60.546  1.00  0.00    -0.356 OA
HETATM   27  C   UNL     1       6.960  32.441  61.239  1.00  0.00     0.210 C 
ENDBRANCH  21  26
ENDBRANCH   1  19
TORSDOF 2
ENDMDL
MODEL 2
REMARK VINA RESULT:     -10.0      1.873      2.521
REMARK  2 active torsions:
REMARK  status: ('A' for Active; 'I' for Inactive)
REMARK    1  A    between atoms: O_2  and  C_3 
REMARK    2  A    between atoms: C_5  and  N_6 
REMARK       I    between atoms: N_6  and  C_7 
REMARK       I    between atoms: C_7  and  N_8 
ROOT
HETATM    1  N   UNL     1       6.705  27.676  56.903  1.00  0.00    -0.307 N 
HETATM    2  C   UNL     1       6.399  27.353  55.602  1.00  0.00     0.323 C 
HETATM    3  N   UNL     1       6.070  26.017  55.398  1.00  0.00    -0.328 N 
HETATM    4  C   UNL     1       6.314  24.924  56.357  1.00  0.00     0.185 C 
HETATM    5  C   UNL     1       6.892  23.762  55.624  1.00  0.00     0.035 A 
HETATM    6  C   UNL     1       7.026  23.626  54.256  1.00  0.00    -0.020 A 
HETATM    7  C   UNL     1       6.578  24.706  53.330  1.00  0.00     0.061 C 
HETATM    8  C   UNL     1       5.573  25.615  54.065  1.00  0.00     0.132 C 
HETATM    9  N   UNL     1       7.385  22.630  56.212  1.00  0.00    -0.357 N 
HETATM   10  H   UNL     1       7.422  22.444  57.204  1.00  0.00     0.166 HD
HETATM   11  C   UNL     1       7.845  21.763  55.243  1.00  0.00     0.043 A 
HETATM   12  C   UNL     1       7.633  22.369  54.001  1.00  0.00    -0.001 A 
HETATM   13  C   UNL     1       8.433  20.498  55.374  1.00  0.00     0.030 A 
HETATM   14  C   UNL     1       8.816  19.838  54.203  1.00  0.00     0.002 A 
HETATM   15  C   UNL     1       8.620  20.419  52.953  1.00  0.00     0.001 A 
HETATM   16  C   UNL     1       8.030  21.682  52.837  1.00  0.00     0.014 A 
HETATM   17  O   UNL     1       6.391  28.163  54.678  1.00  0.00    -0.247 OA
HETATM   18  H   UNL     1       6.358  27.052  57.616  1.00  0.00     0.170 HD
ENDROOT
BRANCH   1  19
HETATM   19  C   UNL     1       7.234  28.890  57.408  1.00  0.00     0.060 A 
HETATM   20  C   UNL     1       8.605  29.123  57.570  1.00  0.00     0.068 A 
HETATM   21  C   UNL     1       9.068  30.340  58.081  1.00  0.00     0.070 A 
HETATM   22  C   UNL     1       8.152  31.325  58.457  1.00  0.00     0.038 A 
HETATM   23  C   UNL     1       6.784  31.108  58.316  1.00  0.00     0.029 A 
HETATM   24  C   UNL     1       6.328  29.898  57.793  1.00  0.00     0.061 A 
HETATM   25 CL   UNL     1       4.618  29.667  57.637  1.00  0.00    -0.082 Cl
BRANCH  21  26
HETATM   26  O   UNL     1      10.379  30.684  58.270  1.00  0.00    -0.356 OA
HETATM   27  C   UNL     1      11.333  30.078  57.404  1.00  0.00     0.210 C 
ENDBRANCH  21  26
ENDBRANCH   1  19
TORSDOF 2
ENDMDL
MODEL 3
REMARK VINA RESULT:      -9.9      2.659      8.385
REMARK  2 active torsions:
REMARK  status: ('A' for Active; 'I' for Inactive)
REMARK    1  A    between atoms: O_2  and  C_3 
REMARK    2  A    between atoms: C_5  and  N_6 
REMARK       I    between atoms: N_6  and  C_7 
REMARK       I    between atoms: C_7  and  N_8 
ROOT
HETATM    1  N   UNL     1       7.510  25.826  54.713  1.00  0.00    -0.307 N 
HETATM    2  C   UNL     1       6.454  26.540  55.228  1.00  0.00     0.323 C 
HETATM    3  N   UNL     1       6.723  27.885  55.462  1.00  0.00    -0.328 N 
HETATM    4  C   UNL     1       8.066  28.493  55.489  1.00  0.00     0.185 C 
HETATM    5  C   UNL     1       8.163  29.392  56.674  1.00  0.00     0.035 A 
HETATM    6  C   UNL     1       7.138  29.759  57.524  1.00  0.00    -0.020 A 
HETATM    7  C   UNL     1       5.751  29.249  57.320  1.00  0.00     0.061 C 
HETATM    8  C   UNL     1       5.603  28.762  55.864  1.00  0.00     0.132 C 
HETATM    9  N   UNL     1       9.308  30.003  57.104  1.00  0.00    -0.357 N 
HETATM   10  H   UNL     1      10.221  29.920  56.679  1.00  0.00     0.166 HD
HETATM   11  C   UNL     1       9.041  30.758  58.228  1.00  0.00     0.043 A 
HETATM   12  C   UNL     1       7.680  30.618  58.515  1.00  0.00    -0.001 A 
HETATM   13  C   UNL     1       9.899  31.543  59.007  1.00  0.00     0.030 A 
HETATM   14  C   UNL     1       9.350  32.201  60.112  1.00  0.00     0.002 A 
HETATM   15  C   UNL     1       7.998  32.078  60.424  1.00  0.00     0.001 A 
HETATM   16  C   UNL     1       7.152  31.290  59.635  1.00  0.00     0.014 A 
HETATM   17  O   UNL     1       5.347  26.059  55.457  1.00  0.00    -0.247 OA
HETATM   18  H   UNL     1       8.232  26.358  54.251  1.00  0.00     0.170 HD
ENDROOT
BRANCH   1  19
HETATM   19  C   UNL     1       7.616  24.426  54.521  1.00  0.00     0.060 A 
HETATM   20  C   UNL     1       7.657  23.507  55.578  1.00  0.00     0.068 A 
HETATM   21  C   UNL     1       7.769  22.135  55.327  1.00  0.00     0.070 A 
HETATM   22  C   UNL     1       7.868  21.678  54.012  1.00  0.00     0.038 A 
HETATM   23  C   UNL     1       7.842  22.577  52.948  1.00  0.00     0.029 A 
HETATM   24  C   UNL     1       7.715  23.942  53.203  1.00  0.00     0.061 A 
HETATM   25 CL   UNL     1       7.690  25.027  51.851  1.00  0.00    -0.082 Cl
BRANCH  21  26
HETATM   26  O   UNL     1       7.805  21.147  56.274  1.00  0.00    -0.356 OA
HETATM   27  C   UNL     1       8.996  20.370  56.344  1.00  0.00     0.210 C 
ENDBRANCH  21  26
ENDBRANCH   1  19
TORSDOF 2
ENDMDL
MODEL 4
REMARK VINA RESULT:      -9.7      5.088      8.037
REMARK  2 active torsions:
REMARK  status: ('A' for Active; 'I' for Inactive)
REMARK    1  A    between atoms: O_2  and  C_3 
REMARK    2  A    between atoms: C_5  and  N_6 
REMARK       I    between atoms: N_6  and  C_7 
REMARK       I    between atoms: C_7  and  N_8 
ROOT
HETATM    1  N   UNL     1       5.773  26.866  50.682  1.00  0.00    -0.307 N 
HETATM    2  C   UNL     1       5.772  26.928  52.056  1.00  0.00     0.323 C 
HETATM    3  N   UNL     1       6.795  26.211  52.669  1.00  0.00    -0.328 N 
HETATM    4  C   UNL     1       7.640  25.200  52.009  1.00  0.00     0.185 C 
HETATM    5  C   UNL     1       7.751  24.011  52.901  1.00  0.00     0.035 A 
HETATM    6  C   UNL     1       7.303  23.905  54.203  1.00  0.00    -0.020 A 
HETATM    7  C   UNL     1       6.618  25.047  54.875  1.00  0.00     0.061 C 
HETATM    8  C   UNL     1       6.967  26.351  54.130  1.00  0.00     0.132 C 
HETATM    9  N   UNL     1       8.328  22.820  52.555  1.00  0.00    -0.357 N 
HETATM   10  H   UNL     1       8.744  22.600  51.660  1.00  0.00     0.166 HD
HETATM   11  C   UNL     1       8.255  21.940  53.614  1.00  0.00     0.043 A 
HETATM   12  C   UNL     1       7.610  22.598  54.664  1.00  0.00    -0.001 A 
HETATM   13  C   UNL     1       8.704  20.617  53.715  1.00  0.00     0.030 A 
HETATM   14  C   UNL     1       8.486  19.950  54.924  1.00  0.00     0.002 A 
HETATM   15  C   UNL     1       7.843  20.580  55.987  1.00  0.00     0.001 A 
HETATM   16  C   UNL     1       7.400  21.902  55.871  1.00  0.00     0.014 A 
HETATM   17  O   UNL     1       4.957  27.571  52.713  1.00  0.00    -0.247 OA
HETATM   18  H   UNL     1       6.645  26.616  50.242  1.00  0.00     0.170 HD
ENDROOT
BRANCH   1  19
HETATM   19  C   UNL     1       4.788  27.337  49.779  1.00  0.00     0.060 A 
HETATM   20  C   UNL     1       3.851  26.501  49.158  1.00  0.00     0.068 A 
HETATM   21  C   UNL     1       2.906  27.024  48.269  1.00  0.00     0.070 A 
HETATM   22  C   UNL     1       2.912  28.389  47.977  1.00  0.00     0.038 A 
HETATM   23  C   UNL     1       3.843  29.235  48.574  1.00  0.00     0.029 A 
HETATM   24  C   UNL     1       4.774  28.711  49.471  1.00  0.00     0.061 A 
HETATM   25 CL   UNL     1       5.918  29.798  50.189  1.00  0.00    -0.082 Cl
BRANCH  21  26
HETATM   26  O   UNL     1       1.938  26.309  47.616  1.00  0.00    -0.356 OA
HETATM   27  C   UNL     1       0.958  27.058  46.905  1.00  0.00     0.210 C 
ENDBRANCH  21  26
ENDBRANCH   1  19
TORSDOF 2
ENDMDL
MODEL 5
REMARK VINA RESULT:      -9.0      2.123      2.735
REMARK  2 active torsions:
REMARK  status: ('A' for Active; 'I' for Inactive)
REMARK    1  A    between atoms: O_2  and  C_3 
REMARK    2  A    between atoms: C_5  and  N_6 
REMARK       I    between atoms: N_6  and  C_7 
REMARK       I    between atoms: C_7  and  N_8 
ROOT
HETATM    1  N   UNL     1       5.583  29.269  57.538  1.00  0.00    -0.307 N 
HETATM    2  C   UNL     1       5.392  29.111  56.186  1.00  0.00     0.323 C 
HETATM    3  N   UNL     1       5.120  27.807  55.786  1.00  0.00    -0.328 N 
HETATM    4  C   UNL     1       5.317  26.603  56.615  1.00  0.00     0.185 C 
HETATM    5  C   UNL     1       5.986  25.557  55.791  1.00  0.00     0.035 A 
HETATM    6  C   UNL     1       6.234  25.602  54.433  1.00  0.00    -0.020 A 
HETATM    7  C   UNL     1       5.832  26.784  53.618  1.00  0.00     0.061 C 
HETATM    8  C   UNL     1       4.744  27.572  54.376  1.00  0.00     0.132 C 
HETATM    9  N   UNL     1       6.464  24.368  56.268  1.00  0.00    -0.357 N 
HETATM   10  H   UNL     1       6.425  24.055  57.229  1.00  0.00     0.166 HD
HETATM   11  C   UNL     1       7.025  23.642  55.239  1.00  0.00     0.043 A 
HETATM   12  C   UNL     1       6.896  24.400  54.071  1.00  0.00    -0.001 A 
HETATM   13  C   UNL     1       7.637  22.383  55.257  1.00  0.00     0.030 A 
HETATM   14  C   UNL     1       8.133  21.886  54.047  1.00  0.00     0.002 A 
HETATM   15  C   UNL     1       8.021  22.621  52.869  1.00  0.00     0.001 A 
HETATM   16  C   UNL     1       7.405  23.877  52.866  1.00  0.00     0.014 A 
HETATM   17  O   UNL     1       5.435  30.033  55.375  1.00  0.00    -0.247 OA
HETATM   18  H   UNL     1       5.198  28.552  58.134  1.00  0.00     0.170 HD
ENDROOT
BRANCH   1  19
HETATM   19  C   UNL     1       6.033  30.417  58.236  1.00  0.00     0.060 A 
HETATM   20  C   UNL     1       7.387  30.733  58.402  1.00  0.00     0.068 A 
HETATM   21  C   UNL     1       7.772  31.878  59.108  1.00  0.00     0.070 A 
HETATM   22  C   UNL     1       6.797  32.700  59.676  1.00  0.00     0.038 A 
HETATM   23  C   UNL     1       5.446  32.396  59.533  1.00  0.00     0.029 A 
HETATM   24  C   UNL     1       5.067  31.261  58.816  1.00  0.00     0.061 A 
HETATM   25 CL   UNL     1       3.375  30.917  58.665  1.00  0.00    -0.082 Cl
BRANCH  21  26
HETATM   26  O   UNL     1       9.059  32.294  59.322  1.00  0.00    -0.356 OA
HETATM   27  C   UNL     1      10.078  31.629  58.584  1.00  0.00     0.210 C 
ENDBRANCH  21  26
ENDBRANCH   1  19
TORSDOF 2
ENDMDL
MODEL 6
REMARK VINA RESULT:      -8.8      4.459      6.223
REMARK  2 active torsions:
REMARK  status: ('A' for Active; 'I' for Inactive)
REMARK    1  A    between atoms: O_2  and  C_3 
REMARK    2  A    between atoms: C_5  and  N_6 
REMARK       I    between atoms: N_6  and  C_7 
REMARK       I    between atoms: C_7  and  N_8 
ROOT
HETATM    1  N   UNL     1       5.752  27.882  52.367  1.00  0.00    -0.307 N 
HETATM    2  C   UNL     1       5.879  27.572  53.700  1.00  0.00     0.323 C 
HETATM    3  N   UNL     1       6.926  26.705  53.997  1.00  0.00    -0.328 N 
HETATM    4  C   UNL     1       7.670  25.900  53.012  1.00  0.00     0.185 C 
HETATM    5  C   UNL     1       7.818  24.513  53.538  1.00  0.00     0.035 A 
HETATM    6  C   UNL     1       7.486  24.065  54.802  1.00  0.00    -0.020 A 
HETATM    7  C   UNL     1       6.908  24.991  55.818  1.00  0.00     0.061 C 
HETATM    8  C   UNL     1       7.235  26.444  55.419  1.00  0.00     0.132 C 
HETATM    9  N   UNL     1       8.317  23.454  52.832  1.00  0.00    -0.357 N 
HETATM   10  H   UNL     1       8.641  23.478  51.875  1.00  0.00     0.166 HD
HETATM   11  C   UNL     1       8.307  22.321  53.619  1.00  0.00     0.043 A 
HETATM   12  C   UNL     1       7.785  22.679  54.865  1.00  0.00    -0.001 A 
HETATM   13  C   UNL     1       8.715  21.015  53.319  1.00  0.00     0.030 A 
HETATM   14  C   UNL     1       8.583  20.049  54.321  1.00  0.00     0.002 A 
HETATM   15  C   UNL     1       8.063  20.377  55.571  1.00  0.00     0.001 A 
HETATM   16  C   UNL     1       7.661  21.686  55.857  1.00  0.00     0.014 A 
HETATM   17  O   UNL     1       5.151  28.023  54.581  1.00  0.00    -0.247 OA
HETATM   18  H   UNL     1       6.572  27.751  51.793  1.00  0.00     0.170 HD
ENDROOT
BRANCH   1  19
HETATM   19  C   UNL     1       4.707  28.591  51.723  1.00  0.00     0.060 A 
HETATM   20  C   UNL     1       4.201  29.809  52.194  1.00  0.00     0.068 A 
HETATM   21  C   UNL     1       3.162  30.460  51.519  1.00  0.00     0.070 A 
HETATM   22  C   UNL     1       2.607  29.876  50.379  1.00  0.00     0.038 A 
HETATM   23  C   UNL     1       3.087  28.659  49.902  1.00  0.00     0.029 A 
HETATM   24  C   UNL     1       4.133  28.022  50.570  1.00  0.00     0.061 A 
HETATM   25 CL   UNL     1       4.699  26.507  49.946  1.00  0.00    -0.082 Cl
BRANCH  21  26
HETATM   26  O   UNL     1       2.599  31.654  51.876  1.00  0.00    -0.356 OA
HETATM   27  C   UNL     1       2.824  32.096  53.211  1.00  0.00     0.210 C 
ENDBRANCH  21  26
ENDBRANCH   1  19
TORSDOF 2
ENDMDL
MODEL 7
REMARK VINA RESULT:      -8.7      3.420      4.331
REMARK  2 active torsions:
REMARK  status: ('A' for Active; 'I' for Inactive)
REMARK    1  A    between atoms: O_2  and  C_3 
REMARK    2  A    between atoms: C_5  and  N_6 
REMARK       I    between atoms: N_6  and  C_7 
REMARK       I    between atoms: C_7  and  N_8 
ROOT
HETATM    1  N   UNL     1       5.937  28.859  55.207  1.00  0.00    -0.307 N 
HETATM    2  C   UNL     1       6.315  28.064  56.263  1.00  0.00     0.323 C 
HETATM    3  N   UNL     1       7.262  27.095  55.949  1.00  0.00    -0.328 N 
HETATM    4  C   UNL     1       7.636  26.680  54.585  1.00  0.00     0.185 C 
HETATM    5  C   UNL     1       7.692  25.191  54.535  1.00  0.00     0.035 A 
HETATM    6  C   UNL     1       7.593  24.319  55.602  1.00  0.00    -0.020 A 
HETATM    7  C   UNL     1       7.403  24.826  56.992  1.00  0.00     0.061 C 
HETATM    8  C   UNL     1       7.843  26.302  57.054  1.00  0.00     0.132 C 
HETATM    9  N   UNL     1       7.856  24.449  53.398  1.00  0.00    -0.357 N 
HETATM   10  H   UNL     1       7.955  24.814  52.460  1.00  0.00     0.166 HD
HETATM   11  C   UNL     1       7.858  23.106  53.712  1.00  0.00     0.043 A 
HETATM   12  C   UNL     1       7.690  22.997  55.095  1.00  0.00    -0.001 A 
HETATM   13  C   UNL     1       7.989  21.989  52.878  1.00  0.00     0.030 A 
HETATM   14  C   UNL     1       7.946  20.726  53.475  1.00  0.00     0.002 A 
HETATM   15  C   UNL     1       7.777  20.587  54.851  1.00  0.00     0.001 A 
HETATM   16  C   UNL     1       7.649  21.713  55.672  1.00  0.00     0.014 A 
HETATM   17  O   UNL     1       5.880  28.190  57.405  1.00  0.00    -0.247 OA
HETATM   18  H   UNL     1       6.576  28.909  54.428  1.00  0.00     0.170 HD
ENDROOT
BRANCH   1  19
HETATM   19  C   UNL     1       4.890  29.813  55.153  1.00  0.00     0.060 A 
HETATM   20  C   UNL     1       4.536  30.627  56.236  1.00  0.00     0.068 A 
HETATM   21  C   UNL     1       3.487  31.547  56.126  1.00  0.00     0.070 A 
HETATM   22  C   UNL     1       2.768  31.636  54.932  1.00  0.00     0.038 A 
HETATM   23  C   UNL     1       3.096  30.825  53.847  1.00  0.00     0.029 A 
HETATM   24  C   UNL     1       4.152  29.921  53.958  1.00  0.00     0.061 A 
HETATM   25 CL   UNL     1       4.526  28.929  52.587  1.00  0.00    -0.082 Cl
BRANCH  21  26
HETATM   26  O   UNL     1       3.062  32.400  57.107  1.00  0.00    -0.356 OA
HETATM   27  C   UNL     1       3.080  33.790  56.801  1.00  0.00     0.210 C 
ENDBRANCH  21  26
ENDBRANCH   1  19
TORSDOF 2
ENDMDL
MODEL 8
REMARK VINA RESULT:      -8.4      3.177      5.496
REMARK  2 active torsions:
REMARK  status: ('A' for Active; 'I' for Inactive)
REMARK    1  A    between atoms: O_2  and  C_3 
REMARK    2  A    between atoms: C_5  and  N_6 
REMARK       I    between atoms: N_6  and  C_7 
REMARK       I    between atoms: C_7  and  N_8 
ROOT
HETATM    1  N   UNL     1       5.515  32.179  59.773  1.00  0.00    -0.307 N 
HETATM    2  C   UNL     1       6.800  31.798  59.470  1.00  0.00     0.323 C 
HETATM    3  N   UNL     1       6.912  30.965  58.361  1.00  0.00    -0.328 N 
HETATM    4  C   UNL     1       5.794  30.254  57.715  1.00  0.00     0.185 C 
HETATM    5  C   UNL     1       6.209  28.847  57.449  1.00  0.00     0.035 A 
HETATM    6  C   UNL     1       7.473  28.311  57.603  1.00  0.00    -0.020 A 
HETATM    7  C   UNL     1       8.608  29.148  58.087  1.00  0.00     0.061 C 
HETATM    8  C   UNL     1       8.266  30.635  57.868  1.00  0.00     0.132 C 
HETATM    9  N   UNL     1       5.382  27.855  57.001  1.00  0.00    -0.357 N 
HETATM   10  H   UNL     1       4.396  27.950  56.799  1.00  0.00     0.166 HD
HETATM   11  C   UNL     1       6.090  26.679  56.869  1.00  0.00     0.043 A 
HETATM   12  C   UNL     1       7.411  26.939  57.246  1.00  0.00    -0.001 A 
HETATM   13  C   UNL     1       5.660  25.413  56.451  1.00  0.00     0.030 A 
HETATM   14  C   UNL     1       6.607  24.385  56.421  1.00  0.00     0.002 A 
HETATM   15  C   UNL     1       7.929  24.615  56.793  1.00  0.00     0.001 A 
HETATM   16  C   UNL     1       8.345  25.885  57.207  1.00  0.00     0.014 A 
HETATM   17  O   UNL     1       7.790  32.162  60.099  1.00  0.00    -0.247 OA
HETATM   18  H   UNL     1       4.839  32.120  59.027  1.00  0.00     0.170 HD
ENDROOT
BRANCH   1  19
HETATM   19  C   UNL     1       5.049  32.875  60.917  1.00  0.00     0.060 A 
HETATM   20  C   UNL     1       5.179  32.382  62.221  1.00  0.00     0.068 A 
HETATM   21  C   UNL     1       4.693  33.112  63.312  1.00  0.00     0.070 A 
HETATM   22  C   UNL     1       4.049  34.332  63.096  1.00  0.00     0.038 A 
HETATM   23  C   UNL     1       3.899  34.833  61.805  1.00  0.00     0.029 A 
HETATM   24  C   UNL     1       4.398  34.109  60.723  1.00  0.00     0.061 A 
HETATM   25 CL   UNL     1       4.187  34.766  59.133  1.00  0.00    -0.082 Cl
BRANCH  21  26
HETATM   26  O   UNL     1       4.773  32.739  64.626  1.00  0.00    -0.356 OA
HETATM   27  C   UNL     1       4.923  33.784  65.581  1.00  0.00     0.210 C 
ENDBRANCH  21  26
ENDBRANCH   1  19
TORSDOF 2
ENDMDL
MODEL 9
REMARK VINA RESULT:      -8.4      7.066      9.835
REMARK  2 active torsions:
REMARK  status: ('A' for Active; 'I' for Inactive)
REMARK    1  A    between atoms: O_2  and  C_3 
REMARK    2  A    between atoms: C_5  and  N_6 
REMARK       I    between atoms: N_6  and  C_7 
REMARK       I    between atoms: C_7  and  N_8 
ROOT
HETATM    1  N   UNL     1       3.206  28.322  49.082  1.00  0.00    -0.307 N 
HETATM    2  C   UNL     1       3.160  28.536  50.439  1.00  0.00     0.323 C 
HETATM    3  N   UNL     1       4.342  28.244  51.113  1.00  0.00    -0.328 N 
HETATM    4  C   UNL     1       5.470  27.474  50.558  1.00  0.00     0.185 C 
HETATM    5  C   UNL     1       5.924  26.486  51.578  1.00  0.00     0.035 A 
HETATM    6  C   UNL     1       5.506  26.396  52.891  1.00  0.00    -0.020 A 
HETATM    7  C   UNL     1       4.490  27.340  53.440  1.00  0.00     0.061 C 
HETATM    8  C   UNL     1       4.434  28.595  52.546  1.00  0.00     0.132 C 
HETATM    9  N   UNL     1       6.847  25.500  51.360  1.00  0.00    -0.357 N 
HETATM   10  H   UNL     1       7.327  25.319  50.490  1.00  0.00     0.166 HD
HETATM   11  C   UNL     1       7.027  24.766  52.514  1.00  0.00     0.043 A 
HETATM   12  C   UNL     1       6.191  25.309  53.493  1.00  0.00    -0.001 A 
HETATM   13  C   UNL     1       7.860  23.667  52.758  1.00  0.00     0.030 A 
HETATM   14  C   UNL     1       7.834  23.106  54.038  1.00  0.00     0.002 A 
HETATM   15  C   UNL     1       7.008  23.625  55.033  1.00  0.00     0.001 A 
HETATM   16  C   UNL     1       6.183  24.724  54.775  1.00  0.00     0.014 A 
HETATM   17  O   UNL     1       2.174  28.967  51.032  1.00  0.00    -0.247 OA
HETATM   18  H   UNL     1       4.122  28.305  48.659  1.00  0.00     0.170 HD
ENDROOT
BRANCH   1  19
HETATM   19  C   UNL     1       2.141  28.361  48.148  1.00  0.00     0.060 A 
HETATM   20  C   UNL     1       1.404  29.520  47.872  1.00  0.00     0.068 A 
HETATM   21  C   UNL     1       0.358  29.497  46.943  1.00  0.00     0.070 A 
HETATM   22  C   UNL     1       0.027  28.300  46.304  1.00  0.00     0.038 A 
HETATM   23  C   UNL     1       0.740  27.134  46.574  1.00  0.00     0.029 A 
HETATM   24  C   UNL     1       1.792  27.167  47.489  1.00  0.00     0.061 A 
HETATM   25 CL   UNL     1       2.650  25.693  47.800  1.00  0.00    -0.082 Cl
BRANCH  21  26
HETATM   26  O   UNL     1      -0.420  30.564  46.584  1.00  0.00    -0.356 OA
HETATM   27  C   UNL     1      -1.068  30.489  45.319  1.00  0.00     0.210 C 
ENDBRANCH  21  26
ENDBRANCH   1  19
TORSDOF 2
ENDMDL
MODEL 10
REMARK VINA RESULT:      -8.3      2.962      4.567
REMARK  2 active torsions:
REMARK  status: ('A' for Active; 'I' for Inactive)
REMARK    1  A    between atoms: O_2  and  C_3 
REMARK    2  A    between atoms: C_5  and  N_6 
REMARK       I    between atoms: N_6  and  C_7 
REMARK       I    between atoms: C_7  and  N_8 
ROOT
HETATM    1  N   UNL     1       7.101  31.331  59.187  1.00  0.00    -0.307 N 
HETATM    2  C   UNL     1       8.031  30.340  58.979  1.00  0.00     0.323 C 
HETATM    3  N   UNL     1       8.061  29.836  57.682  1.00  0.00    -0.328 N 
HETATM    4  C   UNL     1       7.022  30.055  56.659  1.00  0.00     0.185 C 
HETATM    5  C   UNL     1       6.727  28.756  55.990  1.00  0.00     0.035 A 
HETATM    6  C   UNL     1       7.410  27.566  56.147  1.00  0.00    -0.020 A 
HETATM    7  C   UNL     1       8.581  27.469  57.066  1.00  0.00     0.061 C 
HETATM    8  C   UNL     1       9.134  28.884  57.327  1.00  0.00     0.132 C 
HETATM    9  N   UNL     1       5.711  28.545  55.099  1.00  0.00    -0.357 N 
HETATM   10  H   UNL     1       5.041  29.235  54.788  1.00  0.00     0.166 HD
HETATM   11  C   UNL     1       5.722  27.232  54.680  1.00  0.00     0.043 A 
HETATM   12  C   UNL     1       6.782  26.592  55.329  1.00  0.00    -0.001 A 
HETATM   13  C   UNL     1       4.875  26.567  53.785  1.00  0.00     0.030 A 
HETATM   14  C   UNL     1       5.117  25.210  53.549  1.00  0.00     0.002 A 
HETATM   15  C   UNL     1       6.164  24.546  54.184  1.00  0.00     0.001 A 
HETATM   16  C   UNL     1       7.004  25.224  55.075  1.00  0.00     0.014 A 
HETATM   17  O   UNL     1       8.797  29.926  59.845  1.00  0.00    -0.247 OA
HETATM   18  H   UNL     1       6.777  31.825  58.369  1.00  0.00     0.170 HD
ENDROOT
BRANCH   1  19
HETATM   19  C   UNL     1       6.707  31.926  60.411  1.00  0.00     0.060 A 
HETATM   20  C   UNL     1       7.562  32.053  61.513  1.00  0.00     0.068 A 
HETATM   21  C   UNL     1       7.115  32.644  62.700  1.00  0.00     0.070 A 
HETATM   22  C   UNL     1       5.795  33.088  62.797  1.00  0.00     0.038 A 
HETATM   23  C   UNL     1       4.925  32.960  61.716  1.00  0.00     0.029 A 
HETATM   24  C   UNL     1       5.381  32.383  60.530  1.00  0.00     0.061 A 
HETATM   25 CL   UNL     1       4.266  32.239  59.211  1.00  0.00    -0.082 Cl
BRANCH  21  26
HETATM   26  O   UNL     1       7.860  32.832  63.833  1.00  0.00    -0.356 OA
HETATM   27  C   UNL     1       7.237  33.538  64.900  1.00  0.00     0.210 C 
ENDBRANCH  21  26
ENDBRANCH   1  19
TORSDOF 2
ENDMDL
