MODEL 1
REMARK VINA RESULT:      -9.9      0.000      0.000
REMARK  5 active torsions:
REMARK  status: ('A' for Active; 'I' for Inactive)
REMARK    1  A    between atoms: C_2  and  C_3 
REMARK    2  A    between atoms: C_5  and  C_6 
REMARK    3  A    between atoms: C_6  and  C_7 
REMARK       I    between atoms: C_7  and  N_8 
REMARK    4  A    between atoms: N_8  and  C_9 
REMARK    5  A    between atoms: C_16  and  C_17 
REMARK       I    between atoms: C_17  and  N_18 
ROOT
HETATM    1  C   UNL     1       8.531  28.667  56.955  1.00  0.00     0.035 A 
HETATM    2  C   UNL     1       7.846  29.484  57.870  1.00  0.00     0.046 A 
HETATM    3  C   UNL     1       8.507  30.581  58.459  1.00  0.00     0.030 A 
HETATM    4  C   UNL     1       9.833  30.819  58.126  1.00  0.00     0.063 A 
HETATM    5  N   UNL     1      10.201  31.913  58.860  1.00  0.00    -0.277 N 
HETATM    6  H   UNL     1      11.109  32.361  58.878  1.00  0.00     0.189 HD
HETATM    7  N   UNL     1       9.221  32.420  59.629  1.00  0.00    -0.168 NA
HETATM    8  C   UNL     1       8.167  31.608  59.387  1.00  0.00     0.156 A 
HETATM    9  C   UNL     1      10.541  30.031  57.217  1.00  0.00     0.034 A 
HETATM   10  C   UNL     1       9.860  28.953  56.634  1.00  0.00     0.032 A 
ENDROOT
BRANCH   1  11
HETATM   11  N   UNL     1       7.830  27.553  56.453  1.00  0.00    -0.327 N 
HETATM   12  C   UNL     1       7.833  26.261  56.955  1.00  0.00     0.226 C 
HETATM   13  O   UNL     1       8.609  25.804  57.788  1.00  0.00    -0.273 OA
HETATM   14  H   UNL     1       7.198  27.739  55.683  1.00  0.00     0.169 HD
BRANCH  12  15
HETATM   15  C   UNL     1       6.720  25.403  56.366  1.00  0.00     0.141 C 
BRANCH  15  16
HETATM   16  C   UNL     1       7.171  24.633  55.144  1.00  0.00    -0.049 A 
HETATM   17  C   UNL     1       7.390  23.248  55.217  1.00  0.00     0.014 A 
HETATM   18  C   UNL     1       7.775  22.515  54.087  1.00  0.00    -0.058 A 
HETATM   19  C   UNL     1       7.960  23.187  52.873  1.00  0.00     0.007 A 
HETATM   20  C   UNL     1       7.772  24.567  52.796  1.00  0.00     0.001 A 
HETATM   21  C   UNL     1       7.382  25.289  53.925  1.00  0.00     0.007 A 
BRANCH  18  22
HETATM   22  C   UNL     1       7.946  21.019  54.172  1.00  0.00     0.034 C 
HETATM   23  C   UNL     1       8.372  20.422  52.839  1.00  0.00     0.010 C 
ENDBRANCH  18  22
ENDBRANCH  15  16
ENDBRANCH  12  15
ENDBRANCH   1  11
BRANCH   8  24
HETATM   24  C   UNL     1       6.867  31.825  60.035  1.00  0.00     0.270 C 
HETATM   25  N   UNL     1       6.782  31.320  61.302  1.00  0.00    -0.365 N 
HETATM   26  H   UNL     1       7.594  30.860  61.696  1.00  0.00     0.159 HD
HETATM   27  H   UNL     1       5.934  31.439  61.835  1.00  0.00     0.159 HD
HETATM   28  O   UNL     1       5.921  32.410  59.514  1.00  0.00    -0.266 OA
ENDBRANCH   8  24
TORSDOF 5
ENDMDL
MODEL 2
REMARK VINA RESULT:      -9.3      1.302      1.442
REMARK  5 active torsions:
REMARK  status: ('A' for Active; 'I' for Inactive)
REMARK    1  A    between atoms: C_2  and  C_3 
REMARK    2  A    between atoms: C_5  and  C_6 
REMARK    3  A    between atoms: C_6  and  C_7 
REMARK       I    between atoms: C_7  and  N_8 
REMARK    4  A    between atoms: N_8  and  C_9 
REMARK    5  A    between atoms: C_16  and  C_17 
REMARK       I    between atoms: C_17  and  N_18 
ROOT
HETATM    1  C   UNL     1       7.815  28.385  57.160  1.00  0.00     0.035 A 
HETATM    2  C   UNL     1       7.311  29.388  58.005  1.00  0.00     0.046 A 
HETATM    3  C   UNL     1       8.154  30.438  58.424  1.00  0.00     0.030 A 
HETATM    4  C   UNL     1       9.474  30.446  57.997  1.00  0.00     0.063 A 
HETATM    5  N   UNL     1      10.035  31.551  58.576  1.00  0.00    -0.277 N 
HETATM    6  H   UNL     1      10.995  31.864  58.493  1.00  0.00     0.189 HD
HETATM    7  N   UNL     1       9.187  32.275  59.328  1.00  0.00    -0.168 NA
HETATM    8  C   UNL     1       8.019  31.600  59.239  1.00  0.00     0.156 A 
HETATM    9  C   UNL     1      10.006  29.469  57.154  1.00  0.00     0.034 A 
HETATM   10  C   UNL     1       9.147  28.441  56.740  1.00  0.00     0.032 A 
ENDROOT
BRANCH   1  11
HETATM   11  N   UNL     1       6.937  27.334  56.831  1.00  0.00    -0.327 N 
HETATM   12  C   UNL     1       6.428  27.023  55.580  1.00  0.00     0.226 C 
HETATM   13  O   UNL     1       6.474  27.729  54.578  1.00  0.00    -0.273 OA
HETATM   14  H   UNL     1       6.713  26.694  57.584  1.00  0.00     0.169 HD
BRANCH  12  15
HETATM   15  C   UNL     1       5.779  25.645  55.540  1.00  0.00     0.141 C 
BRANCH  15  16
HETATM   16  C   UNL     1       6.683  24.598  54.928  1.00  0.00    -0.049 A 
HETATM   17  C   UNL     1       7.333  23.656  55.741  1.00  0.00     0.014 A 
HETATM   18  C   UNL     1       8.148  22.660  55.188  1.00  0.00    -0.058 A 
HETATM   19  C   UNL     1       8.325  22.624  53.800  1.00  0.00     0.007 A 
HETATM   20  C   UNL     1       7.708  23.572  52.985  1.00  0.00     0.001 A 
HETATM   21  C   UNL     1       6.892  24.557  53.543  1.00  0.00     0.007 A 
BRANCH  18  22
HETATM   22  C   UNL     1       8.787  21.620  56.073  1.00  0.00     0.034 C 
HETATM   23  C   UNL     1       7.993  20.321  56.084  1.00  0.00     0.010 C 
ENDBRANCH  18  22
ENDBRANCH  15  16
ENDBRANCH  12  15
ENDBRANCH   1  11
BRANCH   8  24
HETATM   24  C   UNL     1       6.807  32.071  59.922  1.00  0.00     0.270 C 
HETATM   25  N   UNL     1       6.678  31.621  61.206  1.00  0.00    -0.365 N 
HETATM   26  H   UNL     1       7.404  31.026  61.587  1.00  0.00     0.159 HD
HETATM   27  H   UNL     1       5.888  31.908  61.763  1.00  0.00     0.159 HD
HETATM   28  O   UNL     1       5.968  32.809  59.415  1.00  0.00    -0.266 OA
ENDBRANCH   8  24
TORSDOF 5
ENDMDL
MODEL 3
REMARK VINA RESULT:      -9.3      4.353      9.169
REMARK  5 active torsions:
REMARK  status: ('A' for Active; 'I' for Inactive)
REMARK    1  A    between atoms: C_2  and  C_3 
REMARK    2  A    between atoms: C_5  and  C_6 
REMARK    3  A    between atoms: C_6  and  C_7 
REMARK       I    between atoms: C_7  and  N_8 
REMARK    4  A    between atoms: N_8  and  C_9 
REMARK    5  A    between atoms: C_16  and  C_17 
REMARK       I    between atoms: C_17  and  N_18 
ROOT
HETATM    1  C   UNL     1       9.206  30.048  58.414  1.00  0.00     0.035 A 
HETATM    2  C   UNL     1       7.858  29.747  58.154  1.00  0.00     0.046 A 
HETATM    3  C   UNL     1       7.471  29.327  56.865  1.00  0.00     0.030 A 
HETATM    4  C   UNL     1       8.439  29.234  55.875  1.00  0.00     0.063 A 
HETATM    5  N   UNL     1       7.770  28.833  54.751  1.00  0.00    -0.277 N 
HETATM    6  H   UNL     1       8.161  28.674  53.830  1.00  0.00     0.189 HD
HETATM    7  N   UNL     1       6.451  28.639  54.930  1.00  0.00    -0.168 NA
HETATM    8  C   UNL     1       6.254  28.937  56.233  1.00  0.00     0.156 A 
HETATM    9  C   UNL     1       9.786  29.519  56.100  1.00  0.00     0.034 A 
HETATM   10  C   UNL     1      10.150  29.923  57.392  1.00  0.00     0.032 A 
ENDROOT
BRANCH   1  11
HETATM   11  N   UNL     1       9.511  30.521  59.705  1.00  0.00    -0.327 N 
HETATM   12  C   UNL     1       9.309  31.799  60.202  1.00  0.00     0.226 C 
HETATM   13  O   UNL     1       9.032  32.801  59.549  1.00  0.00    -0.273 OA
HETATM   14  H   UNL     1       9.849  29.828  60.362  1.00  0.00     0.169 HD
BRANCH  12  15
HETATM   15  C   UNL     1       9.452  31.866  61.718  1.00  0.00     0.141 C 
BRANCH  15  16
HETATM   16  C   UNL     1       8.134  32.135  62.410  1.00  0.00    -0.049 A 
HETATM   17  C   UNL     1       8.106  32.768  63.664  1.00  0.00     0.014 A 
HETATM   18  C   UNL     1       6.893  33.054  64.303  1.00  0.00    -0.058 A 
HETATM   19  C   UNL     1       5.695  32.682  63.683  1.00  0.00     0.007 A 
HETATM   20  C   UNL     1       5.713  32.027  62.452  1.00  0.00     0.001 A 
HETATM   21  C   UNL     1       6.925  31.751  61.818  1.00  0.00     0.007 A 
BRANCH  18  22
HETATM   22  C   UNL     1       6.883  33.790  65.620  1.00  0.00     0.034 C 
HETATM   23  C   UNL     1       5.467  34.126  66.068  1.00  0.00     0.010 C 
ENDBRANCH  18  22
ENDBRANCH  15  16
ENDBRANCH  12  15
ENDBRANCH   1  11
BRANCH   8  24
HETATM   24  C   UNL     1       4.925  28.842  56.850  1.00  0.00     0.270 C 
HETATM   25  N   UNL     1       4.331  27.618  56.713  1.00  0.00    -0.365 N 
HETATM   26  H   UNL     1       4.835  26.887  56.225  1.00  0.00     0.159 HD
HETATM   27  H   UNL     1       3.425  27.450  57.122  1.00  0.00     0.159 HD
HETATM   28  O   UNL     1       4.370  29.759  57.448  1.00  0.00    -0.266 OA
ENDBRANCH   8  24
TORSDOF 5
ENDMDL
MODEL 4
REMARK VINA RESULT:      -9.0      1.912      2.906
REMARK  5 active torsions:
REMARK  status: ('A' for Active; 'I' for Inactive)
REMARK    1  A    between atoms: C_2  and  C_3 
REMARK    2  A    between atoms: C_5  and  C_6 
REMARK    3  A    between atoms: C_6  and  C_7 
REMARK       I    between atoms: C_7  and  N_8 
REMARK    4  A    between atoms: N_8  and  C_9 
REMARK    5  A    between atoms: C_16  and  C_17 
REMARK       I    between atoms: C_17  and  N_18 
ROOT
HETATM    1  C   UNL     1       7.230  28.025  57.067  1.00  0.00     0.035 A 
HETATM    2  C   UNL     1       7.625  29.020  57.976  1.00  0.00     0.046 A 
HETATM    3  C   UNL     1       6.969  30.269  57.974  1.00  0.00     0.030 A 
HETATM    4  C   UNL     1       5.950  30.486  57.058  1.00  0.00     0.063 A 
HETATM    5  N   UNL     1       5.532  31.770  57.279  1.00  0.00    -0.277 N 
HETATM    6  H   UNL     1       4.807  32.272  56.781  1.00  0.00     0.189 HD
HETATM    7  N   UNL     1       6.180  32.401  58.275  1.00  0.00    -0.168 NA
HETATM    8  C   UNL     1       7.068  31.482  58.716  1.00  0.00     0.156 A 
HETATM    9  C   UNL     1       5.529  29.518  56.145  1.00  0.00     0.034 A 
HETATM   10  C   UNL     1       6.187  28.280  56.173  1.00  0.00     0.032 A 
ENDROOT
BRANCH   1  11
HETATM   11  N   UNL     1       7.969  26.826  57.081  1.00  0.00    -0.327 N 
HETATM   12  C   UNL     1       7.474  25.533  57.144  1.00  0.00     0.226 C 
HETATM   13  O   UNL     1       6.323  25.205  57.417  1.00  0.00    -0.273 OA
HETATM   14  H   UNL     1       8.970  26.922  56.958  1.00  0.00     0.169 HD
BRANCH  12  15
HETATM   15  C   UNL     1       8.530  24.485  56.814  1.00  0.00     0.141 C 
BRANCH  15  16
HETATM   16  C   UNL     1       8.356  23.906  55.428  1.00  0.00    -0.049 A 
HETATM   17  C   UNL     1       7.797  24.681  54.398  1.00  0.00     0.014 A 
HETATM   18  C   UNL     1       7.659  24.171  53.101  1.00  0.00    -0.058 A 
HETATM   19  C   UNL     1       8.071  22.859  52.841  1.00  0.00     0.007 A 
HETATM   20  C   UNL     1       8.601  22.071  53.863  1.00  0.00     0.001 A 
HETATM   21  C   UNL     1       8.742  22.588  55.151  1.00  0.00     0.007 A 
BRANCH  18  22
HETATM   22  C   UNL     1       7.114  25.040  51.996  1.00  0.00     0.034 C 
HETATM   23  C   UNL     1       5.612  25.246  52.128  1.00  0.00     0.010 C 
ENDBRANCH  18  22
ENDBRANCH  15  16
ENDBRANCH  12  15
ENDBRANCH   1  11
BRANCH   8  24
HETATM   24  C   UNL     1       7.983  31.772  59.827  1.00  0.00     0.270 C 
HETATM   25  N   UNL     1       7.786  30.991  60.932  1.00  0.00    -0.365 N 
HETATM   26  H   UNL     1       7.058  30.287  60.904  1.00  0.00     0.159 HD
HETATM   27  H   UNL     1       8.380  31.102  61.739  1.00  0.00     0.159 HD
HETATM   28  O   UNL     1       8.863  32.628  59.797  1.00  0.00    -0.266 OA
ENDBRANCH   8  24
TORSDOF 5
ENDMDL
MODEL 5
REMARK VINA RESULT:      -8.8      3.203      4.761
REMARK  5 active torsions:
REMARK  status: ('A' for Active; 'I' for Inactive)
REMARK    1  A    between atoms: C_2  and  C_3 
REMARK    2  A    between atoms: C_5  and  C_6 
REMARK    3  A    between atoms: C_6  and  C_7 
REMARK       I    between atoms: C_7  and  N_8 
REMARK    4  A    between atoms: N_8  and  C_9 
REMARK    5  A    between atoms: C_16  and  C_17 
REMARK       I    between atoms: C_17  and  N_18 
ROOT
HETATM    1  C   UNL     1       7.547  27.761  56.735  1.00  0.00     0.035 A 
HETATM    2  C   UNL     1       6.724  27.648  55.602  1.00  0.00     0.046 A 
HETATM    3  C   UNL     1       5.944  28.749  55.192  1.00  0.00     0.030 A 
HETATM    4  C   UNL     1       6.002  29.921  55.934  1.00  0.00     0.063 A 
HETATM    5  N   UNL     1       5.137  30.782  55.318  1.00  0.00    -0.277 N 
HETATM    6  H   UNL     1       4.915  31.731  55.596  1.00  0.00     0.189 HD
HETATM    7  N   UNL     1       4.535  30.278  54.226  1.00  0.00    -0.168 NA
HETATM    8  C   UNL     1       5.028  29.023  54.135  1.00  0.00     0.156 A 
HETATM    9  C   UNL     1       6.813  30.068  57.060  1.00  0.00     0.034 A 
HETATM   10  C   UNL     1       7.588  28.965  57.442  1.00  0.00     0.032 A 
ENDROOT
BRANCH   1  11
HETATM   11  N   UNL     1       8.250  26.603  57.123  1.00  0.00    -0.327 N 
HETATM   12  C   UNL     1       7.724  25.348  57.387  1.00  0.00     0.226 C 
HETATM   13  O   UNL     1       6.539  25.072  57.542  1.00  0.00    -0.273 OA
HETATM   14  H   UNL     1       9.260  26.684  57.140  1.00  0.00     0.169 HD
BRANCH  12  15
HETATM   15  C   UNL     1       8.797  24.269  57.461  1.00  0.00     0.141 C 
BRANCH  15  16
HETATM   16  C   UNL     1       8.471  23.071  56.596  1.00  0.00    -0.049 A 
HETATM   17  C   UNL     1       8.254  23.228  55.217  1.00  0.00     0.014 A 
HETATM   18  C   UNL     1       7.984  22.125  54.397  1.00  0.00    -0.058 A 
HETATM   19  C   UNL     1       7.914  20.852  54.974  1.00  0.00     0.007 A 
HETATM   20  C   UNL     1       8.099  20.689  56.347  1.00  0.00     0.001 A 
HETATM   21  C   UNL     1       8.374  21.791  57.156  1.00  0.00     0.007 A 
BRANCH  18  22
HETATM   22  C   UNL     1       7.816  22.307  52.909  1.00  0.00     0.034 C 
HETATM   23  C   UNL     1       7.839  23.776  52.513  1.00  0.00     0.010 C 
ENDBRANCH  18  22
ENDBRANCH  15  16
ENDBRANCH  12  15
ENDBRANCH   1  11
BRANCH   8  24
HETATM   24  C   UNL     1       4.626  28.117  53.051  1.00  0.00     0.270 C 
HETATM   25  N   UNL     1       3.411  27.520  53.243  1.00  0.00    -0.365 N 
HETATM   26  H   UNL     1       2.887  27.745  54.081  1.00  0.00     0.159 HD
HETATM   27  H   UNL     1       3.040  26.897  52.542  1.00  0.00     0.159 HD
HETATM   28  O   UNL     1       5.296  27.897  52.046  1.00  0.00    -0.266 OA
ENDBRANCH   8  24
TORSDOF 5
ENDMDL
MODEL 6
REMARK VINA RESULT:      -8.7      3.959      8.763
REMARK  5 active torsions:
REMARK  status: ('A' for Active; 'I' for Inactive)
REMARK    1  A    between atoms: C_2  and  C_3 
REMARK    2  A    between atoms: C_5  and  C_6 
REMARK    3  A    between atoms: C_6  and  C_7 
REMARK       I    between atoms: C_7  and  N_8 
REMARK    4  A    between atoms: N_8  and  C_9 
REMARK    5  A    between atoms: C_16  and  C_17 
REMARK       I    between atoms: C_17  and  N_18 
ROOT
HETATM    1  C   UNL     1       9.344  29.991  58.396  1.00  0.00     0.035 A 
HETATM    2  C   UNL     1       8.086  29.418  58.143  1.00  0.00     0.046 A 
HETATM    3  C   UNL     1       7.760  28.998  56.837  1.00  0.00     0.030 A 
HETATM    4  C   UNL     1       8.694  29.175  55.826  1.00  0.00     0.063 A 
HETATM    5  N   UNL     1       8.093  28.703  54.691  1.00  0.00    -0.277 N 
HETATM    6  H   UNL     1       8.480  28.687  53.755  1.00  0.00     0.189 HD
HETATM    7  N   UNL     1       6.855  28.216  54.881  1.00  0.00    -0.168 NA
HETATM    8  C   UNL     1       6.638  28.388  56.204  1.00  0.00     0.156 A 
HETATM    9  C   UNL     1       9.953  29.736  56.044  1.00  0.00     0.034 A 
HETATM   10  C   UNL     1      10.261  30.135  57.352  1.00  0.00     0.032 A 
ENDROOT
BRANCH   1  11
HETATM   11  N   UNL     1       9.579  30.445  59.709  1.00  0.00    -0.327 N 
HETATM   12  C   UNL     1       9.400  31.729  60.200  1.00  0.00     0.226 C 
HETATM   13  O   UNL     1       9.215  32.745  59.536  1.00  0.00    -0.273 OA
HETATM   14  H   UNL     1       9.838  29.735  60.383  1.00  0.00     0.169 HD
BRANCH  12  15
HETATM   15  C   UNL     1       9.439  31.784  61.722  1.00  0.00     0.141 C 
BRANCH  15  16
HETATM   16  C   UNL     1       8.127  32.244  62.317  1.00  0.00    -0.049 A 
HETATM   17  C   UNL     1       6.941  32.169  61.569  1.00  0.00     0.014 A 
HETATM   18  C   UNL     1       5.713  32.561  62.116  1.00  0.00    -0.058 A 
HETATM   19  C   UNL     1       5.681  33.051  63.427  1.00  0.00     0.007 A 
HETATM   20  C   UNL     1       6.857  33.157  64.169  1.00  0.00     0.001 A 
HETATM   21  C   UNL     1       8.076  32.759  63.619  1.00  0.00     0.007 A 
BRANCH  18  22
HETATM   22  C   UNL     1       4.442  32.414  61.318  1.00  0.00     0.034 C 
HETATM   23  C   UNL     1       3.290  33.187  61.942  1.00  0.00     0.010 C 
ENDBRANCH  18  22
ENDBRANCH  15  16
ENDBRANCH  12  15
ENDBRANCH   1  11
BRANCH   8  24
HETATM   24  C   UNL     1       5.380  27.970  56.837  1.00  0.00     0.270 C 
HETATM   25  N   UNL     1       4.616  29.004  57.300  1.00  0.00    -0.365 N 
HETATM   26  H   UNL     1       4.951  29.951  57.169  1.00  0.00     0.159 HD
HETATM   27  H   UNL     1       3.724  28.817  57.731  1.00  0.00     0.159 HD
HETATM   28  O   UNL     1       5.016  26.803  56.951  1.00  0.00    -0.266 OA
ENDBRANCH   8  24
TORSDOF 5
ENDMDL
MODEL 7
REMARK VINA RESULT:      -8.6      4.067      4.908
REMARK  5 active torsions:
REMARK  status: ('A' for Active; 'I' for Inactive)
REMARK    1  A    between atoms: C_2  and  C_3 
REMARK    2  A    between atoms: C_5  and  C_6 
REMARK    3  A    between atoms: C_6  and  C_7 
REMARK       I    between atoms: C_7  and  N_8 
REMARK    4  A    between atoms: N_8  and  C_9 
REMARK    5  A    between atoms: C_16  and  C_17 
REMARK       I    between atoms: C_17  and  N_18 
ROOT
HETATM    1  C   UNL     1       3.829  28.211  53.469  1.00  0.00     0.035 A 
HETATM    2  C   UNL     1       4.183  28.638  54.760  1.00  0.00     0.046 A 
HETATM    3  C   UNL     1       4.038  29.995  55.112  1.00  0.00     0.030 A 
HETATM    4  C   UNL     1       3.557  30.884  54.161  1.00  0.00     0.063 A 
HETATM    5  N   UNL     1       3.550  32.105  54.777  1.00  0.00    -0.277 N 
HETATM    6  H   UNL     1       3.269  32.992  54.376  1.00  0.00     0.189 HD
HETATM    7  N   UNL     1       3.967  32.084  56.055  1.00  0.00    -0.168 NA
HETATM    8  C   UNL     1       4.269  30.785  56.276  1.00  0.00     0.156 A 
HETATM    9  C   UNL     1       3.191  30.493  52.872  1.00  0.00     0.034 A 
HETATM   10  C   UNL     1       3.332  29.137  52.548  1.00  0.00     0.032 A 
ENDROOT
BRANCH   1  11
HETATM   11  N   UNL     1       4.059  26.855  53.165  1.00  0.00    -0.327 N 
HETATM   12  C   UNL     1       5.160  26.312  52.521  1.00  0.00     0.226 C 
HETATM   13  O   UNL     1       6.026  26.930  51.909  1.00  0.00    -0.273 OA
HETATM   14  H   UNL     1       3.375  26.200  53.523  1.00  0.00     0.169 HD
BRANCH  12  15
HETATM   15  C   UNL     1       5.224  24.795  52.652  1.00  0.00     0.141 C 
BRANCH  15  16
HETATM   16  C   UNL     1       6.357  24.340  53.544  1.00  0.00    -0.049 A 
HETATM   17  C   UNL     1       7.105  23.197  53.218  1.00  0.00     0.014 A 
HETATM   18  C   UNL     1       8.178  22.781  54.016  1.00  0.00    -0.058 A 
HETATM   19  C   UNL     1       8.491  23.513  55.167  1.00  0.00     0.007 A 
HETATM   20  C   UNL     1       7.736  24.633  55.516  1.00  0.00     0.001 A 
HETATM   21  C   UNL     1       6.673  25.045  54.712  1.00  0.00     0.007 A 
BRANCH  18  22
HETATM   22  C   UNL     1       9.007  21.587  53.614  1.00  0.00     0.034 C 
HETATM   23  C   UNL     1       8.180  20.549  52.868  1.00  0.00     0.010 C 
ENDBRANCH  18  22
ENDBRANCH  15  16
ENDBRANCH  12  15
ENDBRANCH   1  11
BRANCH   8  24
HETATM   24  C   UNL     1       4.762  30.322  57.580  1.00  0.00     0.270 C 
HETATM   25  N   UNL     1       3.795  30.230  58.543  1.00  0.00    -0.365 N 
HETATM   26  H   UNL     1       2.842  30.467  58.296  1.00  0.00     0.159 HD
HETATM   27  H   UNL     1       4.034  29.901  59.465  1.00  0.00     0.159 HD
HETATM   28  O   UNL     1       5.930  30.029  57.816  1.00  0.00    -0.266 OA
ENDBRANCH   8  24
TORSDOF 5
ENDMDL
MODEL 8
REMARK VINA RESULT:      -8.4      1.760      2.632
REMARK  5 active torsions:
REMARK  status: ('A' for Active; 'I' for Inactive)
REMARK    1  A    between atoms: C_2  and  C_3 
REMARK    2  A    between atoms: C_5  and  C_6 
REMARK    3  A    between atoms: C_6  and  C_7 
REMARK       I    between atoms: C_7  and  N_8 
REMARK    4  A    between atoms: N_8  and  C_9 
REMARK    5  A    between atoms: C_16  and  C_17 
REMARK       I    between atoms: C_17  and  N_18 
ROOT
HETATM    1  C   UNL     1       8.323  28.235  57.476  1.00  0.00     0.035 A 
HETATM    2  C   UNL     1       7.925  29.121  58.491  1.00  0.00     0.046 A 
HETATM    3  C   UNL     1       8.649  30.313  58.702  1.00  0.00     0.030 A 
HETATM    4  C   UNL     1       9.752  30.574  57.902  1.00  0.00     0.063 A 
HETATM    5  N   UNL     1      10.251  31.765  58.351  1.00  0.00    -0.277 N 
HETATM    6  H   UNL     1      11.066  32.257  58.005  1.00  0.00     0.189 HD
HETATM    7  N   UNL     1       9.555  32.313  59.363  1.00  0.00    -0.168 NA
HETATM    8  C   UNL     1       8.559  31.426  59.587  1.00  0.00     0.156 A 
HETATM    9  C   UNL     1      10.171  29.718  56.882  1.00  0.00     0.034 A 
HETATM   10  C   UNL     1       9.430  28.545  56.683  1.00  0.00     0.032 A 
ENDROOT
BRANCH   1  11
HETATM   11  N   UNL     1       7.594  27.035  57.363  1.00  0.00    -0.327 N 
HETATM   12  C   UNL     1       6.247  26.893  57.068  1.00  0.00     0.226 C 
HETATM   13  O   UNL     1       5.403  27.784  57.066  1.00  0.00    -0.273 OA
HETATM   14  H   UNL     1       8.134  26.181  57.435  1.00  0.00     0.169 HD
BRANCH  12  15
HETATM   15  C   UNL     1       5.875  25.459  56.709  1.00  0.00     0.141 C 
BRANCH  15  16
HETATM   16  C   UNL     1       6.069  25.163  55.238  1.00  0.00    -0.049 A 
HETATM   17  C   UNL     1       5.472  25.980  54.264  1.00  0.00     0.014 A 
HETATM   18  C   UNL     1       5.669  25.740  52.898  1.00  0.00    -0.058 A 
HETATM   19  C   UNL     1       6.459  24.653  52.508  1.00  0.00     0.007 A 
HETATM   20  C   UNL     1       7.033  23.818  53.467  1.00  0.00     0.001 A 
HETATM   21  C   UNL     1       6.838  24.068  54.826  1.00  0.00     0.007 A 
BRANCH  18  22
HETATM   22  C   UNL     1       5.070  26.665  51.869  1.00  0.00     0.034 C 
HETATM   23  C   UNL     1       5.091  26.051  50.476  1.00  0.00     0.010 C 
ENDBRANCH  18  22
ENDBRANCH  15  16
ENDBRANCH  12  15
ENDBRANCH   1  11
BRANCH   8  24
HETATM   24  C   UNL     1       7.547  31.655  60.627  1.00  0.00     0.270 C 
HETATM   25  N   UNL     1       6.273  31.781  60.148  1.00  0.00    -0.365 N 
HETATM   26  H   UNL     1       6.119  31.700  59.150  1.00  0.00     0.159 HD
HETATM   27  H   UNL     1       5.506  31.920  60.789  1.00  0.00     0.159 HD
HETATM   28  O   UNL     1       7.790  31.727  61.828  1.00  0.00    -0.266 OA
ENDBRANCH   8  24
TORSDOF 5
ENDMDL
MODEL 9
REMARK VINA RESULT:      -8.3      3.791      5.193
REMARK  5 active torsions:
REMARK  status: ('A' for Active; 'I' for Inactive)
REMARK    1  A    between atoms: C_2  and  C_3 
REMARK    2  A    between atoms: C_5  and  C_6 
REMARK    3  A    between atoms: C_6  and  C_7 
REMARK       I    between atoms: C_7  and  N_8 
REMARK    4  A    between atoms: N_8  and  C_9 
REMARK    5  A    between atoms: C_16  and  C_17 
REMARK       I    between atoms: C_17  and  N_18 
ROOT
HETATM    1  C   UNL     1       5.454  27.476  53.291  1.00  0.00     0.035 A 
HETATM    2  C   UNL     1       5.364  28.064  54.563  1.00  0.00     0.046 A 
HETATM    3  C   UNL     1       4.487  29.149  54.772  1.00  0.00     0.030 A 
HETATM    4  C   UNL     1       3.739  29.618  53.702  1.00  0.00     0.063 A 
HETATM    5  N   UNL     1       3.017  30.668  54.198  1.00  0.00    -0.277 N 
HETATM    6  H   UNL     1       2.369  31.259  53.692  1.00  0.00     0.189 HD
HETATM    7  N   UNL     1       3.216  30.910  55.506  1.00  0.00    -0.168 NA
HETATM    8  C   UNL     1       4.120  29.975  55.874  1.00  0.00     0.156 A 
HETATM    9  C   UNL     1       3.800  29.055  52.427  1.00  0.00     0.034 A 
HETATM   10  C   UNL     1       4.669  27.970  52.245  1.00  0.00     0.032 A 
ENDROOT
BRANCH   1  11
HETATM   11  N   UNL     1       6.395  26.440  53.137  1.00  0.00    -0.327 N 
HETATM   12  C   UNL     1       6.158  25.145  52.702  1.00  0.00     0.226 C 
HETATM   13  O   UNL     1       5.062  24.606  52.579  1.00  0.00    -0.273 OA
HETATM   14  H   UNL     1       7.363  26.694  53.296  1.00  0.00     0.169 HD
BRANCH  12  15
HETATM   15  C   UNL     1       7.441  24.402  52.351  1.00  0.00     0.141 C 
BRANCH  15  16
HETATM   16  C   UNL     1       7.746  23.286  53.326  1.00  0.00    -0.049 A 
HETATM   17  C   UNL     1       7.993  23.571  54.679  1.00  0.00     0.014 A 
HETATM   18  C   UNL     1       8.245  22.548  55.601  1.00  0.00    -0.058 A 
HETATM   19  C   UNL     1       8.267  21.222  55.152  1.00  0.00     0.007 A 
HETATM   20  C   UNL     1       8.051  20.930  53.806  1.00  0.00     0.001 A 
HETATM   21  C   UNL     1       7.794  21.955  52.895  1.00  0.00     0.007 A 
BRANCH  18  22
HETATM   22  C   UNL     1       8.446  22.870  57.060  1.00  0.00     0.034 C 
HETATM   23  C   UNL     1       8.916  24.303  57.263  1.00  0.00     0.010 C 
ENDBRANCH  18  22
ENDBRANCH  15  16
ENDBRANCH  12  15
ENDBRANCH   1  11
BRANCH   8  24
HETATM   24  C   UNL     1       4.610  29.883  57.256  1.00  0.00     0.270 C 
HETATM   25  N   UNL     1       3.636  30.019  58.205  1.00  0.00    -0.365 N 
HETATM   26  H   UNL     1       2.679  30.156  57.901  1.00  0.00     0.159 HD
HETATM   27  H   UNL     1       3.872  29.949  59.182  1.00  0.00     0.159 HD
HETATM   28  O   UNL     1       5.783  29.696  57.565  1.00  0.00    -0.266 OA
ENDBRANCH   8  24
TORSDOF 5
ENDMDL
MODEL 10
REMARK VINA RESULT:      -8.2      2.873      3.575
REMARK  5 active torsions:
REMARK  status: ('A' for Active; 'I' for Inactive)
REMARK    1  A    between atoms: C_2  and  C_3 
REMARK    2  A    between atoms: C_5  and  C_6 
REMARK    3  A    between atoms: C_6  and  C_7 
REMARK       I    between atoms: C_7  and  N_8 
REMARK    4  A    between atoms: N_8  and  C_9 
REMARK    5  A    between atoms: C_16  and  C_17 
REMARK       I    between atoms: C_17  and  N_18 
ROOT
HETATM    1  C   UNL     1       7.594  28.400  57.341  1.00  0.00     0.035 A 
HETATM    2  C   UNL     1       6.655  28.688  56.337  1.00  0.00     0.046 A 
HETATM    3  C   UNL     1       5.959  29.914  56.360  1.00  0.00     0.030 A 
HETATM    4  C   UNL     1       6.215  30.807  57.391  1.00  0.00     0.063 A 
HETATM    5  N   UNL     1       5.389  31.872  57.160  1.00  0.00    -0.277 N 
HETATM    6  H   UNL     1       5.298  32.710  57.723  1.00  0.00     0.189 HD
HETATM    7  N   UNL     1       4.630  31.758  56.055  1.00  0.00    -0.168 NA
HETATM    8  C   UNL     1       4.976  30.553  55.549  1.00  0.00     0.156 A 
HETATM    9  C   UNL     1       7.144  30.556  58.401  1.00  0.00     0.034 A 
HETATM   10  C   UNL     1       7.833  29.336  58.351  1.00  0.00     0.032 A 
ENDROOT
BRANCH   1  11
HETATM   11  N   UNL     1       8.205  27.132  57.292  1.00  0.00    -0.327 N 
HETATM   12  C   UNL     1       7.582  25.895  57.343  1.00  0.00     0.226 C 
HETATM   13  O   UNL     1       6.416  25.678  57.657  1.00  0.00    -0.273 OA
HETATM   14  H   UNL     1       9.205  27.129  57.129  1.00  0.00     0.169 HD
BRANCH  12  15
HETATM   15  C   UNL     1       8.510  24.756  56.941  1.00  0.00     0.141 C 
BRANCH  15  16
HETATM   16  C   UNL     1       8.141  24.155  55.602  1.00  0.00    -0.049 A 
HETATM   17  C   UNL     1       8.195  22.766  55.407  1.00  0.00     0.014 A 
HETATM   18  C   UNL     1       7.825  22.191  54.184  1.00  0.00    -0.058 A 
HETATM   19  C   UNL     1       7.413  23.027  53.140  1.00  0.00     0.007 A 
HETATM   20  C   UNL     1       7.382  24.410  53.314  1.00  0.00     0.001 A 
HETATM   21  C   UNL     1       7.746  24.975  54.537  1.00  0.00     0.007 A 
BRANCH  18  22
HETATM   22  C   UNL     1       7.831  20.693  54.015  1.00  0.00     0.034 C 
HETATM   23  C   UNL     1       8.493  20.274  52.710  1.00  0.00     0.010 C 
ENDBRANCH  18  22
ENDBRANCH  15  16
ENDBRANCH  12  15
ENDBRANCH   1  11
BRANCH   8  24
HETATM   24  C   UNL     1       4.375  30.039  54.312  1.00  0.00     0.270 C 
HETATM   25  N   UNL     1       3.121  30.521  54.057  1.00  0.00    -0.365 N 
HETATM   26  H   UNL     1       2.715  31.183  54.708  1.00  0.00     0.159 HD
HETATM   27  H   UNL     1       2.635  30.242  53.219  1.00  0.00     0.159 HD
HETATM   28  O   UNL     1       4.924  29.250  53.549  1.00  0.00    -0.266 OA
ENDBRANCH   8  24
TORSDOF 5
ENDMDL
