MODEL 1
REMARK VINA RESULT:     -10.2      0.000      0.000
REMARK  6 active torsions:
REMARK  status: ('A' for Active; 'I' for Inactive)
REMARK    1  A    between atoms: C_4  and  C_5 
REMARK    2  A    between atoms: C_5  and  N_6 
REMARK    3  A    between atoms: C_7  and  N_8 
REMARK    4  A    between atoms: N_8  and  N_9 
REMARK       I    between atoms: N_9  and  C_10 
REMARK    5  A    between atoms: C_10  and  C_11 
REMARK    6  A    between atoms: C_19  and  C_20 
ROOT
HETATM    1  N   UNL     1       6.589  26.924  57.265  1.00  0.00    -0.168 NA
HETATM    2  C   UNL     1       5.661  26.082  56.672  1.00  0.00     0.250 C 
HETATM    3  O   UNL     1       4.596  25.860  57.244  1.00  0.00    -0.272 OA
HETATM    4  H   UNL     1       6.282  27.204  58.196  1.00  0.00     0.156 HD
ENDROOT
BRANCH   2   5
HETATM    5  C   UNL     1       6.013  25.358  55.417  1.00  0.00     0.042 A 
HETATM    6  C   UNL     1       5.653  25.908  54.159  1.00  0.00     0.008 A 
HETATM    7  C   UNL     1       6.048  25.178  53.021  1.00  0.00     0.068 A 
HETATM    8  C   UNL     1       4.928  27.114  53.961  1.00  0.00     0.015 A 
HETATM    9  C   UNL     1       5.739  25.667  51.758  1.00  0.00     0.032 A 
HETATM   10  N   UNL     1       6.712  24.015  53.090  1.00  0.00    -0.248 NA
HETATM   11  C   UNL     1       5.038  26.860  51.576  1.00  0.00     0.002 A 
HETATM   12  C   UNL     1       4.628  27.585  52.683  1.00  0.00     0.001 A 
HETATM   13  C   UNL     1       7.026  23.496  54.298  1.00  0.00     0.069 A 
HETATM   14  C   UNL     1       6.725  24.159  55.477  1.00  0.00     0.050 A 
BRANCH  13  15
HETATM   15  C   UNL     1       7.694  22.183  54.268  1.00  0.00    -0.005 A 
HETATM   16  C   UNL     1       8.007  21.566  53.049  1.00  0.00     0.033 A 
HETATM   17  C   UNL     1       8.621  20.324  53.055  1.00  0.00     0.117 A 
HETATM   18  N   UNL     1       8.941  19.649  54.178  1.00  0.00    -0.273 NA
HETATM   19  C   UNL     1       8.616  20.240  55.345  1.00  0.00     0.117 A 
HETATM   20  C   UNL     1       8.007  21.483  55.440  1.00  0.00     0.033 A 
ENDBRANCH  13  15
ENDBRANCH   2   5
BRANCH   1  21
HETATM   21  N   UNL     1       7.123  28.001  56.529  1.00  0.00    -0.291 N 
HETATM   22  H   UNL     1       7.620  27.728  55.690  1.00  0.00     0.183 HD
BRANCH  21  23
HETATM   23  C   UNL     1       6.652  29.282  56.671  1.00  0.00     0.182 C 
HETATM   24  N   UNL     1       7.189  30.025  57.677  1.00  0.00    -0.362 N 
HETATM   25  H   UNL     1       6.792  30.957  57.738  1.00  0.00     0.162 HD
HETATM   26  S   UNL     1       5.429  29.978  55.769  1.00  0.00    -0.040 SA
BRANCH  24  27
HETATM   27  C   UNL     1       8.302  29.751  58.573  1.00  0.00     0.160 C 
BRANCH  27  28
HETATM   28  C   UNL     1       8.271  30.654  59.776  1.00  0.00    -0.041 A 
HETATM   29  C   UNL     1       7.332  31.693  59.863  1.00  0.00     0.009 A 
HETATM   30  C   UNL     1       7.297  32.525  60.984  1.00  0.00     0.001 A 
HETATM   31  C   UNL     1       8.205  32.336  62.023  1.00  0.00     0.000 A 
HETATM   32  C   UNL     1       9.149  31.314  61.944  1.00  0.00     0.001 A 
HETATM   33  C   UNL     1       9.182  30.476  60.828  1.00  0.00     0.009 A 
ENDBRANCH  27  28
ENDBRANCH  24  27
ENDBRANCH  21  23
ENDBRANCH   1  21
TORSDOF 6
ENDMDL
MODEL 2
REMARK VINA RESULT:     -10.2      2.230      8.540
REMARK  6 active torsions:
REMARK  status: ('A' for Active; 'I' for Inactive)
REMARK    1  A    between atoms: C_4  and  C_5 
REMARK    2  A    between atoms: C_5  and  N_6 
REMARK    3  A    between atoms: C_7  and  N_8 
REMARK    4  A    between atoms: N_8  and  N_9 
REMARK       I    between atoms: N_9  and  C_10 
REMARK    5  A    between atoms: C_10  and  C_11 
REMARK    6  A    between atoms: C_19  and  C_20 
ROOT
HETATM    1  N   UNL     1       6.064  28.022  53.164  1.00  0.00    -0.168 NA
HETATM    2  C   UNL     1       5.539  27.971  54.446  1.00  0.00     0.250 C 
HETATM    3  O   UNL     1       4.328  28.099  54.608  1.00  0.00    -0.272 OA
HETATM    4  H   UNL     1       5.341  28.255  52.485  1.00  0.00     0.156 HD
ENDROOT
BRANCH   2   5
HETATM    5  C   UNL     1       6.457  27.890  55.620  1.00  0.00     0.042 A 
HETATM    6  C   UNL     1       6.804  26.623  56.159  1.00  0.00     0.008 A 
HETATM    7  C   UNL     1       7.698  26.631  57.247  1.00  0.00     0.068 A 
HETATM    8  C   UNL     1       6.320  25.368  55.699  1.00  0.00     0.015 A 
HETATM    9  C   UNL     1       8.090  25.426  57.814  1.00  0.00     0.032 A 
HETATM   10  N   UNL     1       8.195  27.757  57.779  1.00  0.00    -0.248 NA
HETATM   11  C   UNL     1       7.619  24.198  57.345  1.00  0.00     0.002 A 
HETATM   12  C   UNL     1       6.727  24.170  56.285  1.00  0.00     0.001 A 
HETATM   13  C   UNL     1       7.834  28.955  57.267  1.00  0.00     0.069 A 
HETATM   14  C   UNL     1       6.999  29.054  56.166  1.00  0.00     0.050 A 
BRANCH  13  15
HETATM   15  C   UNL     1       8.381  30.132  57.964  1.00  0.00    -0.005 A 
HETATM   16  C   UNL     1       9.722  30.504  57.800  1.00  0.00     0.033 A 
HETATM   17  C   UNL     1      10.210  31.606  58.483  1.00  0.00     0.117 A 
HETATM   18  N   UNL     1       9.467  32.362  59.317  1.00  0.00    -0.273 NA
HETATM   19  C   UNL     1       8.184  31.983  59.487  1.00  0.00     0.117 A 
HETATM   20  C   UNL     1       7.605  30.900  58.842  1.00  0.00     0.033 A 
ENDBRANCH  13  15
ENDBRANCH   2   5
BRANCH   1  21
HETATM   21  N   UNL     1       6.909  26.987  52.715  1.00  0.00    -0.291 N 
HETATM   22  H   UNL     1       7.819  26.967  53.160  1.00  0.00     0.183 HD
BRANCH  21  23
HETATM   23  C   UNL     1       6.418  25.868  52.091  1.00  0.00     0.182 C 
HETATM   24  N   UNL     1       7.180  24.743  52.161  1.00  0.00    -0.362 N 
HETATM   25  H   UNL     1       6.770  23.954  51.670  1.00  0.00     0.162 HD
HETATM   26  S   UNL     1       5.012  25.790  51.192  1.00  0.00    -0.040 SA
BRANCH  24  27
HETATM   27  C   UNL     1       8.391  24.458  52.915  1.00  0.00     0.160 C 
BRANCH  27  28
HETATM   28  C   UNL     1       8.411  23.035  53.402  1.00  0.00    -0.041 A 
HETATM   29  C   UNL     1       7.671  22.044  52.738  1.00  0.00     0.009 A 
HETATM   30  C   UNL     1       7.698  20.721  53.184  1.00  0.00     0.001 A 
HETATM   31  C   UNL     1       8.455  20.376  54.301  1.00  0.00     0.000 A 
HETATM   32  C   UNL     1       9.187  21.352  54.975  1.00  0.00     0.001 A 
HETATM   33  C   UNL     1       9.167  22.674  54.527  1.00  0.00     0.009 A 
ENDBRANCH  27  28
ENDBRANCH  24  27
ENDBRANCH  21  23
ENDBRANCH   1  21
TORSDOF 6
ENDMDL
MODEL 3
REMARK VINA RESULT:     -10.1      1.385      4.409
REMARK  6 active torsions:
REMARK  status: ('A' for Active; 'I' for Inactive)
REMARK    1  A    between atoms: C_4  and  C_5 
REMARK    2  A    between atoms: C_5  and  N_6 
REMARK    3  A    between atoms: C_7  and  N_8 
REMARK    4  A    between atoms: N_8  and  N_9 
REMARK       I    between atoms: N_9  and  C_10 
REMARK    5  A    between atoms: C_10  and  C_11 
REMARK    6  A    between atoms: C_19  and  C_20 
ROOT
HETATM    1  N   UNL     1       6.765  26.416  57.401  1.00  0.00    -0.168 NA
HETATM    2  C   UNL     1       5.829  25.635  56.740  1.00  0.00     0.250 C 
HETATM    3  O   UNL     1       4.905  25.134  57.377  1.00  0.00    -0.272 OA
HETATM    4  H   UNL     1       6.600  26.407  58.406  1.00  0.00     0.156 HD
ENDROOT
BRANCH   2   5
HETATM    5  C   UNL     1       6.023  25.306  55.298  1.00  0.00     0.042 A 
HETATM    6  C   UNL     1       6.816  24.188  54.929  1.00  0.00     0.008 A 
HETATM    7  C   UNL     1       6.925  23.928  53.549  1.00  0.00     0.068 A 
HETATM    8  C   UNL     1       7.504  23.329  55.828  1.00  0.00     0.015 A 
HETATM    9  C   UNL     1       7.675  22.842  53.118  1.00  0.00     0.032 A 
HETATM   10  N   UNL     1       6.341  24.689  52.611  1.00  0.00    -0.248 NA
HETATM   11  C   UNL     1       8.336  21.996  54.012  1.00  0.00     0.002 A 
HETATM   12  C   UNL     1       8.252  22.243  55.372  1.00  0.00     0.001 A 
HETATM   13  C   UNL     1       5.610  25.763  52.982  1.00  0.00     0.069 A 
HETATM   14  C   UNL     1       5.400  26.077  54.316  1.00  0.00     0.050 A 
BRANCH  13  15
HETATM   15  C   UNL     1       5.067  26.571  51.876  1.00  0.00    -0.005 A 
HETATM   16  C   UNL     1       5.049  26.074  50.566  1.00  0.00     0.033 A 
HETATM   17  C   UNL     1       4.547  26.865  49.546  1.00  0.00     0.117 A 
HETATM   18  N   UNL     1       4.067  28.112  49.730  1.00  0.00    -0.273 NA
HETATM   19  C   UNL     1       4.109  28.591  50.989  1.00  0.00     0.117 A 
HETATM   20  C   UNL     1       4.587  27.872  52.075  1.00  0.00     0.033 A 
ENDBRANCH  13  15
ENDBRANCH   2   5
BRANCH   1  21
HETATM   21  N   UNL     1       7.062  27.706  56.916  1.00  0.00    -0.291 N 
HETATM   22  H   UNL     1       7.656  27.718  56.096  1.00  0.00     0.183 HD
BRANCH  21  23
HETATM   23  C   UNL     1       6.288  28.795  57.227  1.00  0.00     0.182 C 
HETATM   24  N   UNL     1       6.814  29.691  58.105  1.00  0.00    -0.362 N 
HETATM   25  H   UNL     1       6.190  30.466  58.305  1.00  0.00     0.162 HD
HETATM   26  S   UNL     1       4.732  29.074  56.684  1.00  0.00    -0.040 SA
BRANCH  24  27
HETATM   27  C   UNL     1       8.144  29.783  58.689  1.00  0.00     0.160 C 
BRANCH  27  28
HETATM   28  C   UNL     1       8.158  30.708  59.876  1.00  0.00    -0.041 A 
HETATM   29  C   UNL     1       7.238  31.764  59.967  1.00  0.00     0.009 A 
HETATM   30  C   UNL     1       7.244  32.616  61.073  1.00  0.00     0.001 A 
HETATM   31  C   UNL     1       8.174  32.429  62.094  1.00  0.00     0.000 A 
HETATM   32  C   UNL     1       9.098  31.390  62.011  1.00  0.00     0.001 A 
HETATM   33  C   UNL     1       9.090  30.532  60.909  1.00  0.00     0.009 A 
ENDBRANCH  27  28
ENDBRANCH  24  27
ENDBRANCH  21  23
ENDBRANCH   1  21
TORSDOF 6
ENDMDL
MODEL 4
REMARK VINA RESULT:     -10.0      1.873      2.119
REMARK  6 active torsions:
REMARK  status: ('A' for Active; 'I' for Inactive)
REMARK    1  A    between atoms: C_4  and  C_5 
REMARK    2  A    between atoms: C_5  and  N_6 
REMARK    3  A    between atoms: C_7  and  N_8 
REMARK    4  A    between atoms: N_8  and  N_9 
REMARK       I    between atoms: N_9  and  C_10 
REMARK    5  A    between atoms: C_10  and  C_11 
REMARK    6  A    between atoms: C_19  and  C_20 
ROOT
HETATM    1  N   UNL     1       6.954  28.954  55.159  1.00  0.00    -0.168 NA
HETATM    2  C   UNL     1       7.778  28.228  54.313  1.00  0.00     0.250 C 
HETATM    3  O   UNL     1       8.893  28.665  54.036  1.00  0.00    -0.272 OA
HETATM    4  H   UNL     1       7.374  29.852  55.392  1.00  0.00     0.156 HD
ENDROOT
BRANCH   2   5
HETATM    5  C   UNL     1       7.259  26.996  53.651  1.00  0.00     0.042 A 
HETATM    6  C   UNL     1       6.374  27.107  52.546  1.00  0.00     0.008 A 
HETATM    7  C   UNL     1       5.954  25.898  51.958  1.00  0.00     0.068 A 
HETATM    8  C   UNL     1       5.880  28.323  52.001  1.00  0.00     0.015 A 
HETATM    9  C   UNL     1       5.099  25.934  50.866  1.00  0.00     0.032 A 
HETATM   10  N   UNL     1       6.336  24.693  52.408  1.00  0.00    -0.248 NA
HETATM   11  C   UNL     1       4.630  27.135  50.330  1.00  0.00     0.002 A 
HETATM   12  C   UNL     1       5.021  28.334  50.903  1.00  0.00     0.001 A 
HETATM   13  C   UNL     1       7.160  24.608  53.475  1.00  0.00     0.069 A 
HETATM   14  C   UNL     1       7.669  25.738  54.095  1.00  0.00     0.050 A 
BRANCH  13  15
HETATM   15  C   UNL     1       7.465  23.241  53.932  1.00  0.00    -0.005 A 
HETATM   16  C   UNL     1       7.756  22.225  53.010  1.00  0.00     0.033 A 
HETATM   17  C   UNL     1       8.022  20.946  53.471  1.00  0.00     0.117 A 
HETATM   18  N   UNL     1       8.017  20.601  54.775  1.00  0.00    -0.273 NA
HETATM   19  C   UNL     1       7.714  21.579  55.652  1.00  0.00     0.117 A 
HETATM   20  C   UNL     1       7.440  22.888  55.287  1.00  0.00     0.033 A 
ENDBRANCH  13  15
ENDBRANCH   2   5
BRANCH   1  21
HETATM   21  N   UNL     1       6.377  28.323  56.281  1.00  0.00    -0.291 N 
HETATM   22  H   UNL     1       5.469  27.912  56.107  1.00  0.00     0.183 HD
BRANCH  21  23
HETATM   23  C   UNL     1       7.132  27.914  57.350  1.00  0.00     0.182 C 
HETATM   24  N   UNL     1       7.598  28.886  58.181  1.00  0.00    -0.362 N 
HETATM   25  H   UNL     1       8.158  28.522  58.944  1.00  0.00     0.162 HD
HETATM   26  S   UNL     1       7.589  26.340  57.678  1.00  0.00    -0.040 SA
BRANCH  24  27
HETATM   27  C   UNL     1       7.322  30.314  58.223  1.00  0.00     0.160 C 
BRANCH  27  28
HETATM   28  C   UNL     1       7.780  30.922  59.521  1.00  0.00    -0.041 A 
HETATM   29  C   UNL     1       7.062  31.976  60.106  1.00  0.00     0.009 A 
HETATM   30  C   UNL     1       7.481  32.533  61.316  1.00  0.00     0.001 A 
HETATM   31  C   UNL     1       8.626  32.052  61.947  1.00  0.00     0.000 A 
HETATM   32  C   UNL     1       9.353  31.011  61.372  1.00  0.00     0.001 A 
HETATM   33  C   UNL     1       8.932  30.448  60.166  1.00  0.00     0.009 A 
ENDBRANCH  27  28
ENDBRANCH  24  27
ENDBRANCH  21  23
ENDBRANCH   1  21
TORSDOF 6
ENDMDL
MODEL 5
REMARK VINA RESULT:      -9.8      2.846      8.970
REMARK  6 active torsions:
REMARK  status: ('A' for Active; 'I' for Inactive)
REMARK    1  A    between atoms: C_4  and  C_5 
REMARK    2  A    between atoms: C_5  and  N_6 
REMARK    3  A    between atoms: C_7  and  N_8 
REMARK    4  A    between atoms: N_8  and  N_9 
REMARK       I    between atoms: N_9  and  C_10 
REMARK    5  A    between atoms: C_10  and  C_11 
REMARK    6  A    between atoms: C_19  and  C_20 
ROOT
HETATM    1  N   UNL     1       5.646  24.756  52.321  1.00  0.00    -0.168 NA
HETATM    2  C   UNL     1       6.946  25.065  52.690  1.00  0.00     0.250 C 
HETATM    3  O   UNL     1       7.818  25.132  51.826  1.00  0.00    -0.272 OA
HETATM    4  H   UNL     1       5.594  24.529  51.329  1.00  0.00     0.156 HD
ENDROOT
BRANCH   2   5
HETATM    5  C   UNL     1       7.298  25.188  54.134  1.00  0.00     0.042 A 
HETATM    6  C   UNL     1       7.628  24.028  54.882  1.00  0.00     0.008 A 
HETATM    7  C   UNL     1       7.978  24.232  56.231  1.00  0.00     0.068 A 
HETATM    8  C   UNL     1       7.625  22.696  54.386  1.00  0.00     0.015 A 
HETATM    9  C   UNL     1       8.325  23.142  57.017  1.00  0.00     0.032 A 
HETATM   10  N   UNL     1       7.987  25.442  56.810  1.00  0.00    -0.248 NA
HETATM   11  C   UNL     1       8.332  21.839  56.515  1.00  0.00     0.002 A 
HETATM   12  C   UNL     1       7.977  21.615  55.195  1.00  0.00     0.001 A 
HETATM   13  C   UNL     1       7.647  26.532  56.087  1.00  0.00     0.069 A 
HETATM   14  C   UNL     1       7.334  26.445  54.740  1.00  0.00     0.050 A 
BRANCH  13  15
HETATM   15  C   UNL     1       7.623  27.803  56.833  1.00  0.00    -0.005 A 
HETATM   16  C   UNL     1       6.419  28.491  57.040  1.00  0.00     0.033 A 
HETATM   17  C   UNL     1       6.433  29.691  57.731  1.00  0.00     0.117 A 
HETATM   18  N   UNL     1       7.552  30.260  58.226  1.00  0.00    -0.273 NA
HETATM   19  C   UNL     1       8.708  29.603  58.002  1.00  0.00     0.117 A 
HETATM   20  C   UNL     1       8.793  28.394  57.328  1.00  0.00     0.033 A 
ENDBRANCH  13  15
ENDBRANCH   2   5
BRANCH   1  21
HETATM   21  N   UNL     1       4.586  25.587  52.739  1.00  0.00    -0.291 N 
HETATM   22  H   UNL     1       4.100  25.260  53.565  1.00  0.00     0.183 HD
BRANCH  21  23
HETATM   23  C   UNL     1       4.502  26.902  52.360  1.00  0.00     0.182 C 
HETATM   24  N   UNL     1       4.659  27.169  51.035  1.00  0.00    -0.362 N 
HETATM   25  H   UNL     1       4.599  28.159  50.819  1.00  0.00     0.162 HD
HETATM   26  S   UNL     1       4.303  28.204  53.388  1.00  0.00    -0.040 SA
BRANCH  24  27
HETATM   27  C   UNL     1       4.766  26.278  49.891  1.00  0.00     0.160 C 
BRANCH  27  28
HETATM   28  C   UNL     1       3.685  26.551  48.880  1.00  0.00    -0.041 A 
HETATM   29  C   UNL     1       3.454  25.657  47.824  1.00  0.00     0.009 A 
HETATM   30  C   UNL     1       2.444  25.905  46.892  1.00  0.00     0.001 A 
HETATM   31  C   UNL     1       1.662  27.053  46.999  1.00  0.00     0.000 A 
HETATM   32  C   UNL     1       1.887  27.954  48.038  1.00  0.00     0.001 A 
HETATM   33  C   UNL     1       2.892  27.705  48.975  1.00  0.00     0.009 A 
ENDBRANCH  27  28
ENDBRANCH  24  27
ENDBRANCH  21  23
ENDBRANCH   1  21
TORSDOF 6
ENDMDL
MODEL 6
REMARK VINA RESULT:      -9.6      2.674      9.640
REMARK  6 active torsions:
REMARK  status: ('A' for Active; 'I' for Inactive)
REMARK    1  A    between atoms: C_4  and  C_5 
REMARK    2  A    between atoms: C_5  and  N_6 
REMARK    3  A    between atoms: C_7  and  N_8 
REMARK    4  A    between atoms: N_8  and  N_9 
REMARK       I    between atoms: N_9  and  C_10 
REMARK    5  A    between atoms: C_10  and  C_11 
REMARK    6  A    between atoms: C_19  and  C_20 
ROOT
HETATM    1  N   UNL     1       8.312  27.759  57.780  1.00  0.00    -0.168 NA
HETATM    2  C   UNL     1       8.673  29.094  57.677  1.00  0.00     0.250 C 
HETATM    3  O   UNL     1       9.795  29.386  57.268  1.00  0.00    -0.272 OA
HETATM    4  H   UNL     1       9.103  27.152  57.566  1.00  0.00     0.156 HD
ENDROOT
BRANCH   2   5
HETATM    5  C   UNL     1       7.750  30.152  58.181  1.00  0.00     0.042 A 
HETATM    6  C   UNL     1       8.002  30.771  59.434  1.00  0.00     0.008 A 
HETATM    7  C   UNL     1       7.101  31.781  59.824  1.00  0.00     0.068 A 
HETATM    8  C   UNL     1       9.070  30.451  60.315  1.00  0.00     0.015 A 
HETATM    9  C   UNL     1       7.296  32.437  61.031  1.00  0.00     0.032 A 
HETATM   10  N   UNL     1       6.043  32.145  59.084  1.00  0.00    -0.248 NA
HETATM   11  C   UNL     1       8.357  32.124  61.883  1.00  0.00     0.002 A 
HETATM   12  C   UNL     1       9.246  31.124  61.524  1.00  0.00     0.001 A 
HETATM   13  C   UNL     1       5.807  31.527  57.905  1.00  0.00     0.069 A 
HETATM   14  C   UNL     1       6.660  30.555  57.408  1.00  0.00     0.050 A 
BRANCH  13  15
HETATM   15  C   UNL     1       4.584  31.952  57.202  1.00  0.00    -0.005 A 
HETATM   16  C   UNL     1       4.125  33.273  57.295  1.00  0.00     0.033 A 
HETATM   17  C   UNL     1       2.963  33.636  56.635  1.00  0.00     0.117 A 
HETATM   18  N   UNL     1       2.222  32.786  55.895  1.00  0.00    -0.273 NA
HETATM   19  C   UNL     1       2.658  31.512  55.830  1.00  0.00     0.117 A 
HETATM   20  C   UNL     1       3.812  31.057  56.450  1.00  0.00     0.033 A 
ENDBRANCH  13  15
ENDBRANCH   2   5
BRANCH   1  21
HETATM   21  N   UNL     1       7.115  27.313  57.184  1.00  0.00    -0.291 N 
HETATM   22  H   UNL     1       6.283  27.494  57.733  1.00  0.00     0.183 HD
BRANCH  21  23
HETATM   23  C   UNL     1       7.020  27.074  55.837  1.00  0.00     0.182 C 
HETATM   24  N   UNL     1       7.344  25.823  55.411  1.00  0.00    -0.362 N 
HETATM   25  H   UNL     1       7.266  25.713  54.405  1.00  0.00     0.162 HD
HETATM   26  S   UNL     1       6.616  28.202  54.671  1.00  0.00    -0.040 SA
BRANCH  24  27
HETATM   27  C   UNL     1       7.652  24.614  56.159  1.00  0.00     0.160 C 
BRANCH  27  28
HETATM   28  C   UNL     1       7.740  23.417  55.251  1.00  0.00    -0.041 A 
HETATM   29  C   UNL     1       7.784  23.581  53.858  1.00  0.00     0.009 A 
HETATM   30  C   UNL     1       7.876  22.471  53.016  1.00  0.00     0.001 A 
HETATM   31  C   UNL     1       7.916  21.187  53.555  1.00  0.00     0.000 A 
HETATM   32  C   UNL     1       7.864  21.010  54.936  1.00  0.00     0.001 A 
HETATM   33  C   UNL     1       7.778  22.118  55.780  1.00  0.00     0.009 A 
ENDBRANCH  27  28
ENDBRANCH  24  27
ENDBRANCH  21  23
ENDBRANCH   1  21
TORSDOF 6
ENDMDL
MODEL 7
REMARK VINA RESULT:      -9.5      2.759      6.238
REMARK  6 active torsions:
REMARK  status: ('A' for Active; 'I' for Inactive)
REMARK    1  A    between atoms: C_4  and  C_5 
REMARK    2  A    between atoms: C_5  and  N_6 
REMARK    3  A    between atoms: C_7  and  N_8 
REMARK    4  A    between atoms: N_8  and  N_9 
REMARK       I    between atoms: N_9  and  C_10 
REMARK    5  A    between atoms: C_10  and  C_11 
REMARK    6  A    between atoms: C_19  and  C_20 
ROOT
HETATM    1  N   UNL     1       5.128  25.494  52.970  1.00  0.00    -0.168 NA
HETATM    2  C   UNL     1       6.500  25.650  53.089  1.00  0.00     0.250 C 
HETATM    3  O   UNL     1       7.200  25.616  52.079  1.00  0.00    -0.272 OA
HETATM    4  H   UNL     1       4.868  25.276  52.009  1.00  0.00     0.156 HD
ENDROOT
BRANCH   2   5
HETATM    5  C   UNL     1       7.123  25.728  54.442  1.00  0.00     0.042 A 
HETATM    6  C   UNL     1       7.482  24.536  55.125  1.00  0.00     0.008 A 
HETATM    7  C   UNL     1       8.092  24.698  56.384  1.00  0.00     0.068 A 
HETATM    8  C   UNL     1       7.270  23.215  54.648  1.00  0.00     0.015 A 
HETATM    9  C   UNL     1       8.481  23.574  57.100  1.00  0.00     0.032 A 
HETATM   10  N   UNL     1       8.316  25.897  56.942  1.00  0.00    -0.248 NA
HETATM   11  C   UNL     1       8.280  22.280  56.616  1.00  0.00     0.002 A 
HETATM   12  C   UNL     1       7.668  22.100  55.386  1.00  0.00     0.001 A 
HETATM   13  C   UNL     1       7.945  27.019  56.286  1.00  0.00     0.069 A 
HETATM   14  C   UNL     1       7.382  26.971  55.021  1.00  0.00     0.050 A 
BRANCH  13  15
HETATM   15  C   UNL     1       8.173  28.280  57.013  1.00  0.00    -0.005 A 
HETATM   16  C   UNL     1       9.428  28.903  56.994  1.00  0.00     0.033 A 
HETATM   17  C   UNL     1       9.613  30.080  57.701  1.00  0.00     0.117 A 
HETATM   18  N   UNL     1       8.648  30.680  58.427  1.00  0.00    -0.273 NA
HETATM   19  C   UNL     1       7.450  30.062  58.458  1.00  0.00     0.117 A 
HETATM   20  C   UNL     1       7.168  28.886  57.778  1.00  0.00     0.033 A 
ENDBRANCH  13  15
ENDBRANCH   2   5
BRANCH   1  21
HETATM   21  N   UNL     1       4.265  26.441  53.559  1.00  0.00    -0.291 N 
HETATM   22  H   UNL     1       3.934  26.189  54.481  1.00  0.00     0.183 HD
BRANCH  21  23
HETATM   23  C   UNL     1       4.230  27.748  53.142  1.00  0.00     0.182 C 
HETATM   24  N   UNL     1       4.080  28.695  54.108  1.00  0.00    -0.362 N 
HETATM   25  H   UNL     1       4.049  29.639  53.737  1.00  0.00     0.162 HD
HETATM   26  S   UNL     1       4.279  28.269  51.555  1.00  0.00    -0.040 SA
BRANCH  24  27
HETATM   27  C   UNL     1       4.087  28.585  55.558  1.00  0.00     0.160 C 
BRANCH  27  28
HETATM   28  C   UNL     1       4.215  29.936  56.209  1.00  0.00    -0.041 A 
HETATM   29  C   UNL     1       4.920  30.969  55.574  1.00  0.00     0.009 A 
HETATM   30  C   UNL     1       5.030  32.225  56.173  1.00  0.00     0.001 A 
HETATM   31  C   UNL     1       4.446  32.460  57.416  1.00  0.00     0.000 A 
HETATM   32  C   UNL     1       3.751  31.440  58.061  1.00  0.00     0.001 A 
HETATM   33  C   UNL     1       3.634  30.184  57.462  1.00  0.00     0.009 A 
ENDBRANCH  27  28
ENDBRANCH  24  27
ENDBRANCH  21  23
ENDBRANCH   1  21
TORSDOF 6
ENDMDL
MODEL 8
REMARK VINA RESULT:      -9.4      2.245      9.059
REMARK  6 active torsions:
REMARK  status: ('A' for Active; 'I' for Inactive)
REMARK    1  A    between atoms: C_4  and  C_5 
REMARK    2  A    between atoms: C_5  and  N_6 
REMARK    3  A    between atoms: C_7  and  N_8 
REMARK    4  A    between atoms: N_8  and  N_9 
REMARK       I    between atoms: N_9  and  C_10 
REMARK    5  A    between atoms: C_10  and  C_11 
REMARK    6  A    between atoms: C_19  and  C_20 
ROOT
HETATM    1  N   UNL     1       7.622  27.085  55.657  1.00  0.00    -0.168 NA
HETATM    2  C   UNL     1       7.787  28.450  55.482  1.00  0.00     0.250 C 
HETATM    3  O   UNL     1       8.576  28.859  54.633  1.00  0.00    -0.272 OA
HETATM    4  H   UNL     1       8.280  26.563  55.079  1.00  0.00     0.156 HD
ENDROOT
BRANCH   2   5
HETATM    5  C   UNL     1       7.104  29.403  56.405  1.00  0.00     0.042 A 
HETATM    6  C   UNL     1       5.834  29.934  56.059  1.00  0.00     0.008 A 
HETATM    7  C   UNL     1       5.243  30.803  56.997  1.00  0.00     0.068 A 
HETATM    8  C   UNL     1       5.127  29.669  54.855  1.00  0.00     0.015 A 
HETATM    9  C   UNL     1       3.995  31.348  56.728  1.00  0.00     0.032 A 
HETATM   10  N   UNL     1       5.833  31.144  58.152  1.00  0.00    -0.248 NA
HETATM   11  C   UNL     1       3.304  31.069  55.547  1.00  0.00     0.002 A 
HETATM   12  C   UNL     1       3.874  30.229  54.606  1.00  0.00     0.001 A 
HETATM   13  C   UNL     1       7.053  30.646  58.453  1.00  0.00     0.069 A 
HETATM   14  C   UNL     1       7.698  29.746  57.621  1.00  0.00     0.050 A 
BRANCH  13  15
HETATM   15  C   UNL     1       7.643  31.135  59.712  1.00  0.00    -0.005 A 
HETATM   16  C   UNL     1       8.771  30.513  60.264  1.00  0.00     0.033 A 
HETATM   17  C   UNL     1       9.291  30.987  61.457  1.00  0.00     0.117 A 
HETATM   18  N   UNL     1       8.773  32.027  62.142  1.00  0.00    -0.273 NA
HETATM   19  C   UNL     1       7.675  32.604  61.615  1.00  0.00     0.117 A 
HETATM   20  C   UNL     1       7.087  32.205  60.425  1.00  0.00     0.033 A 
ENDBRANCH  13  15
ENDBRANCH   2   5
BRANCH   1  21
HETATM   21  N   UNL     1       6.327  26.529  55.633  1.00  0.00    -0.291 N 
HETATM   22  H   UNL     1       5.662  26.994  56.239  1.00  0.00     0.183 HD
BRANCH  21  23
HETATM   23  C   UNL     1       5.890  25.751  54.591  1.00  0.00     0.182 C 
HETATM   24  N   UNL     1       6.292  24.451  54.587  1.00  0.00    -0.362 N 
HETATM   25  H   UNL     1       5.948  23.931  53.786  1.00  0.00     0.162 HD
HETATM   26  S   UNL     1       4.977  26.277  53.294  1.00  0.00    -0.040 SA
BRANCH  24  27
HETATM   27  C   UNL     1       7.009  23.673  55.586  1.00  0.00     0.160 C 
BRANCH  27  28
HETATM   28  C   UNL     1       7.583  22.415  54.992  1.00  0.00    -0.041 A 
HETATM   29  C   UNL     1       7.955  21.343  55.817  1.00  0.00     0.009 A 
HETATM   30  C   UNL     1       8.477  20.172  55.266  1.00  0.00     0.001 A 
HETATM   31  C   UNL     1       8.644  20.063  53.887  1.00  0.00     0.000 A 
HETATM   32  C   UNL     1       8.287  21.123  53.057  1.00  0.00     0.001 A 
HETATM   33  C   UNL     1       7.758  22.293  53.605  1.00  0.00     0.009 A 
ENDBRANCH  27  28
ENDBRANCH  24  27
ENDBRANCH  21  23
ENDBRANCH   1  21
TORSDOF 6
ENDMDL
MODEL 9
REMARK VINA RESULT:      -9.3      3.594     10.504
REMARK  6 active torsions:
REMARK  status: ('A' for Active; 'I' for Inactive)
REMARK    1  A    between atoms: C_4  and  C_5 
REMARK    2  A    between atoms: C_5  and  N_6 
REMARK    3  A    between atoms: C_7  and  N_8 
REMARK    4  A    between atoms: N_8  and  N_9 
REMARK       I    between atoms: N_9  and  C_10 
REMARK    5  A    between atoms: C_10  and  C_11 
REMARK    6  A    between atoms: C_19  and  C_20 
ROOT
HETATM    1  N   UNL     1       8.666  30.125  60.479  1.00  0.00    -0.168 NA
HETATM    2  C   UNL     1       8.736  31.458  60.854  1.00  0.00     0.250 C 
HETATM    3  O   UNL     1       9.822  31.942  61.162  1.00  0.00    -0.272 OA
HETATM    4  H   UNL     1       9.569  29.668  60.595  1.00  0.00     0.156 HD
ENDROOT
BRANCH   2   5
HETATM    5  C   UNL     1       7.482  32.253  60.999  1.00  0.00     0.042 A 
HETATM    6  C   UNL     1       7.152  32.829  62.255  1.00  0.00     0.008 A 
HETATM    7  C   UNL     1       5.968  33.590  62.301  1.00  0.00     0.068 A 
HETATM    8  C   UNL     1       7.908  32.693  63.451  1.00  0.00     0.015 A 
HETATM    9  C   UNL     1       5.593  34.192  63.495  1.00  0.00     0.032 A 
HETATM   10  N   UNL     1       5.165  33.761  61.241  1.00  0.00    -0.248 NA
HETATM   11  C   UNL     1       6.351  34.063  64.660  1.00  0.00     0.002 A 
HETATM   12  C   UNL     1       7.511  33.307  64.638  1.00  0.00     0.001 A 
HETATM   13  C   UNL     1       5.484  33.185  60.060  1.00  0.00     0.069 A 
HETATM   14  C   UNL     1       6.652  32.458  59.897  1.00  0.00     0.050 A 
BRANCH  13  15
HETATM   15  C   UNL     1       4.504  33.378  58.978  1.00  0.00    -0.005 A 
HETATM   16  C   UNL     1       4.400  32.452  57.930  1.00  0.00     0.033 A 
HETATM   17  C   UNL     1       3.479  32.671  56.919  1.00  0.00     0.117 A 
HETATM   18  N   UNL     1       2.658  33.740  56.869  1.00  0.00    -0.273 NA
HETATM   19  C   UNL     1       2.780  34.637  57.869  1.00  0.00     0.117 A 
HETATM   20  C   UNL     1       3.667  34.501  58.926  1.00  0.00     0.033 A 
ENDBRANCH  13  15
ENDBRANCH   2   5
BRANCH   1  21
HETATM   21  N   UNL     1       8.036  29.772  59.269  1.00  0.00    -0.291 N 
HETATM   22  H   UNL     1       7.066  30.055  59.205  1.00  0.00     0.183 HD
BRANCH  21  23
HETATM   23  C   UNL     1       8.752  29.489  58.134  1.00  0.00     0.182 C 
HETATM   24  N   UNL     1       8.386  28.377  57.440  1.00  0.00    -0.362 N 
HETATM   25  H   UNL     1       8.961  28.214  56.619  1.00  0.00     0.162 HD
HETATM   26  S   UNL     1      10.076  30.342  57.576  1.00  0.00    -0.040 SA
BRANCH  24  27
HETATM   27  C   UNL     1       7.253  27.480  57.607  1.00  0.00     0.160 C 
BRANCH  27  28
HETATM   28  C   UNL     1       7.512  26.144  56.965  1.00  0.00    -0.041 A 
HETATM   29  C   UNL     1       6.801  25.755  55.820  1.00  0.00     0.009 A 
HETATM   30  C   UNL     1       7.048  24.520  55.217  1.00  0.00     0.001 A 
HETATM   31  C   UNL     1       8.000  23.657  55.757  1.00  0.00     0.000 A 
HETATM   32  C   UNL     1       8.707  24.028  56.899  1.00  0.00     0.001 A 
HETATM   33  C   UNL     1       8.466  25.266  57.500  1.00  0.00     0.009 A 
ENDBRANCH  27  28
ENDBRANCH  24  27
ENDBRANCH  21  23
ENDBRANCH   1  21
TORSDOF 6
ENDMDL
MODEL 10
REMARK VINA RESULT:      -9.2      4.296      5.979
REMARK  6 active torsions:
REMARK  status: ('A' for Active; 'I' for Inactive)
REMARK    1  A    between atoms: C_4  and  C_5 
REMARK    2  A    between atoms: C_5  and  N_6 
REMARK    3  A    between atoms: C_7  and  N_8 
REMARK    4  A    between atoms: N_8  and  N_9 
REMARK       I    between atoms: N_9  and  C_10 
REMARK    5  A    between atoms: C_10  and  C_11 
REMARK    6  A    between atoms: C_19  and  C_20 
ROOT
HETATM    1  N   UNL     1       3.106  30.511  50.939  1.00  0.00    -0.168 NA
HETATM    2  C   UNL     1       4.193  29.973  50.268  1.00  0.00     0.250 C 
HETATM    3  O   UNL     1       4.957  30.720  49.660  1.00  0.00    -0.272 OA
HETATM    4  H   UNL     1       3.030  31.512  50.763  1.00  0.00     0.156 HD
ENDROOT
BRANCH   2   5
HETATM    5  C   UNL     1       4.353  28.492  50.184  1.00  0.00     0.042 A 
HETATM    6  C   UNL     1       3.736  27.774  49.126  1.00  0.00     0.008 A 
HETATM    7  C   UNL     1       3.961  26.384  49.101  1.00  0.00     0.068 A 
HETATM    8  C   UNL     1       2.915  28.338  48.112  1.00  0.00     0.015 A 
HETATM    9  C   UNL     1       3.397  25.622  48.086  1.00  0.00     0.032 A 
HETATM   10  N   UNL     1       4.695  25.743  50.022  1.00  0.00    -0.248 NA
HETATM   11  C   UNL     1       2.603  26.189  47.087  1.00  0.00     0.002 A 
HETATM   12  C   UNL     1       2.359  27.552  47.103  1.00  0.00     0.001 A 
HETATM   13  C   UNL     1       5.255  26.442  51.035  1.00  0.00     0.069 A 
HETATM   14  C   UNL     1       5.135  27.819  51.123  1.00  0.00     0.050 A 
BRANCH  13  15
HETATM   15  C   UNL     1       5.984  25.637  52.030  1.00  0.00    -0.005 A 
HETATM   16  C   UNL     1       5.309  25.036  53.101  1.00  0.00     0.033 A 
HETATM   17  C   UNL     1       6.026  24.299  54.029  1.00  0.00     0.117 A 
HETATM   18  N   UNL     1       7.362  24.119  53.975  1.00  0.00    -0.273 NA
HETATM   19  C   UNL     1       8.007  24.719  52.954  1.00  0.00     0.117 A 
HETATM   20  C   UNL     1       7.374  25.470  51.975  1.00  0.00     0.033 A 
ENDBRANCH  13  15
ENDBRANCH   2   5
BRANCH   1  21
HETATM   21  N   UNL     1       2.893  30.186  52.294  1.00  0.00    -0.291 N 
HETATM   22  H   UNL     1       2.450  29.288  52.444  1.00  0.00     0.183 HD
BRANCH  21  23
HETATM   23  C   UNL     1       3.598  30.789  53.305  1.00  0.00     0.182 C 
HETATM   24  N   UNL     1       4.012  29.990  54.326  1.00  0.00    -0.362 N 
HETATM   25  H   UNL     1       4.516  30.495  55.047  1.00  0.00     0.162 HD
HETATM   26  S   UNL     1       3.925  32.424  53.427  1.00  0.00    -0.040 SA
BRANCH  24  27
HETATM   27  C   UNL     1       3.961  28.545  54.483  1.00  0.00     0.160 C 
BRANCH  27  28
HETATM   28  C   UNL     1       5.232  28.016  55.091  1.00  0.00    -0.041 A 
HETATM   29  C   UNL     1       5.192  27.222  56.247  1.00  0.00     0.009 A 
HETATM   30  C   UNL     1       6.370  26.722  56.806  1.00  0.00     0.001 A 
HETATM   31  C   UNL     1       7.600  27.019  56.222  1.00  0.00     0.000 A 
HETATM   32  C   UNL     1       7.654  27.813  55.079  1.00  0.00     0.001 A 
HETATM   33  C   UNL     1       6.477  28.309  54.515  1.00  0.00     0.009 A 
ENDBRANCH  27  28
ENDBRANCH  24  27
ENDBRANCH  21  23
ENDBRANCH   1  21
TORSDOF 6
ENDMDL
