MODEL 1
REMARK VINA RESULT:     -11.0      0.000      0.000
REMARK  3 active torsions:
REMARK  status: ('A' for Active; 'I' for Inactive)
REMARK    1  A    between atoms: C_2  and  N_3 
REMARK    2  A    between atoms: C_7  and  C_8 
REMARK       I    between atoms: C_8  and  N_9 
REMARK    3  A    between atoms: N_9  and  C_10 
ROOT
HETATM    1  C   UNL     1       7.462  29.197  57.427  1.00  0.00     0.036 A 
HETATM    2  C   UNL     1       8.063  29.748  58.558  1.00  0.00     0.049 A 
HETATM    3  C   UNL     1       7.565  30.930  59.149  1.00  0.00     0.061 A 
HETATM    4  C   UNL     1       6.442  31.562  58.600  1.00  0.00     0.050 A 
HETATM    5  N   UNL     1       5.773  32.679  59.130  1.00  0.00    -0.324 N 
HETATM    6  C   UNL     1       5.644  33.053  60.441  1.00  0.00     0.245 C 
HETATM    7  O   UNL     1       4.839  33.949  60.707  1.00  0.00    -0.271 OA
HETATM    8  C   UNL     1       6.329  32.207  61.512  1.00  0.00     0.180 C 
HETATM    9  N   UNL     1       7.764  32.149  61.284  1.00  0.00    -0.334 N 
HETATM   10  C   UNL     1       8.386  31.491  60.253  1.00  0.00     0.256 C 
HETATM   11  O   UNL     1       9.606  31.345  60.216  1.00  0.00    -0.267 OA
HETATM   12  C   UNL     1       6.191  32.817  62.913  1.00  0.00     0.037 C 
HETATM   13  C   UNL     1       7.510  32.466  63.587  1.00  0.00     0.022 C 
HETATM   14  C   UNL     1       8.507  32.593  62.449  1.00  0.00     0.127 C 
HETATM   15  C   UNL     1       5.901  31.053  57.411  1.00  0.00     0.033 A 
HETATM   16  C   UNL     1       6.397  29.879  56.837  1.00  0.00     0.032 A 
HETATM   17  H   UNL     1       5.116  33.171  58.536  1.00  0.00     0.169 HD
ENDROOT
BRANCH   1  18
HETATM   18  N   UNL     1       7.830  27.963  56.853  1.00  0.00    -0.323 N 
HETATM   19  C   UNL     1       7.776  26.713  57.444  1.00  0.00     0.256 C 
HETATM   20  O   UNL     1       7.587  26.471  58.629  1.00  0.00    -0.267 OA
HETATM   21  H   UNL     1       8.146  27.998  55.892  1.00  0.00     0.169 HD
BRANCH  19  22
HETATM   22  C   UNL     1       7.969  25.566  56.510  1.00  0.00     0.033 A 
HETATM   23  C   UNL     1       7.476  25.611  55.197  1.00  0.00     0.030 A 
HETATM   24  C   UNL     1       7.630  24.488  54.359  1.00  0.00    -0.007 A 
HETATM   25  C   UNL     1       8.257  23.341  54.858  1.00  0.00     0.044 A 
HETATM   26  C   UNL     1       7.252  24.220  53.018  1.00  0.00     0.031 A 
HETATM   27  N   UNL     1       8.239  22.400  53.842  1.00  0.00    -0.352 N 
HETATM   28  C   UNL     1       8.748  23.284  56.173  1.00  0.00     0.031 A 
HETATM   29  C   UNL     1       7.644  22.937  52.723  1.00  0.00     0.092 A 
HETATM   30  C   UNL     1       8.588  24.410  56.990  1.00  0.00     0.019 A 
BRANCH  27  31
HETATM   31  C   UNL     1       8.745  21.030  53.930  1.00  0.00     0.081 C 
HETATM   32  C   UNL     1       8.552  20.274  52.615  1.00  0.00     0.032 C 
HETATM   33  C   UNL     1       8.125  20.274  55.107  1.00  0.00     0.032 C 
ENDBRANCH  27  31
ENDBRANCH  19  22
ENDBRANCH   1  18
TORSDOF 3
ENDMDL
MODEL 2
REMARK VINA RESULT:     -10.4      2.407     10.566
REMARK  3 active torsions:
REMARK  status: ('A' for Active; 'I' for Inactive)
REMARK    1  A    between atoms: C_2  and  N_3 
REMARK    2  A    between atoms: C_7  and  C_8 
REMARK       I    between atoms: C_8  and  N_9 
REMARK    3  A    between atoms: N_9  and  C_10 
ROOT
HETATM    1  C   UNL     1       7.592  27.843  57.515  1.00  0.00     0.036 A 
HETATM    2  C   UNL     1       7.266  28.033  56.173  1.00  0.00     0.049 A 
HETATM    3  C   UNL     1       7.306  26.964  55.251  1.00  0.00     0.061 A 
HETATM    4  C   UNL     1       7.671  25.683  55.687  1.00  0.00     0.050 A 
HETATM    5  N   UNL     1       7.660  24.507  54.918  1.00  0.00    -0.324 N 
HETATM    6  C   UNL     1       6.841  24.181  53.869  1.00  0.00     0.245 C 
HETATM    7  O   UNL     1       6.855  23.015  53.469  1.00  0.00    -0.271 OA
HETATM    8  C   UNL     1       5.810  25.207  53.403  1.00  0.00     0.180 C 
HETATM    9  N   UNL     1       6.458  26.442  52.994  1.00  0.00    -0.334 N 
HETATM   10  C   UNL     1       7.085  27.333  53.829  1.00  0.00     0.256 C 
HETATM   11  O   UNL     1       7.465  28.434  53.438  1.00  0.00    -0.267 OA
HETATM   12  C   UNL     1       5.051  24.744  52.152  1.00  0.00     0.037 C 
HETATM   13  C   UNL     1       4.819  26.033  51.377  1.00  0.00     0.022 C 
HETATM   14  C   UNL     1       6.098  26.809  51.637  1.00  0.00     0.127 C 
HETATM   15  C   UNL     1       8.085  25.521  57.016  1.00  0.00     0.033 A 
HETATM   16  C   UNL     1       8.036  26.584  57.922  1.00  0.00     0.032 A 
HETATM   17  H   UNL     1       8.146  23.694  55.277  1.00  0.00     0.169 HD
ENDROOT
BRANCH   1  18
HETATM   18  N   UNL     1       7.464  28.832  58.512  1.00  0.00    -0.323 N 
HETATM   19  C   UNL     1       8.333  29.877  58.772  1.00  0.00     0.256 C 
HETATM   20  O   UNL     1       9.461  30.021  58.320  1.00  0.00    -0.267 OA
HETATM   21  H   UNL     1       6.630  28.781  59.082  1.00  0.00     0.169 HD
BRANCH  19  22
HETATM   22  C   UNL     1       7.805  30.918  59.702  1.00  0.00     0.033 A 
HETATM   23  C   UNL     1       8.323  31.059  60.998  1.00  0.00     0.030 A 
HETATM   24  C   UNL     1       7.764  32.017  61.868  1.00  0.00    -0.007 A 
HETATM   25  C   UNL     1       6.691  32.799  61.428  1.00  0.00     0.044 A 
HETATM   26  C   UNL     1       8.050  32.396  63.205  1.00  0.00     0.031 A 
HETATM   27  N   UNL     1       6.331  33.617  62.486  1.00  0.00    -0.352 N 
HETATM   28  C   UNL     1       6.162  32.660  60.134  1.00  0.00     0.031 A 
HETATM   29  C   UNL     1       7.163  33.384  63.557  1.00  0.00     0.092 A 
HETATM   30  C   UNL     1       6.731  31.705  59.284  1.00  0.00     0.019 A 
BRANCH  27  31
HETATM   31  C   UNL     1       5.222  34.572  62.496  1.00  0.00     0.081 C 
HETATM   32  C   UNL     1       5.696  35.980  62.860  1.00  0.00     0.032 C 
HETATM   33  C   UNL     1       4.087  34.109  63.410  1.00  0.00     0.032 C 
ENDBRANCH  27  31
ENDBRANCH  19  22
ENDBRANCH   1  18
TORSDOF 3
ENDMDL
MODEL 3
REMARK VINA RESULT:     -10.3      2.587     10.558
REMARK  3 active torsions:
REMARK  status: ('A' for Active; 'I' for Inactive)
REMARK    1  A    between atoms: C_2  and  N_3 
REMARK    2  A    between atoms: C_7  and  C_8 
REMARK       I    between atoms: C_8  and  N_9 
REMARK    3  A    between atoms: N_9  and  C_10 
ROOT
HETATM    1  C   UNL     1       5.630  29.129  56.833  1.00  0.00     0.036 A 
HETATM    2  C   UNL     1       5.941  27.786  56.628  1.00  0.00     0.049 A 
HETATM    3  C   UNL     1       5.768  27.179  55.364  1.00  0.00     0.061 A 
HETATM    4  C   UNL     1       5.283  27.936  54.290  1.00  0.00     0.050 A 
HETATM    5  N   UNL     1       5.154  27.505  52.959  1.00  0.00    -0.324 N 
HETATM    6  C   UNL     1       5.909  26.583  52.283  1.00  0.00     0.245 C 
HETATM    7  O   UNL     1       5.764  26.505  51.061  1.00  0.00    -0.271 OA
HETATM    8  C   UNL     1       7.029  25.867  53.034  1.00  0.00     0.180 C 
HETATM    9  N   UNL     1       6.502  25.144  54.180  1.00  0.00    -0.334 N 
HETATM   10  C   UNL     1       5.992  25.710  55.321  1.00  0.00     0.256 C 
HETATM   11  O   UNL     1       5.718  25.041  56.314  1.00  0.00    -0.267 OA
HETATM   12  C   UNL     1       7.705  24.785  52.180  1.00  0.00     0.037 C 
HETATM   13  C   UNL     1       8.050  23.698  53.188  1.00  0.00     0.022 C 
HETATM   14  C   UNL     1       6.866  23.739  54.137  1.00  0.00     0.127 C 
HETATM   15  C   UNL     1       4.887  29.259  54.528  1.00  0.00     0.033 A 
HETATM   16  C   UNL     1       5.068  29.852  55.781  1.00  0.00     0.032 A 
HETATM   17  H   UNL     1       4.595  28.064  52.325  1.00  0.00     0.169 HD
ENDROOT
BRANCH   1  18
HETATM   18  N   UNL     1       5.883  29.830  58.030  1.00  0.00    -0.323 N 
HETATM   19  C   UNL     1       7.014  30.561  58.351  1.00  0.00     0.256 C 
HETATM   20  O   UNL     1       8.075  30.572  57.741  1.00  0.00    -0.267 OA
HETATM   21  H   UNL     1       5.143  29.813  58.719  1.00  0.00     0.169 HD
BRANCH  19  22
HETATM   22  C   UNL     1       6.888  31.413  59.568  1.00  0.00     0.033 A 
HETATM   23  C   UNL     1       7.787  31.282  60.638  1.00  0.00     0.030 A 
HETATM   24  C   UNL     1       7.606  32.066  61.796  1.00  0.00    -0.007 A 
HETATM   25  C   UNL     1       6.523  32.949  61.864  1.00  0.00     0.044 A 
HETATM   26  C   UNL     1       8.318  32.168  63.019  1.00  0.00     0.031 A 
HETATM   27  N   UNL     1       6.576  33.553  63.109  1.00  0.00    -0.352 N 
HETATM   28  C   UNL     1       5.615  33.082  60.800  1.00  0.00     0.031 A 
HETATM   29  C   UNL     1       7.671  33.092  63.803  1.00  0.00     0.092 A 
HETATM   30  C   UNL     1       5.812  32.297  59.658  1.00  0.00     0.019 A 
BRANCH  27  31
HETATM   31  C   UNL     1       5.611  34.518  63.638  1.00  0.00     0.081 C 
HETATM   32  C   UNL     1       5.899  35.934  63.135  1.00  0.00     0.032 C 
HETATM   33  C   UNL     1       5.543  34.469  65.165  1.00  0.00     0.032 C 
ENDBRANCH  27  31
ENDBRANCH  19  22
ENDBRANCH   1  18
TORSDOF 3
ENDMDL
MODEL 4
REMARK VINA RESULT:     -10.2      7.726     11.142
REMARK  3 active torsions:
REMARK  status: ('A' for Active; 'I' for Inactive)
REMARK    1  A    between atoms: C_2  and  N_3 
REMARK    2  A    between atoms: C_7  and  C_8 
REMARK       I    between atoms: C_8  and  N_9 
REMARK    3  A    between atoms: N_9  and  C_10 
ROOT
HETATM    1  C   UNL     1       3.981  26.269  49.051  1.00  0.00     0.036 A 
HETATM    2  C   UNL     1       3.709  27.563  48.607  1.00  0.00     0.049 A 
HETATM    3  C   UNL     1       2.754  27.804  47.595  1.00  0.00     0.061 A 
HETATM    4  C   UNL     1       2.056  26.730  47.027  1.00  0.00     0.050 A 
HETATM    5  N   UNL     1       1.012  26.817  46.091  1.00  0.00    -0.324 N 
HETATM    6  C   UNL     1       0.087  27.815  45.936  1.00  0.00     0.245 C 
HETATM    7  O   UNL     1      -0.874  27.598  45.193  1.00  0.00    -0.271 OA
HETATM    8  C   UNL     1       0.175  29.039  46.844  1.00  0.00     0.180 C 
HETATM    9  N   UNL     1       1.461  29.701  46.695  1.00  0.00    -0.334 N 
HETATM   10  C   UNL     1       2.671  29.206  47.112  1.00  0.00     0.256 C 
HETATM   11  O   UNL     1       3.692  29.890  47.102  1.00  0.00    -0.267 OA
HETATM   12  C   UNL     1      -0.853  30.117  46.472  1.00  0.00     0.037 C 
HETATM   13  C   UNL     1      -0.123  31.421  46.759  1.00  0.00     0.022 C 
HETATM   14  C   UNL     1       1.302  31.101  46.345  1.00  0.00     0.127 C 
HETATM   15  C   UNL     1       2.403  25.427  47.413  1.00  0.00     0.033 A 
HETATM   16  C   UNL     1       3.345  25.200  48.420  1.00  0.00     0.032 A 
HETATM   17  H   UNL     1       0.738  25.976  45.598  1.00  0.00     0.169 HD
ENDROOT
BRANCH   1  18
HETATM   18  N   UNL     1       4.834  25.962  50.131  1.00  0.00    -0.323 N 
HETATM   19  C   UNL     1       4.902  26.606  51.354  1.00  0.00     0.256 C 
HETATM   20  O   UNL     1       4.380  27.673  51.650  1.00  0.00    -0.267 OA
HETATM   21  H   UNL     1       5.445  25.167  50.002  1.00  0.00     0.169 HD
BRANCH  19  22
HETATM   22  C   UNL     1       5.700  25.896  52.396  1.00  0.00     0.033 A 
HETATM   23  C   UNL     1       6.620  24.896  52.044  1.00  0.00     0.030 A 
HETATM   24  C   UNL     1       7.317  24.209  53.058  1.00  0.00    -0.007 A 
HETATM   25  C   UNL     1       7.067  24.523  54.398  1.00  0.00     0.044 A 
HETATM   26  C   UNL     1       8.287  23.172  53.037  1.00  0.00     0.031 A 
HETATM   27  N   UNL     1       7.856  23.681  55.163  1.00  0.00    -0.352 N 
HETATM   28  C   UNL     1       6.142  25.518  54.759  1.00  0.00     0.031 A 
HETATM   29  C   UNL     1       8.607  22.874  54.339  1.00  0.00     0.092 A 
HETATM   30  C   UNL     1       5.461  26.192  53.739  1.00  0.00     0.019 A 
BRANCH  27  31
HETATM   31  C   UNL     1       7.886  23.623  56.625  1.00  0.00     0.081 C 
HETATM   32  C   UNL     1       8.795  24.704  57.212  1.00  0.00     0.032 C 
HETATM   33  C   UNL     1       8.275  22.231  57.127  1.00  0.00     0.032 C 
ENDBRANCH  27  31
ENDBRANCH  19  22
ENDBRANCH   1  18
TORSDOF 3
ENDMDL
MODEL 5
REMARK VINA RESULT:     -10.1      3.600     10.942
REMARK  3 active torsions:
REMARK  status: ('A' for Active; 'I' for Inactive)
REMARK    1  A    between atoms: C_2  and  N_3 
REMARK    2  A    between atoms: C_7  and  C_8 
REMARK       I    between atoms: C_8  and  N_9 
REMARK    3  A    between atoms: N_9  and  C_10 
ROOT
HETATM    1  C   UNL     1       7.205  30.526  58.476  1.00  0.00     0.036 A 
HETATM    2  C   UNL     1       6.266  30.556  57.447  1.00  0.00     0.049 A 
HETATM    3  C   UNL     1       6.484  29.864  56.235  1.00  0.00     0.061 A 
HETATM    4  C   UNL     1       7.661  29.125  56.059  1.00  0.00     0.050 A 
HETATM    5  N   UNL     1       7.975  28.308  54.960  1.00  0.00    -0.324 N 
HETATM    6  C   UNL     1       7.123  27.603  54.150  1.00  0.00     0.245 C 
HETATM    7  O   UNL     1       7.616  26.781  53.374  1.00  0.00    -0.271 OA
HETATM    8  C   UNL     1       5.621  27.712  54.401  1.00  0.00     0.180 C 
HETATM    9  N   UNL     1       5.177  29.091  54.291  1.00  0.00    -0.334 N 
HETATM   10  C   UNL     1       5.477  30.103  55.169  1.00  0.00     0.256 C 
HETATM   11  O   UNL     1       4.934  31.203  55.103  1.00  0.00    -0.267 OA
HETATM   12  C   UNL     1       4.798  26.962  53.346  1.00  0.00     0.037 C 
HETATM   13  C   UNL     1       3.553  27.823  53.185  1.00  0.00     0.022 C 
HETATM   14  C   UNL     1       4.106  29.231  53.322  1.00  0.00     0.127 C 
HETATM   15  C   UNL     1       8.640  29.176  57.061  1.00  0.00     0.033 A 
HETATM   16  C   UNL     1       8.411  29.858  58.259  1.00  0.00     0.032 A 
HETATM   17  H   UNL     1       8.934  28.001  54.847  1.00  0.00     0.169 HD
ENDROOT
BRANCH   1  18
HETATM   18  N   UNL     1       7.006  31.094  59.751  1.00  0.00    -0.323 N 
HETATM   19  C   UNL     1       7.638  32.205  60.282  1.00  0.00     0.256 C 
HETATM   20  O   UNL     1       8.619  32.777  59.825  1.00  0.00    -0.267 OA
HETATM   21  H   UNL     1       6.304  30.651  60.329  1.00  0.00     0.169 HD
BRANCH  19  22
HETATM   22  C   UNL     1       7.032  32.733  61.539  1.00  0.00     0.033 A 
HETATM   23  C   UNL     1       7.792  32.850  62.713  1.00  0.00     0.030 A 
HETATM   24  C   UNL     1       7.173  33.302  63.897  1.00  0.00    -0.007 A 
HETATM   25  C   UNL     1       5.808  33.610  63.883  1.00  0.00     0.044 A 
HETATM   26  C   UNL     1       7.648  33.524  65.216  1.00  0.00     0.031 A 
HETATM   27  N   UNL     1       5.470  33.990  65.171  1.00  0.00    -0.352 N 
HETATM   28  C   UNL     1       5.039  33.488  62.714  1.00  0.00     0.031 A 
HETATM   29  C   UNL     1       6.587  33.953  65.974  1.00  0.00     0.092 A 
HETATM   30  C   UNL     1       5.671  33.040  61.548  1.00  0.00     0.019 A 
BRANCH  27  31
HETATM   31  C   UNL     1       4.131  34.355  65.636  1.00  0.00     0.081 C 
HETATM   32  C   UNL     1       3.713  35.732  65.119  1.00  0.00     0.032 C 
HETATM   33  C   UNL     1       4.020  34.271  67.159  1.00  0.00     0.032 C 
ENDBRANCH  27  31
ENDBRANCH  19  22
ENDBRANCH   1  18
TORSDOF 3
ENDMDL
MODEL 6
REMARK VINA RESULT:      -9.8      6.487     10.515
REMARK  3 active torsions:
REMARK  status: ('A' for Active; 'I' for Inactive)
REMARK    1  A    between atoms: C_2  and  N_3 
REMARK    2  A    between atoms: C_7  and  C_8 
REMARK       I    between atoms: C_8  and  N_9 
REMARK    3  A    between atoms: N_9  and  C_10 
ROOT
HETATM    1  C   UNL     1       5.276  26.487  52.913  1.00  0.00     0.036 A 
HETATM    2  C   UNL     1       6.025  25.333  52.681  1.00  0.00     0.049 A 
HETATM    3  C   UNL     1       6.850  24.782  53.685  1.00  0.00     0.061 A 
HETATM    4  C   UNL     1       6.917  25.394  54.944  1.00  0.00     0.050 A 
HETATM    5  N   UNL     1       7.607  24.912  56.069  1.00  0.00    -0.324 N 
HETATM    6  C   UNL     1       7.868  23.613  56.417  1.00  0.00     0.245 C 
HETATM    7  O   UNL     1       8.303  23.398  57.551  1.00  0.00    -0.271 OA
HETATM    8  C   UNL     1       7.407  22.499  55.480  1.00  0.00     0.180 C 
HETATM    9  N   UNL     1       8.002  22.654  54.163  1.00  0.00    -0.334 N 
HETATM   10  C   UNL     1       7.707  23.645  53.260  1.00  0.00     0.256 C 
HETATM   11  O   UNL     1       8.125  23.619  52.105  1.00  0.00    -0.267 OA
HETATM   12  C   UNL     1       7.873  21.114  55.947  1.00  0.00     0.037 C 
HETATM   13  C   UNL     1       8.143  20.370  54.647  1.00  0.00     0.022 C 
HETATM   14  C   UNL     1       8.718  21.458  53.758  1.00  0.00     0.127 C 
HETATM   15  C   UNL     1       6.234  26.603  55.137  1.00  0.00     0.033 A 
HETATM   16  C   UNL     1       5.416  27.137  54.139  1.00  0.00     0.032 A 
HETATM   17  H   UNL     1       7.760  25.543  56.846  1.00  0.00     0.169 HD
ENDROOT
BRANCH   1  18
HETATM   18  N   UNL     1       4.347  27.028  52.001  1.00  0.00    -0.323 N 
HETATM   19  C   UNL     1       4.570  28.025  51.068  1.00  0.00     0.256 C 
HETATM   20  O   UNL     1       5.551  28.753  50.996  1.00  0.00    -0.267 OA
HETATM   21  H   UNL     1       3.421  26.620  52.018  1.00  0.00     0.169 HD
BRANCH  19  22
HETATM   22  C   UNL     1       3.483  28.201  50.061  1.00  0.00     0.033 A 
HETATM   23  C   UNL     1       3.212  27.206  49.109  1.00  0.00     0.030 A 
HETATM   24  C   UNL     1       2.214  27.428  48.139  1.00  0.00    -0.007 A 
HETATM   25  C   UNL     1       1.522  28.644  48.133  1.00  0.00     0.044 A 
HETATM   26  C   UNL     1       1.713  26.646  47.066  1.00  0.00     0.031 A 
HETATM   27  N   UNL     1       0.639  28.598  47.067  1.00  0.00    -0.352 N 
HETATM   28  C   UNL     1       1.792  29.648  49.078  1.00  0.00     0.031 A 
HETATM   29  C   UNL     1       0.743  27.382  46.431  1.00  0.00     0.092 A 
HETATM   30  C   UNL     1       2.785  29.409  50.035  1.00  0.00     0.019 A 
BRANCH  27  31
HETATM   31  C   UNL     1      -0.260  29.674  46.648  1.00  0.00     0.081 C 
HETATM   32  C   UNL     1      -1.519  29.125  45.976  1.00  0.00     0.032 C 
HETATM   33  C   UNL     1       0.455  30.689  45.754  1.00  0.00     0.032 C 
ENDBRANCH  27  31
ENDBRANCH  19  22
ENDBRANCH   1  18
TORSDOF 3
ENDMDL
MODEL 7
REMARK VINA RESULT:      -9.8      5.517     10.622
REMARK  3 active torsions:
REMARK  status: ('A' for Active; 'I' for Inactive)
REMARK    1  A    between atoms: C_2  and  N_3 
REMARK    2  A    between atoms: C_7  and  C_8 
REMARK       I    between atoms: C_8  and  N_9 
REMARK    3  A    between atoms: N_9  and  C_10 
ROOT
HETATM    1  C   UNL     1       5.764  27.519  52.639  1.00  0.00     0.036 A 
HETATM    2  C   UNL     1       5.515  28.334  51.536  1.00  0.00     0.049 A 
HETATM    3  C   UNL     1       4.980  27.805  50.341  1.00  0.00     0.061 A 
HETATM    4  C   UNL     1       4.685  26.438  50.257  1.00  0.00     0.050 A 
HETATM    5  N   UNL     1       4.059  25.785  49.181  1.00  0.00    -0.324 N 
HETATM    6  C   UNL     1       3.140  26.286  48.297  1.00  0.00     0.245 C 
HETATM    7  O   UNL     1       2.558  25.489  47.558  1.00  0.00    -0.271 OA
HETATM    8  C   UNL     1       2.730  27.752  48.424  1.00  0.00     0.180 C 
HETATM    9  N   UNL     1       3.885  28.624  48.289  1.00  0.00    -0.334 N 
HETATM   10  C   UNL     1       4.907  28.750  49.196  1.00  0.00     0.256 C 
HETATM   11  O   UNL     1       5.763  29.625  49.095  1.00  0.00    -0.267 OA
HETATM   12  C   UNL     1       1.787  28.193  47.297  1.00  0.00     0.037 C 
HETATM   13  C   UNL     1       2.187  29.639  47.040  1.00  0.00     0.022 C 
HETATM   14  C   UNL     1       3.692  29.604  47.235  1.00  0.00     0.127 C 
HETATM   15  C   UNL     1       5.024  25.612  51.337  1.00  0.00     0.033 A 
HETATM   16  C   UNL     1       5.547  26.146  52.518  1.00  0.00     0.032 A 
HETATM   17  H   UNL     1       4.096  24.774  49.145  1.00  0.00     0.169 HD
ENDROOT
BRANCH   1  18
HETATM   18  N   UNL     1       6.187  27.994  53.898  1.00  0.00    -0.323 N 
HETATM   19  C   UNL     1       7.197  27.480  54.692  1.00  0.00     0.256 C 
HETATM   20  O   UNL     1       7.774  26.410  54.542  1.00  0.00    -0.267 OA
HETATM   21  H   UNL     1       5.711  28.817  54.244  1.00  0.00     0.169 HD
BRANCH  19  22
HETATM   22  C   UNL     1       7.601  28.346  55.837  1.00  0.00     0.033 A 
HETATM   23  C   UNL     1       8.846  28.994  55.850  1.00  0.00     0.030 A 
HETATM   24  C   UNL     1       9.216  29.762  56.972  1.00  0.00    -0.007 A 
HETATM   25  C   UNL     1       8.343  29.851  58.062  1.00  0.00     0.044 A 
HETATM   26  C   UNL     1      10.374  30.519  57.290  1.00  0.00     0.031 A 
HETATM   27  N   UNL     1       8.972  30.630  59.018  1.00  0.00    -0.352 N 
HETATM   28  C   UNL     1       7.097  29.200  58.060  1.00  0.00     0.031 A 
HETATM   29  C   UNL     1      10.195  31.047  58.545  1.00  0.00     0.092 A 
HETATM   30  C   UNL     1       6.745  28.444  56.936  1.00  0.00     0.019 A 
BRANCH  27  31
HETATM   31  C   UNL     1       8.447  30.952  60.346  1.00  0.00     0.081 C 
HETATM   32  C   UNL     1       7.854  32.361  60.389  1.00  0.00     0.032 C 
HETATM   33  C   UNL     1       9.504  30.755  61.434  1.00  0.00     0.032 C 
ENDBRANCH  27  31
ENDBRANCH  19  22
ENDBRANCH   1  18
TORSDOF 3
ENDMDL
MODEL 8
REMARK VINA RESULT:      -9.5      6.921      9.816
REMARK  3 active torsions:
REMARK  status: ('A' for Active; 'I' for Inactive)
REMARK    1  A    between atoms: C_2  and  N_3 
REMARK    2  A    between atoms: C_7  and  C_8 
REMARK       I    between atoms: C_8  and  N_9 
REMARK    3  A    between atoms: N_9  and  C_10 
ROOT
HETATM    1  C   UNL     1       4.776  26.676  49.720  1.00  0.00     0.036 A 
HETATM    2  C   UNL     1       4.751  28.058  49.539  1.00  0.00     0.049 A 
HETATM    3  C   UNL     1       3.897  28.657  48.587  1.00  0.00     0.061 A 
HETATM    4  C   UNL     1       3.049  27.855  47.812  1.00  0.00     0.050 A 
HETATM    5  N   UNL     1       2.077  28.306  46.903  1.00  0.00    -0.324 N 
HETATM    6  C   UNL     1       1.347  29.464  46.940  1.00  0.00     0.245 C 
HETATM    7  O   UNL     1       0.396  29.570  46.161  1.00  0.00    -0.271 OA
HETATM    8  C   UNL     1       1.606  30.454  48.073  1.00  0.00     0.180 C 
HETATM    9  N   UNL     1       2.992  30.892  48.069  1.00  0.00    -0.334 N 
HETATM   10  C   UNL     1       4.079  30.118  48.390  1.00  0.00     0.256 C 
HETATM   11  O   UNL     1       5.203  30.598  48.525  1.00  0.00    -0.267 OA
HETATM   12  C   UNL     1       0.798  31.749  47.914  1.00  0.00     0.037 C 
HETATM   13  C   UNL     1       1.729  32.822  48.460  1.00  0.00     0.022 C 
HETATM   14  C   UNL     1       3.094  32.339  48.002  1.00  0.00     0.127 C 
HETATM   15  C   UNL     1       3.147  26.462  47.936  1.00  0.00     0.033 A 
HETATM   16  C   UNL     1       3.991  25.880  48.885  1.00  0.00     0.032 A 
HETATM   17  H   UNL     1       1.683  27.639  46.250  1.00  0.00     0.169 HD
ENDROOT
BRANCH   1  18
HETATM   18  N   UNL     1       5.514  26.019  50.726  1.00  0.00    -0.323 N 
HETATM   19  C   UNL     1       5.347  26.127  52.095  1.00  0.00     0.256 C 
HETATM   20  O   UNL     1       4.666  26.955  52.686  1.00  0.00    -0.267 OA
HETATM   21  H   UNL     1       6.229  25.379  50.404  1.00  0.00     0.169 HD
BRANCH  19  22
HETATM   22  C   UNL     1       6.086  25.113  52.902  1.00  0.00     0.033 A 
HETATM   23  C   UNL     1       6.184  25.231  54.297  1.00  0.00     0.030 A 
HETATM   24  C   UNL     1       6.935  24.284  55.022  1.00  0.00    -0.007 A 
HETATM   25  C   UNL     1       7.584  23.252  54.335  1.00  0.00     0.044 A 
HETATM   26  C   UNL     1       7.224  24.126  56.402  1.00  0.00     0.031 A 
HETATM   27  N   UNL     1       8.262  22.503  55.283  1.00  0.00    -0.352 N 
HETATM   28  C   UNL     1       7.496  23.130  52.938  1.00  0.00     0.031 A 
HETATM   29  C   UNL     1       8.031  23.023  56.536  1.00  0.00     0.092 A 
HETATM   30  C   UNL     1       6.744  24.079  52.235  1.00  0.00     0.019 A 
BRANCH  27  31
HETATM   31  C   UNL     1       9.118  21.347  55.013  1.00  0.00     0.081 C 
HETATM   32  C   UNL     1       8.629  20.557  53.799  1.00  0.00     0.032 C 
HETATM   33  C   UNL     1       9.260  20.451  56.245  1.00  0.00     0.032 C 
ENDBRANCH  27  31
ENDBRANCH  19  22
ENDBRANCH   1  18
TORSDOF 3
ENDMDL
MODEL 9
REMARK VINA RESULT:      -9.5      7.912     11.126
REMARK  3 active torsions:
REMARK  status: ('A' for Active; 'I' for Inactive)
REMARK    1  A    between atoms: C_2  and  N_3 
REMARK    2  A    between atoms: C_7  and  C_8 
REMARK       I    between atoms: C_8  and  N_9 
REMARK    3  A    between atoms: N_9  and  C_10 
ROOT
HETATM    1  C   UNL     1       3.701  26.440  48.952  1.00  0.00     0.036 A 
HETATM    2  C   UNL     1       3.359  27.774  48.739  1.00  0.00     0.049 A 
HETATM    3  C   UNL     1       2.464  28.146  47.711  1.00  0.00     0.061 A 
HETATM    4  C   UNL     1       1.901  27.160  46.890  1.00  0.00     0.050 A 
HETATM    5  N   UNL     1       0.925  27.361  45.899  1.00  0.00    -0.324 N 
HETATM    6  C   UNL     1      -0.064  28.308  45.854  1.00  0.00     0.245 C 
HETATM    7  O   UNL     1      -0.946  28.178  45.002  1.00  0.00    -0.271 OA
HETATM    8  C   UNL     1      -0.143  29.333  46.983  1.00  0.00     0.180 C 
HETATM    9  N   UNL     1       1.092  30.094  47.076  1.00  0.00    -0.334 N 
HETATM   10  C   UNL     1       2.304  29.608  47.497  1.00  0.00     0.256 C 
HETATM   11  O   UNL     1       3.264  30.345  47.708  1.00  0.00    -0.267 OA
HETATM   12  C   UNL     1      -1.224  30.393  46.732  1.00  0.00     0.037 C 
HETATM   13  C   UNL     1      -0.627  31.661  47.325  1.00  0.00     0.022 C 
HETATM   14  C   UNL     1       0.846  31.522  46.985  1.00  0.00     0.127 C 
HETATM   15  C   UNL     1       2.322  25.833  47.052  1.00  0.00     0.033 A 
HETATM   16  C   UNL     1       3.202  25.475  48.076  1.00  0.00     0.032 A 
HETATM   17  H   UNL     1       0.758  26.616  45.232  1.00  0.00     0.169 HD
ENDROOT
BRANCH   1  18
HETATM   18  N   UNL     1       4.493  25.983  50.026  1.00  0.00    -0.323 N 
HETATM   19  C   UNL     1       5.386  26.722  50.782  1.00  0.00     0.256 C 
HETATM   20  O   UNL     1       5.797  27.849  50.536  1.00  0.00    -0.267 OA
HETATM   21  H   UNL     1       4.373  25.013  50.284  1.00  0.00     0.169 HD
BRANCH  19  22
HETATM   22  C   UNL     1       5.874  26.045  52.018  1.00  0.00     0.033 A 
HETATM   23  C   UNL     1       5.235  26.244  53.252  1.00  0.00     0.030 A 
HETATM   24  C   UNL     1       5.756  25.631  54.409  1.00  0.00    -0.007 A 
HETATM   25  C   UNL     1       6.912  24.848  54.311  1.00  0.00     0.044 A 
HETATM   26  C   UNL     1       5.358  25.634  55.772  1.00  0.00     0.031 A 
HETATM   27  N   UNL     1       7.208  24.407  55.589  1.00  0.00    -0.352 N 
HETATM   28  C   UNL     1       7.562  24.649  53.081  1.00  0.00     0.031 A 
HETATM   29  C   UNL     1       6.259  24.870  56.471  1.00  0.00     0.092 A 
HETATM   30  C   UNL     1       7.029  25.264  51.942  1.00  0.00     0.019 A 
BRANCH  27  31
HETATM   31  C   UNL     1       8.363  23.593  55.972  1.00  0.00     0.081 C 
HETATM   32  C   UNL     1       8.062  22.099  55.851  1.00  0.00     0.032 C 
HETATM   33  C   UNL     1       8.868  23.952  57.370  1.00  0.00     0.032 C 
ENDBRANCH  27  31
ENDBRANCH  19  22
ENDBRANCH   1  18
TORSDOF 3
ENDMDL
MODEL 10
REMARK VINA RESULT:      -9.3      2.940     10.876
REMARK  3 active torsions:
REMARK  status: ('A' for Active; 'I' for Inactive)
REMARK    1  A    between atoms: C_2  and  N_3 
REMARK    2  A    between atoms: C_7  and  C_8 
REMARK       I    between atoms: C_8  and  N_9 
REMARK    3  A    between atoms: N_9  and  C_10 
ROOT
HETATM    1  C   UNL     1       4.927  30.023  57.330  1.00  0.00     0.036 A 
HETATM    2  C   UNL     1       5.246  28.682  57.120  1.00  0.00     0.049 A 
HETATM    3  C   UNL     1       5.239  28.122  55.823  1.00  0.00     0.061 A 
HETATM    4  C   UNL     1       4.913  28.924  54.721  1.00  0.00     0.050 A 
HETATM    5  N   UNL     1       4.960  28.542  53.370  1.00  0.00    -0.324 N 
HETATM    6  C   UNL     1       5.789  27.630  52.770  1.00  0.00     0.245 C 
HETATM    7  O   UNL     1       5.810  27.597  51.537  1.00  0.00    -0.271 OA
HETATM    8  C   UNL     1       6.787  26.869  53.639  1.00  0.00     0.180 C 
HETATM    9  N   UNL     1       6.101  26.116  54.676  1.00  0.00    -0.334 N 
HETATM   10  C   UNL     1       5.448  26.653  55.757  1.00  0.00     0.256 C 
HETATM   11  O   UNL     1       5.033  25.954  56.679  1.00  0.00    -0.267 OA
HETATM   12  C   UNL     1       7.559  25.806  52.846  1.00  0.00     0.037 C 
HETATM   13  C   UNL     1       7.751  24.679  53.850  1.00  0.00     0.022 C 
HETATM   14  C   UNL     1       6.450  24.708  54.631  1.00  0.00     0.127 C 
HETATM   15  C   UNL     1       4.505  30.245  54.952  1.00  0.00     0.033 A 
HETATM   16  C   UNL     1       4.522  30.791  56.238  1.00  0.00     0.032 A 
HETATM   17  H   UNL     1       4.500  29.131  52.687  1.00  0.00     0.169 HD
ENDROOT
BRANCH   1  18
HETATM   18  N   UNL     1       5.024  30.678  58.575  1.00  0.00    -0.323 N 
HETATM   19  C   UNL     1       5.863  31.727  58.907  1.00  0.00     0.256 C 
HETATM   20  O   UNL     1       6.805  32.148  58.249  1.00  0.00    -0.267 OA
HETATM   21  H   UNL     1       4.391  30.356  59.295  1.00  0.00     0.169 HD
BRANCH  19  22
HETATM   22  C   UNL     1       5.555  32.392  60.207  1.00  0.00     0.033 A 
HETATM   23  C   UNL     1       4.236  32.723  60.555  1.00  0.00     0.030 A 
HETATM   24  C   UNL     1       3.988  33.399  61.767  1.00  0.00    -0.007 A 
HETATM   25  C   UNL     1       5.064  33.742  62.594  1.00  0.00     0.044 A 
HETATM   26  C   UNL     1       2.803  33.866  62.392  1.00  0.00     0.031 A 
HETATM   27  N   UNL     1       4.534  34.416  63.681  1.00  0.00    -0.352 N 
HETATM   28  C   UNL     1       6.387  33.420  62.250  1.00  0.00     0.031 A 
HETATM   29  C   UNL     1       3.164  34.477  63.567  1.00  0.00     0.092 A 
HETATM   30  C   UNL     1       6.614  32.747  61.044  1.00  0.00     0.019 A 
BRANCH  27  31
HETATM   31  C   UNL     1       5.297  35.004  64.783  1.00  0.00     0.081 C 
HETATM   32  C   UNL     1       5.463  34.018  65.941  1.00  0.00     0.032 C 
HETATM   33  C   UNL     1       4.683  36.323  65.255  1.00  0.00     0.032 C 
ENDBRANCH  27  31
ENDBRANCH  19  22
ENDBRANCH   1  18
TORSDOF 3
ENDMDL
