MODEL 1
REMARK VINA RESULT:     -10.5      0.000      0.000
REMARK  9 active torsions:
REMARK  status: ('A' for Active; 'I' for Inactive)
REMARK    1  A    between atoms: C_2  and  O_3 
REMARK    2  A    between atoms: O_3  and  C_4 
REMARK    3  A    between atoms: C_7  and  N_8 
REMARK       I    between atoms: N_8  and  C_9 
REMARK    4  A    between atoms: C_9  and  C_10 
REMARK    5  A    between atoms: C_10  and  S_11 
REMARK    6  A    between atoms: S_11  and  C_12 
REMARK    7  A    between atoms: C_16  and  C_17 
REMARK       I    between atoms: C_17  and  N_18 
REMARK    8  A    between atoms: N_18  and  C_19 
REMARK    9  A    between atoms: C_27  and  C_28 
ROOT
HETATM    1  C   UNL     1       7.031  29.620  57.756  1.00  0.00     0.087 C 
HETATM    2  N   UNL     1       7.449  28.420  58.301  1.00  0.00    -0.353 N 
HETATM    3  C   UNL     1       7.170  27.171  57.779  1.00  0.00     0.019 C 
HETATM    4  C   UNL     1       7.901  26.015  58.420  1.00  0.00     0.069 C 
HETATM    5  C   UNL     1       6.286  27.056  56.763  1.00  0.00     0.046 C 
HETATM    6  C   UNL     1       5.502  28.274  56.282  1.00  0.00     0.104 C 
HETATM    7  C   UNL     1       6.063  29.612  56.810  1.00  0.00     0.055 C 
HETATM    8  C   UNL     1       5.361  30.881  56.353  1.00  0.00     0.019 C 
HETATM    9  N   UNL     1       4.779  31.932  55.974  1.00  0.00    -0.096 N 
HETATM   10  H   UNL     1       8.253  28.486  58.931  1.00  0.00     0.166 HD
ENDROOT
BRANCH   1  11
HETATM   11  S   UNL     1       7.739  31.111  58.345  1.00  0.00    -0.102 SA
BRANCH  11  12
HETATM   12  C   UNL     1       9.045  30.476  59.458  1.00  0.00     0.184 C 
BRANCH  12  13
HETATM   13  C   UNL     1       8.682  30.629  60.933  1.00  0.00     0.231 C 
HETATM   14  N   UNL     1       7.680  31.569  61.145  1.00  0.00    -0.327 N 
HETATM   15  H   UNL     1       7.328  32.056  60.330  1.00  0.00     0.169 HD
HETATM   16  O   UNL     1       9.302  30.024  61.807  1.00  0.00    -0.272 OA
BRANCH  14  17
HETATM   17  C   UNL     1       7.242  32.085  62.383  1.00  0.00     0.034 A 
HETATM   18  C   UNL     1       8.074  32.709  63.312  1.00  0.00     0.032 A 
HETATM   19  C   UNL     1       7.531  33.294  64.466  1.00  0.00     0.039 A 
HETATM   20  C   UNL     1       6.156  33.277  64.689  1.00  0.00     0.068 A 
HETATM   21  C   UNL     1       5.330  32.590  63.804  1.00  0.00     0.039 A 
HETATM   22  C   UNL     1       5.874  31.988  62.664  1.00  0.00     0.032 A 
BRANCH  20  23
HETATM   23  O   UNL     1       5.721  33.936  65.808  1.00  0.00    -0.352 OA
BRANCH  23  24
HETATM   24  C   UNL     1       4.304  34.125  65.876  1.00  0.00     0.171 C 
HETATM   25  C   UNL     1       4.034  35.464  66.540  1.00  0.00     0.034 C 
ENDBRANCH  23  24
ENDBRANCH  20  23
ENDBRANCH  14  17
ENDBRANCH  12  13
ENDBRANCH  11  12
ENDBRANCH   1  11
BRANCH   6  26
HETATM   26  C   UNL     1       5.280  28.310  54.771  1.00  0.00    -0.042 A 
HETATM   27  C   UNL     1       6.382  28.321  53.904  1.00  0.00     0.027 A 
HETATM   28  C   UNL     1       6.158  28.361  52.537  1.00  0.00     0.116 A 
HETATM   29  N   UNL     1       4.929  28.393  51.983  1.00  0.00    -0.273 NA
HETATM   30  C   UNL     1       3.878  28.375  52.829  1.00  0.00     0.116 A 
HETATM   31  C   UNL     1       3.999  28.322  54.209  1.00  0.00     0.027 A 
ENDBRANCH   6  26
BRANCH   5  32
HETATM   32  C   UNL     1       6.262  25.762  56.023  1.00  0.00     0.255 C 
HETATM   33  N   UNL     1       7.481  25.317  55.568  1.00  0.00    -0.323 N 
HETATM   34  H   UNL     1       8.310  25.815  55.859  1.00  0.00     0.169 HD
HETATM   35  O   UNL     1       5.194  25.166  55.918  1.00  0.00    -0.268 OA
BRANCH  33  36
HETATM   36  C   UNL     1       7.687  24.146  54.801  1.00  0.00     0.035 A 
HETATM   37  C   UNL     1       7.736  24.139  53.401  1.00  0.00     0.031 A 
HETATM   38  C   UNL     1       7.943  22.949  52.696  1.00  0.00     0.026 A 
HETATM   39  C   UNL     1       8.099  21.754  53.390  1.00  0.00     0.034 A 
HETATM   40 CL   UNL     1       8.342  20.289  52.526  1.00  0.00    -0.084 Cl
HETATM   41  C   UNL     1       8.063  21.745  54.783  1.00  0.00     0.026 A 
HETATM   42  C   UNL     1       7.868  22.940  55.486  1.00  0.00     0.031 A 
ENDBRANCH  33  36
ENDBRANCH   5  32
TORSDOF 9
ENDMDL
MODEL 2
REMARK VINA RESULT:     -10.2      3.961     10.645
REMARK  9 active torsions:
REMARK  status: ('A' for Active; 'I' for Inactive)
REMARK    1  A    between atoms: C_2  and  O_3 
REMARK    2  A    between atoms: O_3  and  C_4 
REMARK    3  A    between atoms: C_7  and  N_8 
REMARK       I    between atoms: N_8  and  C_9 
REMARK    4  A    between atoms: C_9  and  C_10 
REMARK    5  A    between atoms: C_10  and  S_11 
REMARK    6  A    between atoms: S_11  and  C_12 
REMARK    7  A    between atoms: C_16  and  C_17 
REMARK       I    between atoms: C_17  and  N_18 
REMARK    8  A    between atoms: N_18  and  C_19 
REMARK    9  A    between atoms: C_27  and  C_28 
ROOT
HETATM    1  C   UNL     1       5.238  29.661  56.295  1.00  0.00     0.087 C 
HETATM    2  N   UNL     1       6.434  29.338  56.910  1.00  0.00    -0.353 N 
HETATM    3  C   UNL     1       7.049  30.088  57.894  1.00  0.00     0.019 C 
HETATM    4  C   UNL     1       8.235  29.439  58.567  1.00  0.00     0.069 C 
HETATM    5  C   UNL     1       6.574  31.319  58.187  1.00  0.00     0.046 C 
HETATM    6  C   UNL     1       5.454  31.932  57.351  1.00  0.00     0.104 C 
HETATM    7  C   UNL     1       4.742  30.911  56.437  1.00  0.00     0.055 C 
HETATM    8  C   UNL     1       3.589  31.431  55.592  1.00  0.00     0.019 C 
HETATM    9  N   UNL     1       2.635  31.862  54.892  1.00  0.00    -0.096 N 
HETATM   10  H   UNL     1       6.700  28.350  56.851  1.00  0.00     0.166 HD
ENDROOT
BRANCH   1  11
HETATM   11  S   UNL     1       4.434  28.450  55.315  1.00  0.00    -0.102 SA
BRANCH  11  12
HETATM   12  C   UNL     1       5.461  28.470  53.801  1.00  0.00     0.184 C 
BRANCH  12  13
HETATM   13  C   UNL     1       6.678  27.555  53.907  1.00  0.00     0.231 C 
HETATM   14  N   UNL     1       6.350  26.209  53.787  1.00  0.00    -0.327 N 
HETATM   15  H   UNL     1       5.370  25.984  53.673  1.00  0.00     0.169 HD
HETATM   16  O   UNL     1       7.794  28.007  54.158  1.00  0.00    -0.272 OA
BRANCH  14  17
HETATM   17  C   UNL     1       7.194  25.102  54.020  1.00  0.00     0.034 A 
HETATM   18  C   UNL     1       7.777  24.804  55.251  1.00  0.00     0.032 A 
HETATM   19  C   UNL     1       8.508  23.619  55.418  1.00  0.00     0.039 A 
HETATM   20  C   UNL     1       8.645  22.716  54.366  1.00  0.00     0.068 A 
HETATM   21  C   UNL     1       8.131  23.044  53.115  1.00  0.00     0.039 A 
HETATM   22  C   UNL     1       7.419  24.237  52.942  1.00  0.00     0.032 A 
BRANCH  20  23
HETATM   23  O   UNL     1       9.317  21.558  54.652  1.00  0.00    -0.352 OA
BRANCH  23  24
HETATM   24  C   UNL     1       8.502  20.381  54.658  1.00  0.00     0.171 C 
HETATM   25  C   UNL     1       7.913  20.218  56.049  1.00  0.00     0.034 C 
ENDBRANCH  23  24
ENDBRANCH  20  23
ENDBRANCH  14  17
ENDBRANCH  12  13
ENDBRANCH  11  12
ENDBRANCH   1  11
BRANCH   6  26
HETATM   26  C   UNL     1       4.457  32.758  58.161  1.00  0.00    -0.042 A 
HETATM   27  C   UNL     1       3.632  32.128  59.104  1.00  0.00     0.027 A 
HETATM   28  C   UNL     1       2.730  32.895  59.824  1.00  0.00     0.116 A 
HETATM   29  N   UNL     1       2.594  34.228  59.670  1.00  0.00    -0.273 NA
HETATM   30  C   UNL     1       3.399  34.822  58.764  1.00  0.00     0.116 A 
HETATM   31  C   UNL     1       4.341  34.143  58.006  1.00  0.00     0.027 A 
ENDBRANCH   6  26
BRANCH   5  32
HETATM   32  C   UNL     1       7.046  31.949  59.453  1.00  0.00     0.255 C 
HETATM   33  N   UNL     1       6.325  31.626  60.579  1.00  0.00    -0.323 N 
HETATM   34  H   UNL     1       5.619  30.909  60.505  1.00  0.00     0.169 HD
HETATM   35  O   UNL     1       8.052  32.652  59.420  1.00  0.00    -0.268 OA
BRANCH  33  36
HETATM   36  C   UNL     1       6.561  32.145  61.875  1.00  0.00     0.035 A 
HETATM   37  C   UNL     1       7.827  32.174  62.476  1.00  0.00     0.031 A 
HETATM   38  C   UNL     1       7.999  32.700  63.759  1.00  0.00     0.026 A 
HETATM   39  C   UNL     1       6.902  33.199  64.454  1.00  0.00     0.034 A 
HETATM   40 CL   UNL     1       7.110  33.836  66.037  1.00  0.00    -0.084 Cl
HETATM   41  C   UNL     1       5.639  33.187  63.867  1.00  0.00     0.026 A 
HETATM   42  C   UNL     1       5.472  32.671  62.577  1.00  0.00     0.031 A 
ENDBRANCH  33  36
ENDBRANCH   5  32
TORSDOF 9
ENDMDL
MODEL 3
REMARK VINA RESULT:      -9.5      1.772      2.019
REMARK  9 active torsions:
REMARK  status: ('A' for Active; 'I' for Inactive)
REMARK    1  A    between atoms: C_2  and  O_3 
REMARK    2  A    between atoms: O_3  and  C_4 
REMARK    3  A    between atoms: C_7  and  N_8 
REMARK       I    between atoms: N_8  and  C_9 
REMARK    4  A    between atoms: C_9  and  C_10 
REMARK    5  A    between atoms: C_10  and  S_11 
REMARK    6  A    between atoms: S_11  and  C_12 
REMARK    7  A    between atoms: C_16  and  C_17 
REMARK       I    between atoms: C_17  and  N_18 
REMARK    8  A    between atoms: N_18  and  C_19 
REMARK    9  A    between atoms: C_27  and  C_28 
ROOT
HETATM    1  C   UNL     1       5.463  30.324  56.667  1.00  0.00     0.087 C 
HETATM    2  N   UNL     1       6.355  29.463  57.281  1.00  0.00    -0.353 N 
HETATM    3  C   UNL     1       6.789  28.261  56.756  1.00  0.00     0.019 C 
HETATM    4  C   UNL     1       7.917  27.590  57.502  1.00  0.00     0.069 C 
HETATM    5  C   UNL     1       6.198  27.768  55.645  1.00  0.00     0.046 C 
HETATM    6  C   UNL     1       4.975  28.462  55.050  1.00  0.00     0.104 C 
HETATM    7  C   UNL     1       4.739  29.880  55.614  1.00  0.00     0.055 C 
HETATM    8  C   UNL     1       3.559  30.656  55.051  1.00  0.00     0.019 C 
HETATM    9  N   UNL     1       2.581  31.300  54.586  1.00  0.00    -0.096 N 
HETATM   10  H   UNL     1       6.945  29.891  58.001  1.00  0.00     0.166 HD
ENDROOT
BRANCH   1  11
HETATM   11  S   UNL     1       5.273  31.945  57.305  1.00  0.00    -0.102 SA
BRANCH  11  12
HETATM   12  C   UNL     1       6.605  31.999  58.559  1.00  0.00     0.184 C 
BRANCH  12  13
HETATM   13  C   UNL     1       6.088  32.370  59.946  1.00  0.00     0.231 C 
HETATM   14  N   UNL     1       7.093  32.834  60.787  1.00  0.00    -0.327 N 
HETATM   15  H   UNL     1       8.034  32.851  60.412  1.00  0.00     0.169 HD
HETATM   16  O   UNL     1       4.915  32.177  60.261  1.00  0.00    -0.272 OA
BRANCH  14  17
HETATM   17  C   UNL     1       6.999  33.083  62.173  1.00  0.00     0.034 A 
HETATM   18  C   UNL     1       7.684  32.361  63.149  1.00  0.00     0.032 A 
HETATM   19  C   UNL     1       7.619  32.754  64.494  1.00  0.00     0.039 A 
HETATM   20  C   UNL     1       6.888  33.878  64.870  1.00  0.00     0.068 A 
HETATM   21  C   UNL     1       6.141  34.557  63.912  1.00  0.00     0.039 A 
HETATM   22  C   UNL     1       6.189  34.153  62.572  1.00  0.00     0.032 A 
BRANCH  20  23
HETATM   23  O   UNL     1       6.945  34.217  66.195  1.00  0.00    -0.352 OA
BRANCH  23  24
HETATM   24  C   UNL     1       5.671  34.362  66.830  1.00  0.00     0.171 C 
HETATM   25  C   UNL     1       5.902  34.754  68.279  1.00  0.00     0.034 C 
ENDBRANCH  23  24
ENDBRANCH  20  23
ENDBRANCH  14  17
ENDBRANCH  12  13
ENDBRANCH  11  12
ENDBRANCH   1  11
BRANCH   6  26
HETATM   26  C   UNL     1       4.935  28.446  53.524  1.00  0.00    -0.042 A 
HETATM   27  C   UNL     1       4.137  27.506  52.855  1.00  0.00     0.027 A 
HETATM   28  C   UNL     1       4.121  27.505  51.470  1.00  0.00     0.116 A 
HETATM   29  N   UNL     1       4.838  28.361  50.715  1.00  0.00    -0.273 NA
HETATM   30  C   UNL     1       5.597  29.264  51.371  1.00  0.00     0.116 A 
HETATM   31  C   UNL     1       5.668  29.354  52.752  1.00  0.00     0.027 A 
ENDBRANCH   6  26
BRANCH   5  32
HETATM   32  C   UNL     1       6.898  26.661  54.933  1.00  0.00     0.255 C 
HETATM   33  N   UNL     1       6.366  25.407  55.120  1.00  0.00    -0.323 N 
HETATM   34  H   UNL     1       5.488  25.329  55.613  1.00  0.00     0.169 HD
HETATM   35  O   UNL     1       7.845  26.939  54.203  1.00  0.00    -0.268 OA
BRANCH  33  36
HETATM   36  C   UNL     1       6.896  24.209  54.585  1.00  0.00     0.035 A 
HETATM   37  C   UNL     1       7.089  23.994  53.214  1.00  0.00     0.031 A 
HETATM   38  C   UNL     1       7.617  22.788  52.744  1.00  0.00     0.026 A 
HETATM   39  C   UNL     1       7.954  21.785  53.646  1.00  0.00     0.034 A 
HETATM   40 CL   UNL     1       8.593  20.297  53.069  1.00  0.00    -0.084 Cl
HETATM   41  C   UNL     1       7.778  21.985  55.013  1.00  0.00     0.026 A 
HETATM   42  C   UNL     1       7.260  23.198  55.481  1.00  0.00     0.031 A 
ENDBRANCH  33  36
ENDBRANCH   5  32
TORSDOF 9
ENDMDL
MODEL 4
REMARK VINA RESULT:      -9.1      4.139     10.413
REMARK  9 active torsions:
REMARK  status: ('A' for Active; 'I' for Inactive)
REMARK    1  A    between atoms: C_2  and  O_3 
REMARK    2  A    between atoms: O_3  and  C_4 
REMARK    3  A    between atoms: C_7  and  N_8 
REMARK       I    between atoms: N_8  and  C_9 
REMARK    4  A    between atoms: C_9  and  C_10 
REMARK    5  A    between atoms: C_10  and  S_11 
REMARK    6  A    between atoms: S_11  and  C_12 
REMARK    7  A    between atoms: C_16  and  C_17 
REMARK       I    between atoms: C_17  and  N_18 
REMARK    8  A    between atoms: N_18  and  C_19 
REMARK    9  A    between atoms: C_27  and  C_28 
ROOT
HETATM    1  C   UNL     1       4.053  29.590  53.792  1.00  0.00     0.087 C 
HETATM    2  N   UNL     1       4.526  28.762  54.794  1.00  0.00    -0.353 N 
HETATM    3  C   UNL     1       4.935  29.183  56.045  1.00  0.00     0.019 C 
HETATM    4  C   UNL     1       5.214  28.087  57.046  1.00  0.00     0.069 C 
HETATM    5  C   UNL     1       5.061  30.505  56.295  1.00  0.00     0.046 C 
HETATM    6  C   UNL     1       4.883  31.522  55.169  1.00  0.00     0.104 C 
HETATM    7  C   UNL     1       4.237  30.926  53.900  1.00  0.00     0.055 C 
HETATM    8  C   UNL     1       3.993  31.878  52.741  1.00  0.00     0.019 C 
HETATM    9  N   UNL     1       3.792  32.667  51.779  1.00  0.00    -0.096 N 
HETATM   10  H   UNL     1       4.262  27.776  54.703  1.00  0.00     0.166 HD
ENDROOT
BRANCH   1  11
HETATM   11  S   UNL     1       3.272  28.871  52.397  1.00  0.00    -0.102 SA
BRANCH  11  12
HETATM   12  C   UNL     1       4.714  28.423  51.365  1.00  0.00     0.184 C 
BRANCH  12  13
HETATM   13  C   UNL     1       5.097  26.952  51.501  1.00  0.00     0.231 C 
HETATM   14  N   UNL     1       5.839  26.694  52.648  1.00  0.00    -0.327 N 
HETATM   15  H   UNL     1       6.062  27.486  53.239  1.00  0.00     0.169 HD
HETATM   16  O   UNL     1       4.828  26.140  50.617  1.00  0.00    -0.272 OA
BRANCH  14  17
HETATM   17  C   UNL     1       6.504  25.495  52.982  1.00  0.00     0.034 A 
HETATM   18  C   UNL     1       7.525  24.926  52.223  1.00  0.00     0.032 A 
HETATM   19  C   UNL     1       8.207  23.794  52.692  1.00  0.00     0.039 A 
HETATM   20  C   UNL     1       7.890  23.236  53.928  1.00  0.00     0.068 A 
HETATM   21  C   UNL     1       6.823  23.754  54.655  1.00  0.00     0.039 A 
HETATM   22  C   UNL     1       6.127  24.871  54.178  1.00  0.00     0.032 A 
BRANCH  20  23
HETATM   23  O   UNL     1       8.662  22.177  54.326  1.00  0.00    -0.352 OA
BRANCH  23  24
HETATM   24  C   UNL     1       8.022  20.901  54.221  1.00  0.00     0.171 C 
HETATM   25  C   UNL     1       8.270  20.358  52.825  1.00  0.00     0.034 C 
ENDBRANCH  23  24
ENDBRANCH  20  23
ENDBRANCH  14  17
ENDBRANCH  12  13
ENDBRANCH  11  12
ENDBRANCH   1  11
BRANCH   6  26
HETATM   26  C   UNL     1       4.191  32.812  55.604  1.00  0.00    -0.042 A 
HETATM   27  C   UNL     1       2.798  32.838  55.762  1.00  0.00     0.027 A 
HETATM   28  C   UNL     1       2.190  34.021  56.151  1.00  0.00     0.116 A 
HETATM   29  N   UNL     1       2.864  35.164  56.388  1.00  0.00    -0.273 NA
HETATM   30  C   UNL     1       4.205  35.122  56.239  1.00  0.00     0.116 A 
HETATM   31  C   UNL     1       4.906  33.985  55.867  1.00  0.00     0.027 A 
ENDBRANCH   6  26
BRANCH   5  32
HETATM   32  C   UNL     1       5.179  30.922  57.721  1.00  0.00     0.255 C 
HETATM   33  N   UNL     1       6.433  31.327  58.116  1.00  0.00    -0.323 N 
HETATM   34  H   UNL     1       7.147  31.432  57.410  1.00  0.00     0.169 HD
HETATM   35  O   UNL     1       4.168  30.930  58.416  1.00  0.00    -0.268 OA
BRANCH  33  36
HETATM   36  C   UNL     1       6.787  31.715  59.431  1.00  0.00     0.035 A 
HETATM   37  C   UNL     1       6.128  32.728  60.140  1.00  0.00     0.031 A 
HETATM   38  C   UNL     1       6.522  33.067  61.438  1.00  0.00     0.026 A 
HETATM   39  C   UNL     1       7.585  32.397  62.034  1.00  0.00     0.034 A 
HETATM   40 CL   UNL     1       8.079  32.822  63.625  1.00  0.00    -0.084 Cl
HETATM   41  C   UNL     1       8.245  31.382  61.346  1.00  0.00     0.026 A 
HETATM   42  C   UNL     1       7.840  31.035  60.052  1.00  0.00     0.031 A 
ENDBRANCH  33  36
ENDBRANCH   5  32
TORSDOF 9
ENDMDL
MODEL 5
REMARK VINA RESULT:      -9.0      2.614      3.894
REMARK  9 active torsions:
REMARK  status: ('A' for Active; 'I' for Inactive)
REMARK    1  A    between atoms: C_2  and  O_3 
REMARK    2  A    between atoms: O_3  and  C_4 
REMARK    3  A    between atoms: C_7  and  N_8 
REMARK       I    between atoms: N_8  and  C_9 
REMARK    4  A    between atoms: C_9  and  C_10 
REMARK    5  A    between atoms: C_10  and  S_11 
REMARK    6  A    between atoms: S_11  and  C_12 
REMARK    7  A    between atoms: C_16  and  C_17 
REMARK       I    between atoms: C_17  and  N_18 
REMARK    8  A    between atoms: N_18  and  C_19 
REMARK    9  A    between atoms: C_27  and  C_28 
ROOT
HETATM    1  C   UNL     1       4.653  31.315  54.598  1.00  0.00     0.087 C 
HETATM    2  N   UNL     1       5.381  30.650  55.568  1.00  0.00    -0.353 N 
HETATM    3  C   UNL     1       5.924  29.387  55.428  1.00  0.00     0.019 C 
HETATM    4  C   UNL     1       6.852  28.946  56.533  1.00  0.00     0.069 C 
HETATM    5  C   UNL     1       5.601  28.640  54.348  1.00  0.00     0.046 C 
HETATM    6  C   UNL     1       4.545  29.130  53.359  1.00  0.00     0.104 C 
HETATM    7  C   UNL     1       4.188  30.622  53.534  1.00  0.00     0.055 C 
HETATM    8  C   UNL     1       3.167  31.202  52.567  1.00  0.00     0.019 C 
HETATM    9  N   UNL     1       2.321  31.682  51.767  1.00  0.00    -0.096 N 
HETATM   10  H   UNL     1       5.793  31.250  56.290  1.00  0.00     0.166 HD
ENDROOT
BRANCH   1  11
HETATM   11  S   UNL     1       4.323  33.024  54.809  1.00  0.00    -0.102 SA
BRANCH  11  12
HETATM   12  C   UNL     1       2.986  32.983  56.057  1.00  0.00     0.184 C 
BRANCH  12  13
HETATM   13  C   UNL     1       3.472  32.493  57.419  1.00  0.00     0.231 C 
HETATM   14  N   UNL     1       4.309  33.405  58.050  1.00  0.00    -0.327 N 
HETATM   15  H   UNL     1       4.524  34.256  57.547  1.00  0.00     0.169 HD
HETATM   16  O   UNL     1       3.191  31.367  57.827  1.00  0.00    -0.272 OA
BRANCH  14  17
HETATM   17  C   UNL     1       5.072  33.194  59.219  1.00  0.00     0.034 A 
HETATM   18  C   UNL     1       6.202  32.379  59.283  1.00  0.00     0.032 A 
HETATM   19  C   UNL     1       6.965  32.321  60.459  1.00  0.00     0.039 A 
HETATM   20  C   UNL     1       6.618  33.089  61.568  1.00  0.00     0.068 A 
HETATM   21  C   UNL     1       5.450  33.845  61.535  1.00  0.00     0.039 A 
HETATM   22  C   UNL     1       4.677  33.887  60.369  1.00  0.00     0.032 A 
BRANCH  20  23
HETATM   23  O   UNL     1       7.467  33.014  62.640  1.00  0.00    -0.352 OA
BRANCH  23  24
HETATM   24  C   UNL     1       6.821  32.789  63.897  1.00  0.00     0.171 C 
HETATM   25  C   UNL     1       7.366  33.794  64.898  1.00  0.00     0.034 C 
ENDBRANCH  23  24
ENDBRANCH  20  23
ENDBRANCH  14  17
ENDBRANCH  12  13
ENDBRANCH  11  12
ENDBRANCH   1  11
BRANCH   6  26
HETATM   26  C   UNL     1       4.855  28.788  51.904  1.00  0.00    -0.042 A 
HETATM   27  C   UNL     1       4.405  27.576  51.361  1.00  0.00     0.027 A 
HETATM   28  C   UNL     1       4.703  27.282  50.040  1.00  0.00     0.116 A 
HETATM   29  N   UNL     1       5.410  28.100  49.235  1.00  0.00    -0.273 NA
HETATM   30  C   UNL     1       5.830  29.266  49.768  1.00  0.00     0.116 A 
HETATM   31  C   UNL     1       5.571  29.656  51.073  1.00  0.00     0.027 A 
ENDBRANCH   6  26
BRANCH   5  32
HETATM   32  C   UNL     1       6.445  27.444  54.069  1.00  0.00     0.255 C 
HETATM   33  N   UNL     1       5.856  26.229  54.335  1.00  0.00    -0.323 N 
HETATM   34  H   UNL     1       4.877  26.217  54.580  1.00  0.00     0.169 HD
HETATM   35  O   UNL     1       7.559  27.612  53.581  1.00  0.00    -0.268 OA
BRANCH  33  36
HETATM   36  C   UNL     1       6.487  24.970  54.195  1.00  0.00     0.035 A 
HETATM   37  C   UNL     1       6.870  24.173  55.281  1.00  0.00     0.031 A 
HETATM   38  C   UNL     1       7.490  22.936  55.080  1.00  0.00     0.026 A 
HETATM   39  C   UNL     1       7.734  22.489  53.787  1.00  0.00     0.034 A 
HETATM   40 CL   UNL     1       8.506  20.974  53.538  1.00  0.00    -0.084 Cl
HETATM   41  C   UNL     1       7.351  23.265  52.695  1.00  0.00     0.026 A 
HETATM   42  C   UNL     1       6.720  24.497  52.899  1.00  0.00     0.031 A 
ENDBRANCH  33  36
ENDBRANCH   5  32
TORSDOF 9
ENDMDL
MODEL 6
REMARK VINA RESULT:      -8.7      6.645     10.747
REMARK  9 active torsions:
REMARK  status: ('A' for Active; 'I' for Inactive)
REMARK    1  A    between atoms: C_2  and  O_3 
REMARK    2  A    between atoms: O_3  and  C_4 
REMARK    3  A    between atoms: C_7  and  N_8 
REMARK       I    between atoms: N_8  and  C_9 
REMARK    4  A    between atoms: C_9  and  C_10 
REMARK    5  A    between atoms: C_10  and  S_11 
REMARK    6  A    between atoms: S_11  and  C_12 
REMARK    7  A    between atoms: C_16  and  C_17 
REMARK       I    between atoms: C_17  and  N_18 
REMARK    8  A    between atoms: N_18  and  C_19 
REMARK    9  A    between atoms: C_27  and  C_28 
ROOT
HETATM    1  C   UNL     1       4.549  29.204  52.671  1.00  0.00     0.087 C 
HETATM    2  N   UNL     1       4.679  30.569  52.489  1.00  0.00    -0.353 N 
HETATM    3  C   UNL     1       4.593  31.221  51.274  1.00  0.00     0.019 C 
HETATM    4  C   UNL     1       4.557  32.729  51.340  1.00  0.00     0.069 C 
HETATM    5  C   UNL     1       4.552  30.498  50.132  1.00  0.00     0.046 C 
HETATM    6  C   UNL     1       4.732  28.982  50.173  1.00  0.00     0.104 C 
HETATM    7  C   UNL     1       4.612  28.388  51.593  1.00  0.00     0.055 C 
HETATM    8  C   UNL     1       4.745  26.879  51.720  1.00  0.00     0.019 C 
HETATM    9  N   UNL     1       4.857  25.628  51.826  1.00  0.00    -0.096 N 
HETATM   10  H   UNL     1       4.517  31.135  53.328  1.00  0.00     0.166 HD
ENDROOT
BRANCH   1  11
HETATM   11  S   UNL     1       4.354  28.579  54.296  1.00  0.00    -0.102 SA
BRANCH  11  12
HETATM   12  C   UNL     1       6.040  28.798  54.973  1.00  0.00     0.184 C 
BRANCH  12  13
HETATM   13  C   UNL     1       6.969  27.641  54.615  1.00  0.00     0.231 C 
HETATM   14  N   UNL     1       6.472  26.408  55.020  1.00  0.00    -0.327 N 
HETATM   15  H   UNL     1       5.589  26.409  55.516  1.00  0.00     0.169 HD
HETATM   16  O   UNL     1       8.068  27.844  54.101  1.00  0.00    -0.272 OA
BRANCH  14  17
HETATM   17  C   UNL     1       7.151  25.171  55.014  1.00  0.00     0.034 A 
HETATM   18  C   UNL     1       7.103  24.254  53.965  1.00  0.00     0.032 A 
HETATM   19  C   UNL     1       7.903  23.102  53.996  1.00  0.00     0.039 A 
HETATM   20  C   UNL     1       8.769  22.869  55.062  1.00  0.00     0.068 A 
HETATM   21  C   UNL     1       8.765  23.741  56.146  1.00  0.00     0.039 A 
HETATM   22  C   UNL     1       7.951  24.880  56.125  1.00  0.00     0.032 A 
BRANCH  20  23
HETATM   23  O   UNL     1       9.556  21.753  54.964  1.00  0.00    -0.352 OA
BRANCH  23  24
HETATM   24  C   UNL     1       8.836  20.524  54.823  1.00  0.00     0.171 C 
HETATM   25  C   UNL     1       8.160  20.214  56.147  1.00  0.00     0.034 C 
ENDBRANCH  23  24
ENDBRANCH  20  23
ENDBRANCH  14  17
ENDBRANCH  12  13
ENDBRANCH  11  12
ENDBRANCH   1  11
BRANCH   6  26
HETATM   26  C   UNL     1       3.863  28.229  49.168  1.00  0.00    -0.042 A 
HETATM   27  C   UNL     1       2.467  28.238  49.307  1.00  0.00     0.027 A 
HETATM   28  C   UNL     1       1.698  27.542  48.388  1.00  0.00     0.116 A 
HETATM   29  N   UNL     1       2.216  26.845  47.357  1.00  0.00    -0.273 NA
HETATM   30  C   UNL     1       3.560  26.851  47.231  1.00  0.00     0.116 A 
HETATM   31  C   UNL     1       4.413  27.527  48.090  1.00  0.00     0.027 A 
ENDBRANCH   6  26
BRANCH   5  32
HETATM   32  C   UNL     1       4.134  31.208  48.890  1.00  0.00     0.255 C 
HETATM   33  N   UNL     1       5.104  31.327  47.922  1.00  0.00    -0.323 N 
HETATM   34  H   UNL     1       5.975  30.836  48.056  1.00  0.00     0.169 HD
HETATM   35  O   UNL     1       2.969  31.581  48.791  1.00  0.00    -0.268 OA
BRANCH  33  36
HETATM   36  C   UNL     1       4.946  32.004  46.689  1.00  0.00     0.035 A 
HETATM   37  C   UNL     1       5.379  33.318  46.470  1.00  0.00     0.031 A 
HETATM   38  C   UNL     1       5.195  33.936  45.229  1.00  0.00     0.026 A 
HETATM   39  C   UNL     1       4.571  33.242  44.198  1.00  0.00     0.034 A 
HETATM   40 CL   UNL     1       4.334  34.004  42.676  1.00  0.00    -0.084 Cl
HETATM   41  C   UNL     1       4.143  31.932  44.397  1.00  0.00     0.026 A 
HETATM   42  C   UNL     1       4.339  31.312  45.636  1.00  0.00     0.031 A 
ENDBRANCH  33  36
ENDBRANCH   5  32
TORSDOF 9
ENDMDL
MODEL 7
REMARK VINA RESULT:      -8.7      7.104     10.061
REMARK  9 active torsions:
REMARK  status: ('A' for Active; 'I' for Inactive)
REMARK    1  A    between atoms: C_2  and  O_3 
REMARK    2  A    between atoms: O_3  and  C_4 
REMARK    3  A    between atoms: C_7  and  N_8 
REMARK       I    between atoms: N_8  and  C_9 
REMARK    4  A    between atoms: C_9  and  C_10 
REMARK    5  A    between atoms: C_10  and  S_11 
REMARK    6  A    between atoms: S_11  and  C_12 
REMARK    7  A    between atoms: C_16  and  C_17 
REMARK       I    between atoms: C_17  and  N_18 
REMARK    8  A    between atoms: N_18  and  C_19 
REMARK    9  A    between atoms: C_27  and  C_28 
ROOT
HETATM    1  C   UNL     1       2.007  31.068  50.710  1.00  0.00     0.087 C 
HETATM    2  N   UNL     1       2.489  30.966  52.003  1.00  0.00    -0.353 N 
HETATM    3  C   UNL     1       3.303  29.952  52.470  1.00  0.00     0.019 C 
HETATM    4  C   UNL     1       3.875  30.155  53.852  1.00  0.00     0.069 C 
HETATM    5  C   UNL     1       3.531  28.871  51.692  1.00  0.00     0.046 C 
HETATM    6  C   UNL     1       2.793  28.705  50.365  1.00  0.00     0.104 C 
HETATM    7  C   UNL     1       2.088  29.994  49.891  1.00  0.00     0.055 C 
HETATM    8  C   UNL     1       1.355  29.928  48.561  1.00  0.00     0.019 C 
HETATM    9  N   UNL     1       0.747  29.872  47.459  1.00  0.00    -0.096 N 
HETATM   10  H   UNL     1       2.494  31.842  52.534  1.00  0.00     0.166 HD
ENDROOT
BRANCH   1  11
HETATM   11  S   UNL     1       1.268  32.572  50.197  1.00  0.00    -0.102 SA
BRANCH  11  12
HETATM   12  C   UNL     1       1.043  33.430  51.797  1.00  0.00     0.184 C 
BRANCH  12  13
HETATM   13  C   UNL     1      -0.424  33.718  52.106  1.00  0.00     0.231 C 
HETATM   14  N   UNL     1      -1.039  32.683  52.801  1.00  0.00    -0.327 N 
HETATM   15  H   UNL     1      -0.477  31.865  52.999  1.00  0.00     0.169 HD
HETATM   16  O   UNL     1      -0.975  34.734  51.685  1.00  0.00    -0.272 OA
BRANCH  14  17
HETATM   17  C   UNL     1      -2.416  32.543  53.078  1.00  0.00     0.034 A 
HETATM   18  C   UNL     1      -3.070  33.162  54.143  1.00  0.00     0.032 A 
HETATM   19  C   UNL     1      -4.462  33.058  54.273  1.00  0.00     0.039 A 
HETATM   20  C   UNL     1      -5.212  32.354  53.333  1.00  0.00     0.068 A 
HETATM   21  C   UNL     1      -4.557  31.671  52.312  1.00  0.00     0.039 A 
HETATM   22  C   UNL     1      -3.165  31.757  52.194  1.00  0.00     0.032 A 
BRANCH  20  23
HETATM   23  O   UNL     1      -6.569  32.371  53.512  1.00  0.00    -0.352 OA
BRANCH  23  24
HETATM   24  C   UNL     1      -7.309  32.915  52.414  1.00  0.00     0.171 C 
HETATM   25  C   UNL     1      -7.677  34.349  52.752  1.00  0.00     0.034 C 
ENDBRANCH  23  24
ENDBRANCH  20  23
ENDBRANCH  14  17
ENDBRANCH  12  13
ENDBRANCH  11  12
ENDBRANCH   1  11
BRANCH   6  26
HETATM   26  C   UNL     1       3.641  28.084  49.258  1.00  0.00    -0.042 A 
HETATM   27  C   UNL     1       3.410  26.758  48.862  1.00  0.00     0.027 A 
HETATM   28  C   UNL     1       4.196  26.212  47.860  1.00  0.00     0.116 A 
HETATM   29  N   UNL     1       5.184  26.884  47.237  1.00  0.00    -0.273 NA
HETATM   30  C   UNL     1       5.391  28.160  47.623  1.00  0.00     0.116 A 
HETATM   31  C   UNL     1       4.650  28.799  48.605  1.00  0.00     0.027 A 
ENDBRANCH   6  26
BRANCH   5  32
HETATM   32  C   UNL     1       4.655  27.973  52.084  1.00  0.00     0.255 C 
HETATM   33  N   UNL     1       4.285  26.784  52.669  1.00  0.00    -0.323 N 
HETATM   34  H   UNL     1       3.305  26.543  52.685  1.00  0.00     0.169 HD
HETATM   35  O   UNL     1       5.802  28.318  51.818  1.00  0.00    -0.268 OA
BRANCH  33  36
HETATM   36  C   UNL     1       5.181  25.806  53.164  1.00  0.00     0.035 A 
HETATM   37  C   UNL     1       5.840  24.878  52.347  1.00  0.00     0.031 A 
HETATM   38  C   UNL     1       6.715  23.935  52.894  1.00  0.00     0.026 A 
HETATM   39  C   UNL     1       6.935  23.912  54.267  1.00  0.00     0.034 A 
HETATM   40 CL   UNL     1       8.001  22.746  54.943  1.00  0.00    -0.084 Cl
HETATM   41  C   UNL     1       6.295  24.834  55.093  1.00  0.00     0.026 A 
HETATM   42  C   UNL     1       5.429  25.785  54.541  1.00  0.00     0.031 A 
ENDBRANCH  33  36
ENDBRANCH   5  32
TORSDOF 9
ENDMDL
MODEL 8
REMARK VINA RESULT:      -8.6      7.142     11.094
REMARK  9 active torsions:
REMARK  status: ('A' for Active; 'I' for Inactive)
REMARK    1  A    between atoms: C_2  and  O_3 
REMARK    2  A    between atoms: O_3  and  C_4 
REMARK    3  A    between atoms: C_7  and  N_8 
REMARK       I    between atoms: N_8  and  C_9 
REMARK    4  A    between atoms: C_9  and  C_10 
REMARK    5  A    between atoms: C_10  and  S_11 
REMARK    6  A    between atoms: S_11  and  C_12 
REMARK    7  A    between atoms: C_16  and  C_17 
REMARK       I    between atoms: C_17  and  N_18 
REMARK    8  A    between atoms: N_18  and  C_19 
REMARK    9  A    between atoms: C_27  and  C_28 
ROOT
HETATM    1  C   UNL     1       1.954  31.007  50.634  1.00  0.00     0.087 C 
HETATM    2  N   UNL     1       2.422  30.917  51.933  1.00  0.00    -0.353 N 
HETATM    3  C   UNL     1       3.245  29.916  52.413  1.00  0.00     0.019 C 
HETATM    4  C   UNL     1       3.798  30.133  53.801  1.00  0.00     0.069 C 
HETATM    5  C   UNL     1       3.497  28.834  51.643  1.00  0.00     0.046 C 
HETATM    6  C   UNL     1       2.776  28.653  50.309  1.00  0.00     0.104 C 
HETATM    7  C   UNL     1       2.059  29.931  49.821  1.00  0.00     0.055 C 
HETATM    8  C   UNL     1       1.342  29.848  48.483  1.00  0.00     0.019 C 
HETATM    9  N   UNL     1       0.748  29.779  47.374  1.00  0.00    -0.096 N 
HETATM   10  H   UNL     1       2.409  31.795  52.460  1.00  0.00     0.166 HD
ENDROOT
BRANCH   1  11
HETATM   11  S   UNL     1       1.201  32.498  50.105  1.00  0.00    -0.102 SA
BRANCH  11  12
HETATM   12  C   UNL     1       2.485  33.726  50.541  1.00  0.00     0.184 C 
BRANCH  12  13
HETATM   13  C   UNL     1       3.304  34.172  49.333  1.00  0.00     0.231 C 
HETATM   14  N   UNL     1       4.327  33.284  49.022  1.00  0.00    -0.327 N 
HETATM   15  H   UNL     1       4.435  32.478  49.625  1.00  0.00     0.169 HD
HETATM   16  O   UNL     1       3.093  35.252  48.784  1.00  0.00    -0.272 OA
BRANCH  14  17
HETATM   17  C   UNL     1       5.373  33.479  48.095  1.00  0.00     0.034 A 
HETATM   18  C   UNL     1       5.349  33.026  46.776  1.00  0.00     0.032 A 
HETATM   19  C   UNL     1       6.384  33.367  45.893  1.00  0.00     0.039 A 
HETATM   20  C   UNL     1       7.437  34.177  46.313  1.00  0.00     0.068 A 
HETATM   21  C   UNL     1       7.505  34.568  47.647  1.00  0.00     0.039 A 
HETATM   22  C   UNL     1       6.483  34.211  48.534  1.00  0.00     0.032 A 
BRANCH  20  23
HETATM   23  O   UNL     1       8.358  34.509  45.356  1.00  0.00    -0.352 OA
BRANCH  23  24
HETATM   24  C   UNL     1       8.363  35.892  44.987  1.00  0.00     0.171 C 
HETATM   25  C   UNL     1       7.557  36.046  43.709  1.00  0.00     0.034 C 
ENDBRANCH  23  24
ENDBRANCH  20  23
ENDBRANCH  14  17
ENDBRANCH  12  13
ENDBRANCH  11  12
ENDBRANCH   1  11
BRANCH   6  26
HETATM   26  C   UNL     1       3.645  28.038  49.214  1.00  0.00    -0.042 A 
HETATM   27  C   UNL     1       3.449  26.703  48.834  1.00  0.00     0.027 A 
HETATM   28  C   UNL     1       4.254  26.163  47.844  1.00  0.00     0.116 A 
HETATM   29  N   UNL     1       5.229  26.851  47.217  1.00  0.00    -0.273 NA
HETATM   30  C   UNL     1       5.402  28.137  47.587  1.00  0.00     0.116 A 
HETATM   31  C   UNL     1       4.640  28.770  48.557  1.00  0.00     0.027 A 
ENDBRANCH   6  26
BRANCH   5  32
HETATM   32  C   UNL     1       4.628  27.954  52.052  1.00  0.00     0.255 C 
HETATM   33  N   UNL     1       4.270  26.795  52.701  1.00  0.00    -0.323 N 
HETATM   34  H   UNL     1       3.290  26.558  52.751  1.00  0.00     0.169 HD
HETATM   35  O   UNL     1       5.769  28.283  51.744  1.00  0.00    -0.268 OA
BRANCH  33  36
HETATM   36  C   UNL     1       5.176  25.840  53.223  1.00  0.00     0.035 A 
HETATM   37  C   UNL     1       5.524  25.766  54.578  1.00  0.00     0.031 A 
HETATM   38  C   UNL     1       6.425  24.800  55.035  1.00  0.00     0.026 A 
HETATM   39  C   UNL     1       6.989  23.902  54.135  1.00  0.00     0.034 A 
HETATM   40 CL   UNL     1       8.106  22.721  54.694  1.00  0.00    -0.084 Cl
HETATM   41  C   UNL     1       6.647  23.956  52.786  1.00  0.00     0.026 A 
HETATM   42  C   UNL     1       5.735  24.916  52.333  1.00  0.00     0.031 A 
ENDBRANCH  33  36
ENDBRANCH   5  32
TORSDOF 9
ENDMDL
MODEL 9
REMARK VINA RESULT:      -8.4      2.676      3.091
REMARK  9 active torsions:
REMARK  status: ('A' for Active; 'I' for Inactive)
REMARK    1  A    between atoms: C_2  and  O_3 
REMARK    2  A    between atoms: O_3  and  C_4 
REMARK    3  A    between atoms: C_7  and  N_8 
REMARK       I    between atoms: N_8  and  C_9 
REMARK    4  A    between atoms: C_9  and  C_10 
REMARK    5  A    between atoms: C_10  and  S_11 
REMARK    6  A    between atoms: S_11  and  C_12 
REMARK    7  A    between atoms: C_16  and  C_17 
REMARK       I    between atoms: C_17  and  N_18 
REMARK    8  A    between atoms: N_18  and  C_19 
REMARK    9  A    between atoms: C_27  and  C_28 
ROOT
HETATM    1  C   UNL     1       5.539  30.200  56.366  1.00  0.00     0.087 C 
HETATM    2  N   UNL     1       6.422  29.360  57.021  1.00  0.00    -0.353 N 
HETATM    3  C   UNL     1       6.869  28.145  56.538  1.00  0.00     0.019 C 
HETATM    4  C   UNL     1       7.986  27.500  57.322  1.00  0.00     0.069 C 
HETATM    5  C   UNL     1       6.300  27.618  55.431  1.00  0.00     0.046 C 
HETATM    6  C   UNL     1       5.085  28.290  54.795  1.00  0.00     0.104 C 
HETATM    7  C   UNL     1       4.835  29.722  55.314  1.00  0.00     0.055 C 
HETATM    8  C   UNL     1       3.663  30.478  54.708  1.00  0.00     0.019 C 
HETATM    9  N   UNL     1       2.691  31.104  54.207  1.00  0.00    -0.096 N 
HETATM   10  H   UNL     1       6.999  29.811  57.738  1.00  0.00     0.166 HD
ENDROOT
BRANCH   1  11
HETATM   11  S   UNL     1       5.332  31.838  56.953  1.00  0.00    -0.102 SA
BRANCH  11  12
HETATM   12  C   UNL     1       3.974  31.621  58.160  1.00  0.00     0.184 C 
BRANCH  12  13
HETATM   13  C   UNL     1       4.237  32.351  59.474  1.00  0.00     0.231 C 
HETATM   14  N   UNL     1       3.202  33.211  59.826  1.00  0.00    -0.327 N 
HETATM   15  H   UNL     1       2.424  33.280  59.183  1.00  0.00     0.169 HD
HETATM   16  O   UNL     1       5.303  32.221  60.073  1.00  0.00    -0.272 OA
BRANCH  14  17
HETATM   17  C   UNL     1       3.202  34.163  60.868  1.00  0.00     0.034 A 
HETATM   18  C   UNL     1       3.167  33.844  62.224  1.00  0.00     0.032 A 
HETATM   19  C   UNL     1       3.287  34.853  63.191  1.00  0.00     0.039 A 
HETATM   20  C   UNL     1       3.464  36.182  62.811  1.00  0.00     0.068 A 
HETATM   21  C   UNL     1       3.424  36.515  61.461  1.00  0.00     0.039 A 
HETATM   22  C   UNL     1       3.282  35.511  60.496  1.00  0.00     0.032 A 
BRANCH  20  23
HETATM   23  O   UNL     1       3.641  37.080  63.830  1.00  0.00    -0.352 OA
BRANCH  23  24
HETATM   24  C   UNL     1       4.948  37.069  64.413  1.00  0.00     0.171 C 
HETATM   25  C   UNL     1       5.791  38.120  63.711  1.00  0.00     0.034 C 
ENDBRANCH  23  24
ENDBRANCH  20  23
ENDBRANCH  14  17
ENDBRANCH  12  13
ENDBRANCH  11  12
ENDBRANCH   1  11
BRANCH   6  26
HETATM   26  C   UNL     1       5.073  28.229  53.269  1.00  0.00    -0.042 A 
HETATM   27  C   UNL     1       5.668  29.258  52.525  1.00  0.00     0.027 A 
HETATM   28  C   UNL     1       5.639  29.187  51.142  1.00  0.00     0.116 A 
HETATM   29  N   UNL     1       5.065  28.177  50.458  1.00  0.00    -0.273 NA
HETATM   30  C   UNL     1       4.502  27.190  51.187  1.00  0.00     0.116 A 
HETATM   31  C   UNL     1       4.491  27.165  52.573  1.00  0.00     0.027 A 
ENDBRANCH   6  26
BRANCH   5  32
HETATM   32  C   UNL     1       7.016  26.493  54.765  1.00  0.00     0.255 C 
HETATM   33  N   UNL     1       6.474  25.245  54.964  1.00  0.00    -0.323 N 
HETATM   34  H   UNL     1       5.582  25.181  55.433  1.00  0.00     0.169 HD
HETATM   35  O   UNL     1       7.984  26.752  54.055  1.00  0.00    -0.268 OA
BRANCH  33  36
HETATM   36  C   UNL     1       7.014  24.034  54.471  1.00  0.00     0.035 A 
HETATM   37  C   UNL     1       7.313  23.815  53.120  1.00  0.00     0.031 A 
HETATM   38  C   UNL     1       7.847  22.596  52.692  1.00  0.00     0.026 A 
HETATM   39  C   UNL     1       8.082  21.583  53.615  1.00  0.00     0.034 A 
HETATM   40 CL   UNL     1       8.728  20.080  53.088  1.00  0.00    -0.084 Cl
HETATM   41  C   UNL     1       7.800  21.788  54.963  1.00  0.00     0.026 A 
HETATM   42  C   UNL     1       7.278  23.013  55.391  1.00  0.00     0.031 A 
ENDBRANCH  33  36
ENDBRANCH   5  32
TORSDOF 9
ENDMDL
MODEL 10
REMARK VINA RESULT:      -8.4      5.412     12.003
REMARK  9 active torsions:
REMARK  status: ('A' for Active; 'I' for Inactive)
REMARK    1  A    between atoms: C_2  and  O_3 
REMARK    2  A    between atoms: O_3  and  C_4 
REMARK    3  A    between atoms: C_7  and  N_8 
REMARK       I    between atoms: N_8  and  C_9 
REMARK    4  A    between atoms: C_9  and  C_10 
REMARK    5  A    between atoms: C_10  and  S_11 
REMARK    6  A    between atoms: S_11  and  C_12 
REMARK    7  A    between atoms: C_16  and  C_17 
REMARK       I    between atoms: C_17  and  N_18 
REMARK    8  A    between atoms: N_18  and  C_19 
REMARK    9  A    between atoms: C_27  and  C_28 
ROOT
HETATM    1  C   UNL     1       4.951  28.808  52.718  1.00  0.00     0.087 C 
HETATM    2  N   UNL     1       4.678  30.056  53.247  1.00  0.00    -0.353 N 
HETATM    3  C   UNL     1       4.704  30.373  54.591  1.00  0.00     0.019 C 
HETATM    4  C   UNL     1       4.578  31.841  54.921  1.00  0.00     0.069 C 
HETATM    5  C   UNL     1       4.834  29.385  55.505  1.00  0.00     0.046 C 
HETATM    6  C   UNL     1       4.817  27.923  55.067  1.00  0.00     0.104 C 
HETATM    7  C   UNL     1       4.987  27.737  53.544  1.00  0.00     0.055 C 
HETATM    8  C   UNL     1       5.014  26.308  53.024  1.00  0.00     0.019 C 
HETATM    9  N   UNL     1       5.037  25.124  52.594  1.00  0.00    -0.096 N 
HETATM   10  H   UNL     1       4.769  30.836  52.588  1.00  0.00     0.166 HD
ENDROOT
BRANCH   1  11
HETATM   11  S   UNL     1       5.196  28.654  50.989  1.00  0.00    -0.102 SA
BRANCH  11  12
HETATM   12  C   UNL     1       4.576  30.268  50.391  1.00  0.00     0.184 C 
BRANCH  12  13
HETATM   13  C   UNL     1       3.164  30.177  49.818  1.00  0.00     0.231 C 
HETATM   14  N   UNL     1       3.011  29.116  48.934  1.00  0.00    -0.327 N 
HETATM   15  H   UNL     1       3.830  28.551  48.748  1.00  0.00     0.169 HD
HETATM   16  O   UNL     1       2.316  31.030  50.079  1.00  0.00    -0.272 OA
BRANCH  14  17
HETATM   17  C   UNL     1       1.905  28.858  48.096  1.00  0.00     0.034 A 
HETATM   18  C   UNL     1       1.327  29.800  47.245  1.00  0.00     0.032 A 
HETATM   19  C   UNL     1       0.305  29.422  46.363  1.00  0.00     0.039 A 
HETATM   20  C   UNL     1      -0.133  28.101  46.309  1.00  0.00     0.068 A 
HETATM   21  C   UNL     1       0.386  27.173  47.208  1.00  0.00     0.039 A 
HETATM   22  C   UNL     1       1.392  27.555  48.104  1.00  0.00     0.032 A 
BRANCH  20  23
HETATM   23  O   UNL     1      -1.086  27.821  45.366  1.00  0.00    -0.352 OA
BRANCH  23  24
HETATM   24  C   UNL     1      -1.142  28.751  44.280  1.00  0.00     0.171 C 
HETATM   25  C   UNL     1      -1.198  27.965  42.982  1.00  0.00     0.034 C 
ENDBRANCH  23  24
ENDBRANCH  20  23
ENDBRANCH  14  17
ENDBRANCH  12  13
ENDBRANCH  11  12
ENDBRANCH   1  11
BRANCH   6  26
HETATM   26  C   UNL     1       5.771  27.029  55.856  1.00  0.00    -0.042 A 
HETATM   27  C   UNL     1       5.260  26.002  56.663  1.00  0.00     0.027 A 
HETATM   28  C   UNL     1       6.143  25.207  57.376  1.00  0.00     0.116 A 
HETATM   29  N   UNL     1       7.482  25.365  57.344  1.00  0.00    -0.273 NA
HETATM   30  C   UNL     1       7.960  26.353  56.558  1.00  0.00     0.116 A 
HETATM   31  C   UNL     1       7.160  27.191  55.798  1.00  0.00     0.027 A 
ENDBRANCH   6  26
BRANCH   5  32
HETATM   32  C   UNL     1       5.186  29.786  56.897  1.00  0.00     0.255 C 
HETATM   33  N   UNL     1       6.455  30.288  57.066  1.00  0.00    -0.323 N 
HETATM   34  H   UNL     1       7.012  30.465  56.243  1.00  0.00     0.169 HD
HETATM   35  O   UNL     1       4.326  29.696  57.769  1.00  0.00    -0.268 OA
BRANCH  33  36
HETATM   36  C   UNL     1       7.018  30.681  58.304  1.00  0.00     0.035 A 
HETATM   37  C   UNL     1       8.075  30.001  58.921  1.00  0.00     0.031 A 
HETATM   38  C   UNL     1       8.591  30.437  60.146  1.00  0.00     0.026 A 
HETATM   39  C   UNL     1       8.047  31.557  60.763  1.00  0.00     0.034 A 
HETATM   40 CL   UNL     1       8.672  32.088  62.274  1.00  0.00    -0.084 Cl
HETATM   41  C   UNL     1       7.002  32.251  60.158  1.00  0.00     0.026 A 
HETATM   42  C   UNL     1       6.496  31.820  58.927  1.00  0.00     0.031 A 
ENDBRANCH  33  36
ENDBRANCH   5  32
TORSDOF 9
ENDMDL
