MODEL 1
REMARK VINA RESULT:      -9.4      0.000      0.000
REMARK  8 active torsions:
REMARK  status: ('A' for Active; 'I' for Inactive)
REMARK    1  A    between atoms: C_8  and  C_9 
REMARK       I    between atoms: C_9  and  N_10 
REMARK    2  A    between atoms: N_10  and  N_11 
REMARK    3  A    between atoms: N_11  and  C_12 
REMARK    4  A    between atoms: C_12  and  N_13 
REMARK    5  A    between atoms: N_13  and  C_14 
REMARK    6  A    between atoms: C_15  and  O_16 
REMARK    7  A    between atoms: C_19  and  O_20 
REMARK    8  A    between atoms: C_26  and  C_27 
ROOT
HETATM    1  C   UNL     1       7.389  25.648  57.276  1.00  0.00     0.275 C 
HETATM    2  N   UNL     1       6.116  26.059  56.927  1.00  0.00    -0.263 N 
HETATM    3  O   UNL     1       8.113  26.300  58.026  1.00  0.00    -0.266 OA
HETATM    4  H   UNL     1       5.719  25.690  56.064  1.00  0.00     0.190 HD
ENDROOT
BRANCH   2   5
HETATM    5  N   UNL     1       5.707  27.361  57.275  1.00  0.00    -0.273 N 
HETATM    6  H   UNL     1       5.812  27.583  58.267  1.00  0.00     0.189 HD
BRANCH   5   7
HETATM    7  C   UNL     1       5.826  28.396  56.346  1.00  0.00     0.191 C 
HETATM    8  S   UNL     1       4.573  28.820  55.310  1.00  0.00    -0.039 SA
BRANCH   7   9
HETATM    9  N   UNL     1       7.048  29.030  56.491  1.00  0.00    -0.330 N 
HETATM   10  H   UNL     1       7.805  28.622  55.950  1.00  0.00     0.168 HD
BRANCH   9  11
HETATM   11  C   UNL     1       7.513  29.933  57.478  1.00  0.00     0.068 A 
HETATM   12  C   UNL     1       8.903  29.965  57.718  1.00  0.00     0.097 A 
HETATM   13  C   UNL     1       9.430  30.846  58.671  1.00  0.00     0.075 A 
HETATM   14  C   UNL     1       8.584  31.704  59.378  1.00  0.00     0.070 A 
HETATM   15  C   UNL     1       7.216  31.695  59.106  1.00  0.00     0.039 A 
HETATM   16  C   UNL     1       6.681  30.820  58.159  1.00  0.00     0.035 A 
BRANCH  12  17
HETATM   17  O   UNL     1       9.647  29.087  56.962  1.00  0.00    -0.354 OA
HETATM   18  C   UNL     1      11.014  29.415  56.742  1.00  0.00     0.210 C 
ENDBRANCH  12  17
BRANCH  14  19
HETATM   19  O   UNL     1       8.965  32.607  60.332  1.00  0.00    -0.356 OA
HETATM   20  C   UNL     1       9.558  32.085  61.515  1.00  0.00     0.210 C 
ENDBRANCH  14  19
ENDBRANCH   9  11
ENDBRANCH   7   9
ENDBRANCH   5   7
ENDBRANCH   2   5
BRANCH   1  21
HETATM   21  C   UNL     1       7.818  24.424  56.631  1.00  0.00     0.098 A 
HETATM   22  C   UNL     1       7.899  24.119  55.284  1.00  0.00     0.138 A 
HETATM   23  N   UNL     1       7.581  24.788  54.148  1.00  0.00    -0.370 N 
HETATM   24  N   UNL     1       8.394  22.836  55.216  1.00  0.00    -0.240 N 
HETATM   25  C   UNL     1       8.078  24.323  52.857  1.00  0.00     0.081 C 
HETATM   26  H   UNL     1       7.051  25.660  54.144  1.00  0.00     0.161 HD
HETATM   27  C   UNL     1       7.292  24.991  51.735  1.00  0.00     0.032 C 
HETATM   28  C   UNL     1       7.946  22.800  52.796  1.00  0.00     0.061 C 
HETATM   29  C   UNL     1       8.689  22.139  53.975  1.00  0.00     0.221 C 
HETATM   30  N   UNL     1       8.690  22.311  56.415  1.00  0.00    -0.181 NA
HETATM   31  C   UNL     1       8.293  23.256  57.272  1.00  0.00     0.160 A 
BRANCH  29  32
HETATM   32  C   UNL     1       8.329  20.670  54.039  1.00  0.00     0.409 C 
HETATM   33  F   UNL     1       7.179  20.446  54.715  1.00  0.00    -0.169 F 
HETATM   34  F   UNL     1       8.128  20.200  52.776  1.00  0.00    -0.169 F 
HETATM   35  F   UNL     1       9.297  19.896  54.571  1.00  0.00    -0.169 F 
ENDBRANCH  29  32
ENDBRANCH   1  21
TORSDOF 8
ENDMDL
MODEL 2
REMARK VINA RESULT:      -9.4      4.784      9.201
REMARK  8 active torsions:
REMARK  status: ('A' for Active; 'I' for Inactive)
REMARK    1  A    between atoms: C_8  and  C_9 
REMARK       I    between atoms: C_9  and  N_10 
REMARK    2  A    between atoms: N_10  and  N_11 
REMARK    3  A    between atoms: N_11  and  C_12 
REMARK    4  A    between atoms: C_12  and  N_13 
REMARK    5  A    between atoms: N_13  and  C_14 
REMARK    6  A    between atoms: C_15  and  O_16 
REMARK    7  A    between atoms: C_19  and  O_20 
REMARK    8  A    between atoms: C_26  and  C_27 
ROOT
HETATM    1  C   UNL     1       6.480  29.954  56.238  1.00  0.00     0.275 C 
HETATM    2  N   UNL     1       7.008  28.960  55.436  1.00  0.00    -0.263 N 
HETATM    3  O   UNL     1       5.560  30.681  55.871  1.00  0.00    -0.266 OA
HETATM    4  H   UNL     1       7.957  28.645  55.634  1.00  0.00     0.190 HD
ENDROOT
BRANCH   2   5
HETATM    5  N   UNL     1       6.622  28.907  54.082  1.00  0.00    -0.273 N 
HETATM    6  H   UNL     1       6.980  29.676  53.513  1.00  0.00     0.189 HD
BRANCH   5   7
HETATM    7  C   UNL     1       6.411  27.669  53.470  1.00  0.00     0.191 C 
HETATM    8  S   UNL     1       5.039  27.344  52.557  1.00  0.00    -0.039 SA
BRANCH   7   9
HETATM    9  N   UNL     1       7.510  26.849  53.660  1.00  0.00    -0.330 N 
HETATM   10  H   UNL     1       8.405  27.285  53.460  1.00  0.00     0.168 HD
BRANCH   9  11
HETATM   11  C   UNL     1       7.606  25.442  53.776  1.00  0.00     0.068 A 
HETATM   12  C   UNL     1       7.476  24.891  55.069  1.00  0.00     0.097 A 
HETATM   13  C   UNL     1       7.547  23.503  55.251  1.00  0.00     0.075 A 
HETATM   14  C   UNL     1       7.735  22.660  54.154  1.00  0.00     0.070 A 
HETATM   15  C   UNL     1       7.822  23.208  52.874  1.00  0.00     0.039 A 
HETATM   16  C   UNL     1       7.753  24.589  52.682  1.00  0.00     0.035 A 
BRANCH  12  17
HETATM   17  O   UNL     1       7.286  25.808  56.078  1.00  0.00    -0.354 OA
HETATM   18  C   UNL     1       8.176  25.749  57.186  1.00  0.00     0.210 C 
ENDBRANCH  12  17
BRANCH  14  19
HETATM   19  O   UNL     1       7.824  21.296  54.191  1.00  0.00    -0.356 OA
HETATM   20  C   UNL     1       8.114  20.634  52.967  1.00  0.00     0.210 C 
ENDBRANCH  14  19
ENDBRANCH   9  11
ENDBRANCH   7   9
ENDBRANCH   5   7
ENDBRANCH   2   5
BRANCH   1  21
HETATM   21  C   UNL     1       7.148  30.106  57.514  1.00  0.00     0.098 A 
HETATM   22  C   UNL     1       6.840  30.939  58.575  1.00  0.00     0.138 A 
HETATM   23  N   UNL     1       5.898  31.892  58.779  1.00  0.00    -0.370 N 
HETATM   24  N   UNL     1       7.772  30.667  59.552  1.00  0.00    -0.240 N 
HETATM   25  C   UNL     1       5.628  32.382  60.127  1.00  0.00     0.081 C 
HETATM   26  H   UNL     1       5.303  32.257  58.035  1.00  0.00     0.161 HD
HETATM   27  C   UNL     1       4.832  33.680  60.051  1.00  0.00     0.032 C 
HETATM   28  C   UNL     1       6.958  32.590  60.854  1.00  0.00     0.061 C 
HETATM   29  C   UNL     1       7.783  31.287  60.867  1.00  0.00     0.221 C 
HETATM   30  N   UNL     1       8.623  29.683  59.222  1.00  0.00    -0.181 NA
HETATM   31  C   UNL     1       8.274  29.380  57.969  1.00  0.00     0.160 A 
BRANCH  29  32
HETATM   32  C   UNL     1       9.186  31.582  61.354  1.00  0.00     0.409 C 
HETATM   33  F   UNL     1       9.927  32.241  60.435  1.00  0.00    -0.169 F 
HETATM   34  F   UNL     1       9.122  32.393  62.447  1.00  0.00    -0.169 F 
HETATM   35  F   UNL     1       9.866  30.486  61.747  1.00  0.00    -0.169 F 
ENDBRANCH  29  32
ENDBRANCH   1  21
TORSDOF 8
ENDMDL
MODEL 3
REMARK VINA RESULT:      -9.2      1.990      2.943
REMARK  8 active torsions:
REMARK  status: ('A' for Active; 'I' for Inactive)
REMARK    1  A    between atoms: C_8  and  C_9 
REMARK       I    between atoms: C_9  and  N_10 
REMARK    2  A    between atoms: N_10  and  N_11 
REMARK    3  A    between atoms: N_11  and  C_12 
REMARK    4  A    between atoms: C_12  and  N_13 
REMARK    5  A    between atoms: N_13  and  C_14 
REMARK    6  A    between atoms: C_15  and  O_16 
REMARK    7  A    between atoms: C_19  and  O_20 
REMARK    8  A    between atoms: C_26  and  C_27 
ROOT
HETATM    1  C   UNL     1       7.469  26.668  56.951  1.00  0.00     0.275 C 
HETATM    2  N   UNL     1       8.520  27.533  57.187  1.00  0.00    -0.263 N 
HETATM    3  O   UNL     1       6.298  26.976  57.161  1.00  0.00    -0.266 OA
HETATM    4  H   UNL     1       9.444  27.127  57.335  1.00  0.00     0.190 HD
ENDROOT
BRANCH   2   5
HETATM    5  N   UNL     1       8.266  28.732  57.881  1.00  0.00    -0.273 N 
HETATM    6  H   UNL     1       7.762  28.609  58.761  1.00  0.00     0.189 HD
BRANCH   5   7
HETATM    7  C   UNL     1       9.160  29.799  57.771  1.00  0.00     0.191 C 
HETATM    8  S   UNL     1      10.622  29.663  56.953  1.00  0.00    -0.039 SA
BRANCH   7   9
HETATM    9  N   UNL     1       8.616  30.939  58.337  1.00  0.00    -0.330 N 
HETATM   10  H   UNL     1       8.479  31.710  57.690  1.00  0.00     0.168 HD
BRANCH   9  11
HETATM   11  C   UNL     1       8.506  31.341  59.690  1.00  0.00     0.068 A 
HETATM   12  C   UNL     1       7.430  32.190  60.024  1.00  0.00     0.097 A 
HETATM   13  C   UNL     1       7.255  32.614  61.349  1.00  0.00     0.075 A 
HETATM   14  C   UNL     1       8.137  32.187  62.344  1.00  0.00     0.070 A 
HETATM   15  C   UNL     1       9.174  31.314  62.014  1.00  0.00     0.039 A 
HETATM   16  C   UNL     1       9.357  30.888  60.697  1.00  0.00     0.035 A 
BRANCH  12  17
HETATM   17  O   UNL     1       6.616  32.545  58.971  1.00  0.00    -0.354 OA
HETATM   18  C   UNL     1       5.286  32.943  59.284  1.00  0.00     0.210 C 
ENDBRANCH  12  17
BRANCH  14  19
HETATM   19  O   UNL     1       8.083  32.524  63.668  1.00  0.00    -0.356 OA
HETATM   20  C   UNL     1       7.079  33.453  64.058  1.00  0.00     0.210 C 
ENDBRANCH  14  19
ENDBRANCH   9  11
ENDBRANCH   7   9
ENDBRANCH   5   7
ENDBRANCH   2   5
BRANCH   1  21
HETATM   21  C   UNL     1       7.871  25.351  56.500  1.00  0.00     0.098 A 
HETATM   22  C   UNL     1       7.880  24.822  55.221  1.00  0.00     0.138 A 
HETATM   23  N   UNL     1       7.493  25.289  54.009  1.00  0.00    -0.370 N 
HETATM   24  N   UNL     1       8.381  23.546  55.344  1.00  0.00    -0.240 N 
HETATM   25  C   UNL     1       7.921  24.610  52.789  1.00  0.00     0.081 C 
HETATM   26  H   UNL     1       6.956  26.147  53.887  1.00  0.00     0.161 HD
HETATM   27  C   UNL     1       7.068  25.078  51.616  1.00  0.00     0.032 C 
HETATM   28  C   UNL     1       7.798  23.099  52.995  1.00  0.00     0.061 C 
HETATM   29  C   UNL     1       8.612  22.647  54.225  1.00  0.00     0.221 C 
HETATM   30  N   UNL     1       8.747  23.231  56.596  1.00  0.00    -0.181 NA
HETATM   31  C   UNL     1       8.392  24.308  57.302  1.00  0.00     0.160 A 
BRANCH  29  32
HETATM   32  C   UNL     1       8.268  21.210  54.558  1.00  0.00     0.409 C 
HETATM   33  F   UNL     1       7.212  21.110  55.397  1.00  0.00    -0.169 F 
HETATM   34  F   UNL     1       7.914  20.556  53.417  1.00  0.00    -0.169 F 
HETATM   35  F   UNL     1       9.298  20.512  55.079  1.00  0.00    -0.169 F 
ENDBRANCH  29  32
ENDBRANCH   1  21
TORSDOF 8
ENDMDL
MODEL 4
REMARK VINA RESULT:      -8.8      3.025      5.153
REMARK  8 active torsions:
REMARK  status: ('A' for Active; 'I' for Inactive)
REMARK    1  A    between atoms: C_8  and  C_9 
REMARK       I    between atoms: C_9  and  N_10 
REMARK    2  A    between atoms: N_10  and  N_11 
REMARK    3  A    between atoms: N_11  and  C_12 
REMARK    4  A    between atoms: C_12  and  N_13 
REMARK    5  A    between atoms: N_13  and  C_14 
REMARK    6  A    between atoms: C_15  and  O_16 
REMARK    7  A    between atoms: C_19  and  O_20 
REMARK    8  A    between atoms: C_26  and  C_27 
ROOT
HETATM    1  C   UNL     1       7.214  25.532  57.275  1.00  0.00     0.275 C 
HETATM    2  N   UNL     1       5.900  25.839  56.980  1.00  0.00    -0.263 N 
HETATM    3  O   UNL     1       7.920  26.251  57.979  1.00  0.00    -0.266 OA
HETATM    4  H   UNL     1       5.492  25.424  56.143  1.00  0.00     0.190 HD
ENDROOT
BRANCH   2   5
HETATM    5  N   UNL     1       5.409  27.113  57.325  1.00  0.00    -0.273 N 
HETATM    6  H   UNL     1       5.538  27.360  58.308  1.00  0.00     0.189 HD
BRANCH   5   7
HETATM    7  C   UNL     1       5.413  28.137  56.376  1.00  0.00     0.191 C 
HETATM    8  S   UNL     1       6.633  29.291  56.307  1.00  0.00    -0.039 SA
BRANCH   7   9
HETATM    9  N   UNL     1       4.352  27.981  55.500  1.00  0.00    -0.330 N 
HETATM   10  H   UNL     1       3.630  27.340  55.818  1.00  0.00     0.168 HD
BRANCH   9  11
HETATM   11  C   UNL     1       4.230  28.297  54.126  1.00  0.00     0.068 A 
HETATM   12  C   UNL     1       4.525  27.272  53.201  1.00  0.00     0.097 A 
HETATM   13  C   UNL     1       4.411  27.513  51.826  1.00  0.00     0.075 A 
HETATM   14  C   UNL     1       3.994  28.764  51.366  1.00  0.00     0.070 A 
HETATM   15  C   UNL     1       3.665  29.759  52.285  1.00  0.00     0.039 A 
HETATM   16  C   UNL     1       3.776  29.529  53.658  1.00  0.00     0.035 A 
BRANCH  12  17
HETATM   17  O   UNL     1       4.919  26.076  53.760  1.00  0.00    -0.354 OA
HETATM   18  C   UNL     1       4.478  24.884  53.120  1.00  0.00     0.210 C 
ENDBRANCH  12  17
BRANCH  14  19
HETATM   19  O   UNL     1       3.843  29.132  50.057  1.00  0.00    -0.356 OA
HETATM   20  C   UNL     1       2.550  28.974  49.486  1.00  0.00     0.210 C 
ENDBRANCH  14  19
ENDBRANCH   9  11
ENDBRANCH   7   9
ENDBRANCH   5   7
ENDBRANCH   2   5
BRANCH   1  21
HETATM   21  C   UNL     1       7.704  24.330  56.631  1.00  0.00     0.098 A 
HETATM   22  C   UNL     1       7.887  24.063  55.285  1.00  0.00     0.138 A 
HETATM   23  N   UNL     1       7.644  24.759  54.148  1.00  0.00    -0.370 N 
HETATM   24  N   UNL     1       8.402  22.788  55.220  1.00  0.00    -0.240 N 
HETATM   25  C   UNL     1       8.238  24.335  52.885  1.00  0.00     0.081 C 
HETATM   26  H   UNL     1       7.103  25.625  54.128  1.00  0.00     0.161 HD
HETATM   27  C   UNL     1       7.527  25.024  51.726  1.00  0.00     0.032 C 
HETATM   28  C   UNL     1       8.131  22.812  52.774  1.00  0.00     0.061 C 
HETATM   29  C   UNL     1       8.795  22.128  53.985  1.00  0.00     0.221 C 
HETATM   30  N   UNL     1       8.617  22.234  56.423  1.00  0.00    -0.181 NA
HETATM   31  C   UNL     1       8.147  23.150  57.274  1.00  0.00     0.160 A 
BRANCH  29  32
HETATM   32  C   UNL     1       8.450  20.654  53.985  1.00  0.00     0.409 C 
HETATM   33  F   UNL     1       7.222  20.407  54.494  1.00  0.00    -0.169 F 
HETATM   34  F   UNL     1       8.432  20.196  52.702  1.00  0.00    -0.169 F 
HETATM   35  F   UNL     1       9.347  19.886  54.638  1.00  0.00    -0.169 F 
ENDBRANCH  29  32
ENDBRANCH   1  21
TORSDOF 8
ENDMDL
MODEL 5
REMARK VINA RESULT:      -8.6      1.268      2.204
REMARK  8 active torsions:
REMARK  status: ('A' for Active; 'I' for Inactive)
REMARK    1  A    between atoms: C_8  and  C_9 
REMARK       I    between atoms: C_9  and  N_10 
REMARK    2  A    between atoms: N_10  and  N_11 
REMARK    3  A    between atoms: N_11  and  C_12 
REMARK    4  A    between atoms: C_12  and  N_13 
REMARK    5  A    between atoms: N_13  and  C_14 
REMARK    6  A    between atoms: C_15  and  O_16 
REMARK    7  A    between atoms: C_19  and  O_20 
REMARK    8  A    between atoms: C_26  and  C_27 
ROOT
HETATM    1  C   UNL     1       7.425  25.661  57.278  1.00  0.00     0.275 C 
HETATM    2  N   UNL     1       6.227  26.168  56.812  1.00  0.00    -0.263 N 
HETATM    3  O   UNL     1       8.106  26.241  58.121  1.00  0.00    -0.266 OA
HETATM    4  H   UNL     1       5.901  25.850  55.900  1.00  0.00     0.190 HD
ENDROOT
BRANCH   2   5
HETATM    5  N   UNL     1       5.869  27.485  57.159  1.00  0.00    -0.273 N 
HETATM    6  H   UNL     1       5.889  27.674  58.163  1.00  0.00     0.189 HD
BRANCH   5   7
HETATM    7  C   UNL     1       6.147  28.533  56.279  1.00  0.00     0.191 C 
HETATM    8  S   UNL     1       6.614  28.266  54.687  1.00  0.00    -0.039 SA
BRANCH   7   9
HETATM    9  N   UNL     1       5.891  29.749  56.888  1.00  0.00    -0.330 N 
HETATM   10  H   UNL     1       5.266  30.361  56.369  1.00  0.00     0.168 HD
BRANCH   9  11
HETATM   11  C   UNL     1       6.569  30.426  57.929  1.00  0.00     0.068 A 
HETATM   12  C   UNL     1       5.941  31.566  58.474  1.00  0.00     0.097 A 
HETATM   13  C   UNL     1       6.552  32.274  59.517  1.00  0.00     0.075 A 
HETATM   14  C   UNL     1       7.778  31.846  60.031  1.00  0.00     0.070 A 
HETATM   15  C   UNL     1       8.374  30.694  59.516  1.00  0.00     0.039 A 
HETATM   16  C   UNL     1       7.773  29.983  58.476  1.00  0.00     0.035 A 
BRANCH  12  17
HETATM   17  O   UNL     1       4.733  31.897  57.901  1.00  0.00    -0.354 OA
HETATM   18  C   UNL     1       3.883  32.771  58.636  1.00  0.00     0.210 C 
ENDBRANCH  12  17
BRANCH  14  19
HETATM   19  O   UNL     1       8.482  32.442  61.042  1.00  0.00    -0.356 OA
HETATM   20  C   UNL     1       9.613  31.741  61.542  1.00  0.00     0.210 C 
ENDBRANCH  14  19
ENDBRANCH   9  11
ENDBRANCH   7   9
ENDBRANCH   5   7
ENDBRANCH   2   5
BRANCH   1  21
HETATM   21  C   UNL     1       7.838  24.427  56.640  1.00  0.00     0.098 A 
HETATM   22  C   UNL     1       7.917  24.114  55.295  1.00  0.00     0.138 A 
HETATM   23  N   UNL     1       7.609  24.781  54.155  1.00  0.00    -0.370 N 
HETATM   24  N   UNL     1       8.395  22.825  55.234  1.00  0.00    -0.240 N 
HETATM   25  C   UNL     1       8.100  24.302  52.867  1.00  0.00     0.081 C 
HETATM   26  H   UNL     1       7.089  25.659  54.146  1.00  0.00     0.161 HD
HETATM   27  C   UNL     1       7.324  24.973  51.740  1.00  0.00     0.032 C 
HETATM   28  C   UNL     1       7.948  22.780  52.814  1.00  0.00     0.061 C 
HETATM   29  C   UNL     1       8.682  22.116  53.997  1.00  0.00     0.221 C 
HETATM   30  N   UNL     1       8.683  22.302  56.436  1.00  0.00    -0.181 NA
HETATM   31  C   UNL     1       8.298  23.256  57.288  1.00  0.00     0.160 A 
BRANCH  29  32
HETATM   32  C   UNL     1       8.303  20.652  54.070  1.00  0.00     0.409 C 
HETATM   33  F   UNL     1       8.102  20.106  52.849  1.00  0.00    -0.169 F 
HETATM   34  F   UNL     1       9.323  19.951  54.640  1.00  0.00    -0.169 F 
HETATM   35  F   UNL     1       7.217  20.409  54.833  1.00  0.00    -0.169 F 
ENDBRANCH  29  32
ENDBRANCH   1  21
TORSDOF 8
ENDMDL
MODEL 6
REMARK VINA RESULT:      -8.6      6.092     10.071
REMARK  8 active torsions:
REMARK  status: ('A' for Active; 'I' for Inactive)
REMARK    1  A    between atoms: C_8  and  C_9 
REMARK       I    between atoms: C_9  and  N_10 
REMARK    2  A    between atoms: N_10  and  N_11 
REMARK    3  A    between atoms: N_11  and  C_12 
REMARK    4  A    between atoms: C_12  and  N_13 
REMARK    5  A    between atoms: N_13  and  C_14 
REMARK    6  A    between atoms: C_15  and  O_16 
REMARK    7  A    between atoms: C_19  and  O_20 
REMARK    8  A    between atoms: C_26  and  C_27 
ROOT
HETATM    1  C   UNL     1       3.747  32.060  59.089  1.00  0.00     0.275 C 
HETATM    2  N   UNL     1       3.774  30.678  59.063  1.00  0.00    -0.263 N 
HETATM    3  O   UNL     1       3.312  32.731  58.155  1.00  0.00    -0.266 OA
HETATM    4  H   UNL     1       4.442  30.206  59.672  1.00  0.00     0.190 HD
ENDROOT
BRANCH   2   5
HETATM    5  N   UNL     1       3.486  30.019  57.852  1.00  0.00    -0.273 N 
HETATM    6  H   UNL     1       2.616  30.319  57.408  1.00  0.00     0.189 HD
BRANCH   5   7
HETATM    7  C   UNL     1       4.530  29.577  57.038  1.00  0.00     0.191 C 
HETATM    8  S   UNL     1       4.831  30.244  55.525  1.00  0.00    -0.039 SA
BRANCH   7   9
HETATM    9  N   UNL     1       5.282  28.622  57.701  1.00  0.00    -0.330 N 
HETATM   10  H   UNL     1       5.584  28.891  58.633  1.00  0.00     0.168 HD
BRANCH   9  11
HETATM   11  C   UNL     1       5.968  27.483  57.217  1.00  0.00     0.068 A 
HETATM   12  C   UNL     1       7.347  27.390  57.506  1.00  0.00     0.097 A 
HETATM   13  C   UNL     1       8.082  26.281  57.068  1.00  0.00     0.075 A 
HETATM   14  C   UNL     1       7.452  25.258  56.356  1.00  0.00     0.070 A 
HETATM   15  C   UNL     1       6.081  25.336  56.110  1.00  0.00     0.039 A 
HETATM   16  C   UNL     1       5.340  26.438  56.541  1.00  0.00     0.035 A 
BRANCH  12  17
HETATM   17  O   UNL     1       7.866  28.447  58.219  1.00  0.00    -0.354 OA
HETATM   18  C   UNL     1       8.795  29.290  57.547  1.00  0.00     0.210 C 
ENDBRANCH  12  17
BRANCH  14  19
HETATM   19  O   UNL     1       8.049  24.126  55.871  1.00  0.00    -0.356 OA
HETATM   20  C   UNL     1       8.310  23.084  56.802  1.00  0.00     0.210 C 
ENDBRANCH  14  19
ENDBRANCH   9  11
ENDBRANCH   7   9
ENDBRANCH   5   7
ENDBRANCH   2   5
BRANCH   1  21
HETATM   21  C   UNL     1       4.333  32.645  60.278  1.00  0.00     0.098 A 
HETATM   22  C   UNL     1       5.591  32.458  60.824  1.00  0.00     0.138 A 
HETATM   23  N   UNL     1       6.648  31.673  60.500  1.00  0.00    -0.370 N 
HETATM   24  N   UNL     1       5.646  33.272  61.933  1.00  0.00    -0.240 N 
HETATM   25  C   UNL     1       7.960  31.930  61.086  1.00  0.00     0.081 C 
HETATM   26  H   UNL     1       6.598  30.929  59.805  1.00  0.00     0.161 HD
HETATM   27  C   UNL     1       8.861  30.719  60.876  1.00  0.00     0.032 C 
HETATM   28  C   UNL     1       7.786  32.239  62.575  1.00  0.00     0.061 C 
HETATM   29  C   UNL     1       6.819  33.424  62.778  1.00  0.00     0.221 C 
HETATM   30  N   UNL     1       4.540  34.010  62.112  1.00  0.00    -0.181 NA
HETATM   31  C   UNL     1       3.728  33.592  61.137  1.00  0.00     0.160 A 
BRANCH  29  32
HETATM   32  C   UNL     1       6.463  33.540  64.244  1.00  0.00     0.409 C 
HETATM   33  F   UNL     1       5.397  32.780  64.582  1.00  0.00    -0.169 F 
HETATM   34  F   UNL     1       7.507  33.092  64.998  1.00  0.00    -0.169 F 
HETATM   35  F   UNL     1       6.233  34.806  64.649  1.00  0.00    -0.169 F 
ENDBRANCH  29  32
ENDBRANCH   1  21
TORSDOF 8
ENDMDL
MODEL 7
REMARK VINA RESULT:      -8.5      4.759      8.894
REMARK  8 active torsions:
REMARK  status: ('A' for Active; 'I' for Inactive)
REMARK    1  A    between atoms: C_8  and  C_9 
REMARK       I    between atoms: C_9  and  N_10 
REMARK    2  A    between atoms: N_10  and  N_11 
REMARK    3  A    between atoms: N_11  and  C_12 
REMARK    4  A    between atoms: C_12  and  N_13 
REMARK    5  A    between atoms: N_13  and  C_14 
REMARK    6  A    between atoms: C_15  and  O_16 
REMARK    7  A    between atoms: C_19  and  O_20 
REMARK    8  A    between atoms: C_26  and  C_27 
ROOT
HETATM    1  C   UNL     1       4.796  29.880  56.762  1.00  0.00     0.275 C 
HETATM    2  N   UNL     1       4.879  28.503  56.851  1.00  0.00    -0.263 N 
HETATM    3  O   UNL     1       4.137  30.449  55.894  1.00  0.00    -0.266 OA
HETATM    4  H   UNL     1       5.685  28.108  57.335  1.00  0.00     0.190 HD
ENDROOT
BRANCH   2   5
HETATM    5  N   UNL     1       4.362  27.725  55.797  1.00  0.00    -0.273 N 
HETATM    6  H   UNL     1       3.421  27.993  55.501  1.00  0.00     0.189 HD
BRANCH   5   7
HETATM    7  C   UNL     1       5.229  27.180  54.848  1.00  0.00     0.191 C 
HETATM    8  S   UNL     1       6.283  28.130  53.948  1.00  0.00    -0.039 SA
BRANCH   7   9
HETATM    9  N   UNL     1       5.136  25.799  54.854  1.00  0.00    -0.330 N 
HETATM   10  H   UNL     1       4.330  25.429  55.350  1.00  0.00     0.168 HD
BRANCH   9  11
HETATM   11  C   UNL     1       6.104  24.804  54.576  1.00  0.00     0.068 A 
HETATM   12  C   UNL     1       6.818  24.275  55.673  1.00  0.00     0.097 A 
HETATM   13  C   UNL     1       7.780  23.278  55.469  1.00  0.00     0.075 A 
HETATM   14  C   UNL     1       8.028  22.794  54.183  1.00  0.00     0.070 A 
HETATM   15  C   UNL     1       7.290  23.292  53.109  1.00  0.00     0.039 A 
HETATM   16  C   UNL     1       6.330  24.287  53.302  1.00  0.00     0.035 A 
BRANCH  12  17
HETATM   17  O   UNL     1       6.491  24.815  56.898  1.00  0.00    -0.354 OA
HETATM   18  C   UNL     1       7.478  25.616  57.538  1.00  0.00     0.210 C 
ENDBRANCH  12  17
BRANCH  14  19
HETATM   19  O   UNL     1       8.936  21.829  53.845  1.00  0.00    -0.356 OA
HETATM   20  C   UNL     1       8.753  20.540  54.418  1.00  0.00     0.210 C 
ENDBRANCH  14  19
ENDBRANCH   9  11
ENDBRANCH   7   9
ENDBRANCH   5   7
ENDBRANCH   2   5
BRANCH   1  21
HETATM   21  C   UNL     1       5.602  30.590  57.734  1.00  0.00     0.098 A 
HETATM   22  C   UNL     1       6.974  30.585  57.914  1.00  0.00     0.138 A 
HETATM   23  N   UNL     1       7.997  29.921  57.321  1.00  0.00    -0.370 N 
HETATM   24  N   UNL     1       7.222  31.452  58.953  1.00  0.00    -0.240 N 
HETATM   25  C   UNL     1       9.373  30.365  57.517  1.00  0.00     0.081 C 
HETATM   26  H   UNL     1       7.857  29.143  56.676  1.00  0.00     0.161 HD
HETATM   27  C   UNL     1      10.333  29.264  57.082  1.00  0.00     0.032 C 
HETATM   28  C   UNL     1       9.573  30.722  58.991  1.00  0.00     0.061 C 
HETATM   29  C   UNL     1       8.552  31.788  59.438  1.00  0.00     0.221 C 
HETATM   30  N   UNL     1       6.120  32.058  59.422  1.00  0.00    -0.181 NA
HETATM   31  C   UNL     1       5.135  31.497  58.715  1.00  0.00     0.160 A 
BRANCH  29  32
HETATM   32  C   UNL     1       8.597  31.932  60.945  1.00  0.00     0.409 C 
HETATM   33  F   UNL     1       9.860  32.000  61.423  1.00  0.00    -0.169 F 
HETATM   34  F   UNL     1       7.988  33.097  61.304  1.00  0.00    -0.169 F 
HETATM   35  F   UNL     1       7.940  30.955  61.603  1.00  0.00    -0.169 F 
ENDBRANCH  29  32
ENDBRANCH   1  21
TORSDOF 8
ENDMDL
MODEL 8
REMARK VINA RESULT:      -8.5      2.745      3.540
REMARK  8 active torsions:
REMARK  status: ('A' for Active; 'I' for Inactive)
REMARK    1  A    between atoms: C_8  and  C_9 
REMARK       I    between atoms: C_9  and  N_10 
REMARK    2  A    between atoms: N_10  and  N_11 
REMARK    3  A    between atoms: N_11  and  C_12 
REMARK    4  A    between atoms: C_12  and  N_13 
REMARK    5  A    between atoms: N_13  and  C_14 
REMARK    6  A    between atoms: C_15  and  O_16 
REMARK    7  A    between atoms: C_19  and  O_20 
REMARK    8  A    between atoms: C_26  and  C_27 
ROOT
HETATM    1  C   UNL     1       6.842  27.747  57.228  1.00  0.00     0.275 C 
HETATM    2  N   UNL     1       7.816  28.581  57.742  1.00  0.00    -0.263 N 
HETATM    3  O   UNL     1       5.645  28.025  57.265  1.00  0.00    -0.266 OA
HETATM    4  H   UNL     1       8.709  28.164  58.001  1.00  0.00     0.190 HD
ENDROOT
BRANCH   2   5
HETATM    5  N   UNL     1       7.417  29.690  58.514  1.00  0.00    -0.273 N 
HETATM    6  H   UNL     1       6.787  29.459  59.285  1.00  0.00     0.189 HD
BRANCH   5   7
HETATM    7  C   UNL     1       8.282  30.776  58.664  1.00  0.00     0.191 C 
HETATM    8  S   UNL     1       9.875  30.734  58.131  1.00  0.00    -0.039 SA
BRANCH   7   9
HETATM    9  N   UNL     1       7.604  31.855  59.205  1.00  0.00    -0.330 N 
HETATM   10  H   UNL     1       7.856  32.757  58.809  1.00  0.00     0.168 HD
BRANCH   9  11
HETATM   11  C   UNL     1       6.865  31.978  60.406  1.00  0.00     0.068 A 
HETATM   12  C   UNL     1       7.577  31.842  61.617  1.00  0.00     0.097 A 
HETATM   13  C   UNL     1       6.909  31.966  62.842  1.00  0.00     0.075 A 
HETATM   14  C   UNL     1       5.539  32.238  62.869  1.00  0.00     0.070 A 
HETATM   15  C   UNL     1       4.849  32.412  61.669  1.00  0.00     0.039 A 
HETATM   16  C   UNL     1       5.507  32.288  60.444  1.00  0.00     0.035 A 
BRANCH  12  17
HETATM   17  O   UNL     1       8.923  31.584  61.477  1.00  0.00    -0.354 OA
HETATM   18  C   UNL     1       9.407  30.356  62.009  1.00  0.00     0.210 C 
ENDBRANCH  12  17
BRANCH  14  19
HETATM   19  O   UNL     1       4.767  32.381  63.990  1.00  0.00    -0.356 OA
HETATM   20  C   UNL     1       5.163  33.378  64.923  1.00  0.00     0.210 C 
ENDBRANCH  14  19
ENDBRANCH   9  11
ENDBRANCH   7   9
ENDBRANCH   5   7
ENDBRANCH   2   5
BRANCH   1  21
HETATM   21  C   UNL     1       7.346  26.493  56.705  1.00  0.00     0.098 A 
HETATM   22  C   UNL     1       7.087  25.874  55.495  1.00  0.00     0.138 A 
HETATM   23  N   UNL     1       6.280  26.165  54.445  1.00  0.00    -0.370 N 
HETATM   24  N   UNL     1       7.843  24.724  55.489  1.00  0.00    -0.240 N 
HETATM   25  C   UNL     1       6.460  25.481  53.169  1.00  0.00     0.081 C 
HETATM   26  H   UNL     1       5.573  26.900  54.472  1.00  0.00     0.161 HD
HETATM   27  C   UNL     1       5.227  25.692  52.296  1.00  0.00     0.032 C 
HETATM   28  C   UNL     1       6.702  23.994  53.434  1.00  0.00     0.061 C 
HETATM   29  C   UNL     1       7.911  23.796  54.372  1.00  0.00     0.221 C 
HETATM   30  N   UNL     1       8.613  24.582  56.579  1.00  0.00    -0.181 NA
HETATM   31  C   UNL     1       8.273  25.629  57.336  1.00  0.00     0.160 A 
BRANCH  29  32
HETATM   32  C   UNL     1       7.969  22.352  54.824  1.00  0.00     0.409 C 
HETATM   33  F   UNL     1       7.142  22.099  55.863  1.00  0.00    -0.169 F 
HETATM   34  F   UNL     1       7.562  21.545  53.805  1.00  0.00    -0.169 F 
HETATM   35  F   UNL     1       9.210  21.936  55.152  1.00  0.00    -0.169 F 
ENDBRANCH  29  32
ENDBRANCH   1  21
TORSDOF 8
ENDMDL
MODEL 9
REMARK VINA RESULT:      -8.4      3.126      4.469
REMARK  8 active torsions:
REMARK  status: ('A' for Active; 'I' for Inactive)
REMARK    1  A    between atoms: C_8  and  C_9 
REMARK       I    between atoms: C_9  and  N_10 
REMARK    2  A    between atoms: N_10  and  N_11 
REMARK    3  A    between atoms: N_11  and  C_12 
REMARK    4  A    between atoms: C_12  and  N_13 
REMARK    5  A    between atoms: N_13  and  C_14 
REMARK    6  A    between atoms: C_15  and  O_16 
REMARK    7  A    between atoms: C_19  and  O_20 
REMARK    8  A    between atoms: C_26  and  C_27 
ROOT
HETATM    1  C   UNL     1       7.115  28.377  57.325  1.00  0.00     0.275 C 
HETATM    2  N   UNL     1       6.084  29.266  57.559  1.00  0.00    -0.263 N 
HETATM    3  O   UNL     1       8.100  28.299  58.056  1.00  0.00    -0.266 OA
HETATM    4  H   UNL     1       5.499  29.533  56.768  1.00  0.00     0.190 HD
ENDROOT
BRANCH   2   5
HETATM    5  N   UNL     1       6.254  30.255  58.548  1.00  0.00    -0.273 N 
HETATM    6  H   UNL     1       7.002  30.056  59.215  1.00  0.00     0.189 HD
BRANCH   5   7
HETATM    7  C   UNL     1       5.964  31.588  58.251  1.00  0.00     0.191 C 
HETATM    8  S   UNL     1       5.136  32.037  56.860  1.00  0.00    -0.039 SA
BRANCH   7   9
HETATM    9  N   UNL     1       6.370  32.408  59.291  1.00  0.00    -0.330 N 
HETATM   10  H   UNL     1       7.263  32.869  59.144  1.00  0.00     0.168 HD
BRANCH   9  11
HETATM   11  C   UNL     1       5.936  32.482  60.636  1.00  0.00     0.068 A 
HETATM   12  C   UNL     1       6.773  31.905  61.615  1.00  0.00     0.097 A 
HETATM   13  C   UNL     1       6.410  31.956  62.968  1.00  0.00     0.075 A 
HETATM   14  C   UNL     1       5.226  32.589  63.352  1.00  0.00     0.070 A 
HETATM   15  C   UNL     1       4.424  33.193  62.384  1.00  0.00     0.039 A 
HETATM   16  C   UNL     1       4.777  33.146  61.034  1.00  0.00     0.035 A 
BRANCH  12  17
HETATM   17  O   UNL     1       7.919  31.316  61.130  1.00  0.00    -0.354 OA
HETATM   18  C   UNL     1       8.812  30.750  62.084  1.00  0.00     0.210 C 
ENDBRANCH  12  17
BRANCH  14  19
HETATM   19  O   UNL     1       4.753  32.708  64.631  1.00  0.00    -0.356 OA
HETATM   20  C   UNL     1       5.037  33.923  65.313  1.00  0.00     0.210 C 
ENDBRANCH  14  19
ENDBRANCH   9  11
ENDBRANCH   7   9
ENDBRANCH   5   7
ENDBRANCH   2   5
BRANCH   1  21
HETATM   21  C   UNL     1       6.967  27.599  56.112  1.00  0.00     0.098 A 
HETATM   22  C   UNL     1       7.197  26.252  55.896  1.00  0.00     0.138 A 
HETATM   23  N   UNL     1       7.664  25.242  56.671  1.00  0.00    -0.370 N 
HETATM   24  N   UNL     1       6.873  26.020  54.578  1.00  0.00    -0.240 N 
HETATM   25  C   UNL     1       7.497  23.855  56.250  1.00  0.00     0.081 C 
HETATM   26  H   UNL     1       8.084  25.392  57.589  1.00  0.00     0.161 HD
HETATM   27  C   UNL     1       8.417  22.956  57.069  1.00  0.00     0.032 C 
HETATM   28  C   UNL     1       7.808  23.750  54.756  1.00  0.00     0.061 C 
HETATM   29  C   UNL     1       6.918  24.712  53.943  1.00  0.00     0.221 C 
HETATM   30  N   UNL     1       6.398  27.103  53.944  1.00  0.00    -0.181 NA
HETATM   31  C   UNL     1       6.503  28.069  54.860  1.00  0.00     0.160 A 
BRANCH  29  32
HETATM   32  C   UNL     1       7.418  24.781  52.516  1.00  0.00     0.409 C 
HETATM   33  F   UNL     1       6.465  25.194  51.651  1.00  0.00    -0.169 F 
HETATM   34  F   UNL     1       8.428  25.693  52.437  1.00  0.00    -0.169 F 
HETATM   35  F   UNL     1       7.934  23.620  52.065  1.00  0.00    -0.169 F 
ENDBRANCH  29  32
ENDBRANCH   1  21
TORSDOF 8
ENDMDL
MODEL 10
REMARK VINA RESULT:      -8.3      5.179      9.717
REMARK  8 active torsions:
REMARK  status: ('A' for Active; 'I' for Inactive)
REMARK    1  A    between atoms: C_8  and  C_9 
REMARK       I    between atoms: C_9  and  N_10 
REMARK    2  A    between atoms: N_10  and  N_11 
REMARK    3  A    between atoms: N_11  and  C_12 
REMARK    4  A    between atoms: C_12  and  N_13 
REMARK    5  A    between atoms: N_13  and  C_14 
REMARK    6  A    between atoms: C_15  and  O_16 
REMARK    7  A    between atoms: C_19  and  O_20 
REMARK    8  A    between atoms: C_26  and  C_27 
ROOT
HETATM    1  C   UNL     1       7.541  29.552  57.005  1.00  0.00     0.275 C 
HETATM    2  N   UNL     1       7.104  29.710  55.704  1.00  0.00    -0.263 N 
HETATM    3  O   UNL     1       8.212  28.586  57.365  1.00  0.00    -0.266 OA
HETATM    4  H   UNL     1       6.291  30.305  55.546  1.00  0.00     0.190 HD
ENDROOT
BRANCH   2   5
HETATM    5  N   UNL     1       7.254  28.637  54.804  1.00  0.00    -0.273 N 
HETATM    6  H   UNL     1       8.109  28.674  54.246  1.00  0.00     0.189 HD
BRANCH   5   7
HETATM    7  C   UNL     1       6.722  27.386  55.124  1.00  0.00     0.191 C 
HETATM    8  S   UNL     1       5.070  27.136  55.308  1.00  0.00    -0.039 SA
BRANCH   7   9
HETATM    9  N   UNL     1       7.727  26.435  55.163  1.00  0.00    -0.330 N 
HETATM   10  H   UNL     1       8.669  26.811  55.114  1.00  0.00     0.168 HD
BRANCH   9  11
HETATM   11  C   UNL     1       7.688  25.037  54.942  1.00  0.00     0.068 A 
HETATM   12  C   UNL     1       7.676  24.596  53.602  1.00  0.00     0.097 A 
HETATM   13  C   UNL     1       7.652  23.225  53.314  1.00  0.00     0.075 A 
HETATM   14  C   UNL     1       7.655  22.291  54.351  1.00  0.00     0.070 A 
HETATM   15  C   UNL     1       7.709  22.732  55.673  1.00  0.00     0.039 A 
HETATM   16  C   UNL     1       7.731  24.096  55.970  1.00  0.00     0.035 A 
BRANCH  12  17
HETATM   17  O   UNL     1       7.684  25.599  52.657  1.00  0.00    -0.354 OA
HETATM   18  C   UNL     1       6.566  25.672  51.779  1.00  0.00     0.210 C 
ENDBRANCH  12  17
BRANCH  14  19
HETATM   19  O   UNL     1       7.632  20.930  54.211  1.00  0.00    -0.356 OA
HETATM   20  C   UNL     1       8.324  20.168  55.191  1.00  0.00     0.210 C 
ENDBRANCH  14  19
ENDBRANCH   9  11
ENDBRANCH   7   9
ENDBRANCH   5   7
ENDBRANCH   2   5
BRANCH   1  21
HETATM   21  C   UNL     1       7.087  30.583  57.916  1.00  0.00     0.098 A 
HETATM   22  C   UNL     1       7.511  30.874  59.200  1.00  0.00     0.138 A 
HETATM   23  N   UNL     1       8.410  30.309  60.043  1.00  0.00    -0.370 N 
HETATM   24  N   UNL     1       6.774  31.964  59.603  1.00  0.00    -0.240 N 
HETATM   25  C   UNL     1       8.868  31.036  61.224  1.00  0.00     0.081 C 
HETATM   26  H   UNL     1       8.848  29.405  59.867  1.00  0.00     0.161 HD
HETATM   27  C   UNL     1       9.553  30.071  62.185  1.00  0.00     0.032 C 
HETATM   28  C   UNL     1       7.666  31.715  61.884  1.00  0.00     0.061 C 
HETATM   29  C   UNL     1       6.941  32.636  60.882  1.00  0.00     0.221 C 
HETATM   30  N   UNL     1       5.946  32.433  58.657  1.00  0.00    -0.181 NA
HETATM   31  C   UNL     1       6.101  31.564  57.653  1.00  0.00     0.160 A 
BRANCH  29  32
HETATM   32  C   UNL     1       5.622  33.087  61.473  1.00  0.00     0.409 C 
HETATM   33  F   UNL     1       4.667  32.132  61.401  1.00  0.00    -0.169 F 
HETATM   34  F   UNL     1       5.792  33.359  62.798  1.00  0.00    -0.169 F 
HETATM   35  F   UNL     1       5.139  34.220  60.923  1.00  0.00    -0.169 F 
ENDBRANCH  29  32
ENDBRANCH   1  21
TORSDOF 8
ENDMDL
