MODEL 1
REMARK VINA RESULT:      -9.8      0.000      0.000
REMARK  5 active torsions:
REMARK  status: ('A' for Active; 'I' for Inactive)
REMARK    1  A    between atoms: C_2  and  C_3 
REMARK    2  A    between atoms: C_7  and  C_8 
REMARK       I    between atoms: C_8  and  N_9 
REMARK    3  A    between atoms: N_9  and  C_10 
REMARK    4  A    between atoms: C_12  and  N_13 
REMARK       I    between atoms: N_13  and  C_14 
REMARK    5  A    between atoms: C_14  and  C_15 
ROOT
HETATM    1  C   UNL     1       8.749  30.455  59.005  1.00  0.00     0.037 A 
HETATM    2  C   UNL     1       8.212  29.338  58.353  1.00  0.00     0.059 A 
HETATM    3  C   UNL     1       8.848  28.782  57.235  1.00  0.00     0.037 A 
HETATM    4  C   UNL     1      10.035  29.360  56.771  1.00  0.00     0.029 A 
HETATM    5  C   UNL     1      10.564  30.488  57.396  1.00  0.00     0.004 A 
HETATM    6  C   UNL     1       9.920  31.035  58.506  1.00  0.00     0.029 A 
ENDROOT
BRANCH   1   7
HETATM    7  N   UNL     1       8.179  31.054  60.152  1.00  0.00    -0.322 N 
HETATM    8  C   UNL     1       8.487  30.807  61.475  1.00  0.00     0.274 C 
HETATM    9  O   UNL     1       9.367  30.056  61.875  1.00  0.00    -0.266 OA
HETATM   10  H   UNL     1       7.507  31.787  59.977  1.00  0.00     0.169 HD
BRANCH   8  11
HETATM   11  C   UNL     1       7.691  31.550  62.424  1.00  0.00     0.120 A 
HETATM   12  N   UNL     1       6.327  31.420  62.445  1.00  0.00    -0.273 N 
HETATM   13  N   UNL     1       5.717  32.170  63.377  1.00  0.00    -0.179 NA
HETATM   14  H   UNL     1       5.767  30.828  61.838  1.00  0.00     0.189 HD
HETATM   15  C   UNL     1       6.720  32.821  63.974  1.00  0.00     0.056 A 
HETATM   16  C   UNL     1       7.974  32.466  63.418  1.00  0.00     0.065 A 
BRANCH  15  17
HETATM   17  C   UNL     1       6.443  33.785  65.076  1.00  0.00     0.056 C 
HETATM   18  C   UNL     1       4.983  33.772  65.500  1.00  0.00     0.011 C 
ENDBRANCH  15  17
ENDBRANCH   8  11
ENDBRANCH   1   7
BRANCH   3  19
HETATM   19  N   UNL     1       8.379  27.641  56.543  1.00  0.00    -0.323 N 
HETATM   20  C   UNL     1       8.057  26.408  57.083  1.00  0.00     0.256 C 
HETATM   21  O   UNL     1       8.048  26.106  58.270  1.00  0.00    -0.267 OA
HETATM   22  H   UNL     1       8.318  27.739  55.540  1.00  0.00     0.169 HD
BRANCH  20  23
HETATM   23  C   UNL     1       7.707  25.347  56.095  1.00  0.00     0.032 A 
HETATM   24  C   UNL     1       7.373  25.751  54.795  1.00  0.00     0.017 A 
HETATM   25  C   UNL     1       7.026  24.804  53.831  1.00  0.00     0.001 A 
HETATM   26  C   UNL     1       7.019  23.449  54.158  1.00  0.00     0.000 A 
HETATM   27  C   UNL     1       7.370  23.039  55.444  1.00  0.00     0.001 A 
HETATM   28  C   UNL     1       7.721  23.983  56.413  1.00  0.00     0.017 A 
ENDBRANCH  20  23
ENDBRANCH   3  19
TORSDOF 5
ENDMDL
MODEL 2
REMARK VINA RESULT:      -9.5      2.484      4.385
REMARK  5 active torsions:
REMARK  status: ('A' for Active; 'I' for Inactive)
REMARK    1  A    between atoms: C_2  and  C_3 
REMARK    2  A    between atoms: C_7  and  C_8 
REMARK       I    between atoms: C_8  and  N_9 
REMARK    3  A    between atoms: N_9  and  C_10 
REMARK    4  A    between atoms: C_12  and  N_13 
REMARK       I    between atoms: N_13  and  C_14 
REMARK    5  A    between atoms: C_14  and  C_15 
ROOT
HETATM    1  C   UNL     1       6.693  28.155  56.762  1.00  0.00     0.037 A 
HETATM    2  C   UNL     1       7.180  26.855  56.575  1.00  0.00     0.059 A 
HETATM    3  C   UNL     1       6.577  25.986  55.655  1.00  0.00     0.037 A 
HETATM    4  C   UNL     1       5.473  26.434  54.920  1.00  0.00     0.029 A 
HETATM    5  C   UNL     1       4.965  27.717  55.117  1.00  0.00     0.004 A 
HETATM    6  C   UNL     1       5.570  28.571  56.038  1.00  0.00     0.029 A 
ENDROOT
BRANCH   1   7
HETATM    7  N   UNL     1       7.264  29.095  57.651  1.00  0.00    -0.322 N 
HETATM    8  C   UNL     1       8.597  29.427  57.787  1.00  0.00     0.274 C 
HETATM    9  O   UNL     1       9.515  28.994  57.101  1.00  0.00    -0.266 OA
HETATM   10  H   UNL     1       6.610  29.623  58.211  1.00  0.00     0.169 HD
BRANCH   8  11
HETATM   11  C   UNL     1       8.870  30.397  58.823  1.00  0.00     0.120 A 
HETATM   12  N   UNL     1       9.460  31.596  58.518  1.00  0.00    -0.273 N 
HETATM   13  N   UNL     1       9.654  32.397  59.578  1.00  0.00    -0.179 NA
HETATM   14  H   UNL     1       9.749  31.911  57.596  1.00  0.00     0.189 HD
HETATM   15  C   UNL     1       9.186  31.688  60.609  1.00  0.00     0.056 A 
HETATM   16  C   UNL     1       8.682  30.432  60.190  1.00  0.00     0.065 A 
BRANCH  15  17
HETATM   17  C   UNL     1       9.242  32.240  61.992  1.00  0.00     0.056 C 
HETATM   18  C   UNL     1       7.901  32.151  62.702  1.00  0.00     0.011 C 
ENDBRANCH  15  17
ENDBRANCH   8  11
ENDBRANCH   1   7
BRANCH   3  19
HETATM   19  N   UNL     1       7.029  24.672  55.395  1.00  0.00    -0.323 N 
HETATM   20  C   UNL     1       7.692  24.222  54.267  1.00  0.00     0.256 C 
HETATM   21  O   UNL     1       8.075  24.900  53.321  1.00  0.00    -0.267 OA
HETATM   22  H   UNL     1       6.798  23.987  56.101  1.00  0.00     0.169 HD
BRANCH  20  23
HETATM   23  C   UNL     1       7.938  22.752  54.210  1.00  0.00     0.032 A 
HETATM   24  C   UNL     1       7.969  22.049  55.422  1.00  0.00     0.017 A 
HETATM   25  C   UNL     1       8.206  20.674  55.432  1.00  0.00     0.001 A 
HETATM   26  C   UNL     1       8.405  19.993  54.232  1.00  0.00     0.000 A 
HETATM   27  C   UNL     1       8.354  20.684  53.020  1.00  0.00     0.001 A 
HETATM   28  C   UNL     1       8.115  22.061  53.005  1.00  0.00     0.017 A 
ENDBRANCH  20  23
ENDBRANCH   3  19
TORSDOF 5
ENDMDL
MODEL 3
REMARK VINA RESULT:      -9.5      1.289      9.325
REMARK  5 active torsions:
REMARK  status: ('A' for Active; 'I' for Inactive)
REMARK    1  A    between atoms: C_2  and  C_3 
REMARK    2  A    between atoms: C_7  and  C_8 
REMARK       I    between atoms: C_8  and  N_9 
REMARK    3  A    between atoms: N_9  and  C_10 
REMARK    4  A    between atoms: C_12  and  N_13 
REMARK       I    between atoms: N_13  and  C_14 
REMARK    5  A    between atoms: C_14  and  C_15 
ROOT
HETATM    1  C   UNL     1       8.651  29.205  57.407  1.00  0.00     0.037 A 
HETATM    2  C   UNL     1       8.029  29.760  58.532  1.00  0.00     0.059 A 
HETATM    3  C   UNL     1       8.631  30.805  59.246  1.00  0.00     0.037 A 
HETATM    4  C   UNL     1       9.871  31.293  58.820  1.00  0.00     0.029 A 
HETATM    5  C   UNL     1      10.512  30.731  57.716  1.00  0.00     0.004 A 
HETATM    6  C   UNL     1       9.905  29.688  57.016  1.00  0.00     0.029 A 
ENDROOT
BRANCH   1   7
HETATM    7  N   UNL     1       8.094  28.169  56.623  1.00  0.00    -0.322 N 
HETATM    8  C   UNL     1       7.841  26.865  57.003  1.00  0.00     0.274 C 
HETATM    9  O   UNL     1       8.006  26.404  58.125  1.00  0.00    -0.266 OA
HETATM   10  H   UNL     1       7.797  28.431  55.695  1.00  0.00     0.169 HD
BRANCH   8  11
HETATM   11  C   UNL     1       7.308  26.029  55.954  1.00  0.00     0.120 A 
HETATM   12  N   UNL     1       5.954  25.883  55.797  1.00  0.00    -0.273 N 
HETATM   13  N   UNL     1       5.601  25.076  54.784  1.00  0.00    -0.179 NA
HETATM   14  H   UNL     1       5.229  26.318  56.362  1.00  0.00     0.189 HD
HETATM   15  C   UNL     1       6.768  24.672  54.272  1.00  0.00     0.056 A 
HETATM   16  C   UNL     1       7.865  25.242  54.965  1.00  0.00     0.065 A 
BRANCH  15  17
HETATM   17  C   UNL     1       6.800  23.731  53.117  1.00  0.00     0.056 C 
HETATM   18  C   UNL     1       7.882  22.673  53.266  1.00  0.00     0.011 C 
ENDBRANCH  15  17
ENDBRANCH   8  11
ENDBRANCH   1   7
BRANCH   3  19
HETATM   19  N   UNL     1       8.051  31.431  60.374  1.00  0.00    -0.323 N 
HETATM   20  C   UNL     1       8.304  31.158  61.707  1.00  0.00     0.256 C 
HETATM   21  O   UNL     1       9.135  30.374  62.150  1.00  0.00    -0.267 OA
HETATM   22  H   UNL     1       7.344  32.123  60.168  1.00  0.00     0.169 HD
BRANCH  20  23
HETATM   23  C   UNL     1       7.450  31.891  62.685  1.00  0.00     0.032 A 
HETATM   24  C   UNL     1       8.093  32.684  63.646  1.00  0.00     0.017 A 
HETATM   25  C   UNL     1       7.347  33.384  64.594  1.00  0.00     0.001 A 
HETATM   26  C   UNL     1       5.956  33.303  64.583  1.00  0.00     0.000 A 
HETATM   27  C   UNL     1       5.308  32.532  63.617  1.00  0.00     0.001 A 
HETATM   28  C   UNL     1       6.052  31.830  62.663  1.00  0.00     0.017 A 
ENDBRANCH  20  23
ENDBRANCH   3  19
TORSDOF 5
ENDMDL
MODEL 4
REMARK VINA RESULT:      -9.1      8.273     11.588
REMARK  5 active torsions:
REMARK  status: ('A' for Active; 'I' for Inactive)
REMARK    1  A    between atoms: C_2  and  C_3 
REMARK    2  A    between atoms: C_7  and  C_8 
REMARK       I    between atoms: C_8  and  N_9 
REMARK    3  A    between atoms: N_9  and  C_10 
REMARK    4  A    between atoms: C_12  and  N_13 
REMARK       I    between atoms: N_13  and  C_14 
REMARK    5  A    between atoms: C_14  and  C_15 
ROOT
HETATM    1  C   UNL     1       4.875  26.944  51.132  1.00  0.00     0.037 A 
HETATM    2  C   UNL     1       5.338  25.667  51.475  1.00  0.00     0.059 A 
HETATM    3  C   UNL     1       6.344  25.499  52.437  1.00  0.00     0.037 A 
HETATM    4  C   UNL     1       6.886  26.631  53.057  1.00  0.00     0.029 A 
HETATM    5  C   UNL     1       6.452  27.908  52.705  1.00  0.00     0.004 A 
HETATM    6  C   UNL     1       5.454  28.063  51.743  1.00  0.00     0.029 A 
ENDROOT
BRANCH   1   7
HETATM    7  N   UNL     1       3.849  27.189  50.192  1.00  0.00    -0.322 N 
HETATM    8  C   UNL     1       3.926  27.104  48.816  1.00  0.00     0.274 C 
HETATM    9  O   UNL     1       4.903  26.733  48.177  1.00  0.00    -0.266 OA
HETATM   10  H   UNL     1       2.940  27.398  50.579  1.00  0.00     0.169 HD
BRANCH   8  11
HETATM   11  C   UNL     1       2.710  27.464  48.124  1.00  0.00     0.120 A 
HETATM   12  N   UNL     1       1.557  26.749  48.320  1.00  0.00    -0.273 N 
HETATM   13  N   UNL     1       0.507  27.195  47.613  1.00  0.00    -0.179 NA
HETATM   14  H   UNL     1       1.441  25.944  48.931  1.00  0.00     0.189 HD
HETATM   15  C   UNL     1       0.998  28.228  46.923  1.00  0.00     0.056 A 
HETATM   16  C   UNL     1       2.369  28.441  47.209  1.00  0.00     0.065 A 
BRANCH  15  17
HETATM   17  C   UNL     1       0.126  28.993  45.987  1.00  0.00     0.056 C 
HETATM   18  C   UNL     1      -1.313  28.502  46.009  1.00  0.00     0.011 C 
ENDBRANCH  15  17
ENDBRANCH   8  11
ENDBRANCH   1   7
BRANCH   3  19
HETATM   19  N   UNL     1       6.841  24.243  52.852  1.00  0.00    -0.323 N 
HETATM   20  C   UNL     1       6.854  23.729  54.137  1.00  0.00     0.256 C 
HETATM   21  O   UNL     1       6.367  24.242  55.137  1.00  0.00    -0.267 OA
HETATM   22  H   UNL     1       7.269  23.686  52.126  1.00  0.00     0.169 HD
BRANCH  20  23
HETATM   23  C   UNL     1       7.557  22.424  54.299  1.00  0.00     0.032 A 
HETATM   24  C   UNL     1       7.992  21.768  53.139  1.00  0.00     0.017 A 
HETATM   25  C   UNL     1       8.646  20.539  53.228  1.00  0.00     0.001 A 
HETATM   26  C   UNL     1       8.875  19.962  54.476  1.00  0.00     0.000 A 
HETATM   27  C   UNL     1       8.463  20.619  55.636  1.00  0.00     0.001 A 
HETATM   28  C   UNL     1       7.810  21.852  55.552  1.00  0.00     0.017 A 
ENDBRANCH  20  23
ENDBRANCH   3  19
TORSDOF 5
ENDMDL
MODEL 5
REMARK VINA RESULT:      -8.8      2.561      9.742
REMARK  5 active torsions:
REMARK  status: ('A' for Active; 'I' for Inactive)
REMARK    1  A    between atoms: C_2  and  C_3 
REMARK    2  A    between atoms: C_7  and  C_8 
REMARK       I    between atoms: C_8  and  N_9 
REMARK    3  A    between atoms: N_9  and  C_10 
REMARK    4  A    between atoms: C_12  and  N_13 
REMARK       I    between atoms: N_13  and  C_14 
REMARK    5  A    between atoms: C_14  and  C_15 
ROOT
HETATM    1  C   UNL     1       7.167  27.165  56.022  1.00  0.00     0.037 A 
HETATM    2  C   UNL     1       7.360  27.851  57.228  1.00  0.00     0.059 A 
HETATM    3  C   UNL     1       6.968  29.190  57.366  1.00  0.00     0.037 A 
HETATM    4  C   UNL     1       6.377  29.840  56.277  1.00  0.00     0.029 A 
HETATM    5  C   UNL     1       6.203  29.175  55.064  1.00  0.00     0.004 A 
HETATM    6  C   UNL     1       6.601  27.845  54.937  1.00  0.00     0.029 A 
ENDROOT
BRANCH   1   7
HETATM    7  N   UNL     1       7.512  25.810  55.816  1.00  0.00    -0.322 N 
HETATM    8  C   UNL     1       6.813  24.689  56.220  1.00  0.00     0.274 C 
HETATM    9  O   UNL     1       5.725  24.691  56.782  1.00  0.00    -0.266 OA
HETATM   10  H   UNL     1       8.339  25.647  55.261  1.00  0.00     0.169 HD
BRANCH   8  11
HETATM   11  C   UNL     1       7.454  23.435  55.898  1.00  0.00     0.120 A 
HETATM   12  N   UNL     1       8.252  22.803  56.816  1.00  0.00    -0.273 N 
HETATM   13  N   UNL     1       8.782  21.649  56.381  1.00  0.00    -0.179 NA
HETATM   14  H   UNL     1       8.464  23.125  57.757  1.00  0.00     0.189 HD
HETATM   15  C   UNL     1       8.323  21.534  55.132  1.00  0.00     0.056 A 
HETATM   16  C   UNL     1       7.485  22.622  54.782  1.00  0.00     0.065 A 
BRANCH  15  17
HETATM   17  C   UNL     1       8.710  20.367  54.290  1.00  0.00     0.056 C 
HETATM   18  C   UNL     1       8.217  20.501  52.858  1.00  0.00     0.011 C 
ENDBRANCH  15  17
ENDBRANCH   8  11
ENDBRANCH   1   7
BRANCH   3  19
HETATM   19  N   UNL     1       7.107  29.936  58.558  1.00  0.00    -0.323 N 
HETATM   20  C   UNL     1       8.177  30.733  58.928  1.00  0.00     0.256 C 
HETATM   21  O   UNL     1       9.165  30.995  58.253  1.00  0.00    -0.267 OA
HETATM   22  H   UNL     1       6.354  29.834  59.223  1.00  0.00     0.169 HD
BRANCH  20  23
HETATM   23  C   UNL     1       8.105  31.305  60.304  1.00  0.00     0.032 A 
HETATM   24  C   UNL     1       7.293  32.430  60.502  1.00  0.00     0.017 A 
HETATM   25  C   UNL     1       7.196  33.014  61.765  1.00  0.00     0.001 A 
HETATM   26  C   UNL     1       7.903  32.474  62.837  1.00  0.00     0.000 A 
HETATM   27  C   UNL     1       8.698  31.342  62.652  1.00  0.00     0.001 A 
HETATM   28  C   UNL     1       8.796  30.751  61.389  1.00  0.00     0.017 A 
ENDBRANCH  20  23
ENDBRANCH   3  19
TORSDOF 5
ENDMDL
MODEL 6
REMARK VINA RESULT:      -8.6      2.543      9.534
REMARK  5 active torsions:
REMARK  status: ('A' for Active; 'I' for Inactive)
REMARK    1  A    between atoms: C_2  and  C_3 
REMARK    2  A    between atoms: C_7  and  C_8 
REMARK       I    between atoms: C_8  and  N_9 
REMARK    3  A    between atoms: N_9  and  C_10 
REMARK    4  A    between atoms: C_12  and  N_13 
REMARK       I    between atoms: N_13  and  C_14 
REMARK    5  A    between atoms: C_14  and  C_15 
ROOT
HETATM    1  C   UNL     1       8.829  29.475  56.193  1.00  0.00     0.037 A 
HETATM    2  C   UNL     1       8.276  29.948  57.390  1.00  0.00     0.059 A 
HETATM    3  C   UNL     1       9.091  30.462  58.407  1.00  0.00     0.037 A 
HETATM    4  C   UNL     1      10.477  30.500  58.213  1.00  0.00     0.029 A 
HETATM    5  C   UNL     1      11.041  30.008  57.037  1.00  0.00     0.004 A 
HETATM    6  C   UNL     1      10.219  29.494  56.034  1.00  0.00     0.029 A 
ENDROOT
BRANCH   1   7
HETATM    7  N   UNL     1       8.070  28.967  55.115  1.00  0.00    -0.322 N 
HETATM    8  C   UNL     1       7.406  27.758  55.045  1.00  0.00     0.274 C 
HETATM    9  O   UNL     1       7.316  26.939  55.951  1.00  0.00    -0.266 OA
HETATM   10  H   UNL     1       7.957  29.587  54.326  1.00  0.00     0.169 HD
BRANCH   8  11
HETATM   11  C   UNL     1       6.754  27.504  53.781  1.00  0.00     0.120 A 
HETATM   12  N   UNL     1       6.270  28.540  53.025  1.00  0.00    -0.273 N 
HETATM   13  N   UNL     1       5.688  28.158  51.877  1.00  0.00    -0.179 NA
HETATM   14  H   UNL     1       6.314  29.529  53.255  1.00  0.00     0.189 HD
HETATM   15  C   UNL     1       5.787  26.825  51.894  1.00  0.00     0.056 A 
HETATM   16  C   UNL     1       6.447  26.366  53.061  1.00  0.00     0.065 A 
BRANCH  15  17
HETATM   17  C   UNL     1       5.229  26.013  50.776  1.00  0.00     0.056 C 
HETATM   18  C   UNL     1       4.595  26.877  49.697  1.00  0.00     0.011 C 
ENDBRANCH  15  17
ENDBRANCH   8  11
ENDBRANCH   1   7
BRANCH   3  19
HETATM   19  N   UNL     1       8.601  30.980  59.628  1.00  0.00    -0.323 N 
HETATM   20  C   UNL     1       7.669  31.989  59.797  1.00  0.00     0.256 C 
HETATM   21  O   UNL     1       7.044  32.566  58.915  1.00  0.00    -0.267 OA
HETATM   22  H   UNL     1       9.018  30.589  60.461  1.00  0.00     0.169 HD
BRANCH  20  23
HETATM   23  C   UNL     1       7.435  32.417  61.206  1.00  0.00     0.032 A 
HETATM   24  C   UNL     1       6.271  33.148  61.481  1.00  0.00     0.017 A 
HETATM   25  C   UNL     1       6.003  33.584  62.779  1.00  0.00     0.001 A 
HETATM   26  C   UNL     1       6.893  33.286  63.810  1.00  0.00     0.000 A 
HETATM   27  C   UNL     1       8.043  32.541  63.547  1.00  0.00     0.001 A 
HETATM   28  C   UNL     1       8.314  32.099  62.249  1.00  0.00     0.017 A 
ENDBRANCH  20  23
ENDBRANCH   3  19
TORSDOF 5
ENDMDL
MODEL 7
REMARK VINA RESULT:      -8.3      7.297     10.611
REMARK  5 active torsions:
REMARK  status: ('A' for Active; 'I' for Inactive)
REMARK    1  A    between atoms: C_2  and  C_3 
REMARK    2  A    between atoms: C_7  and  C_8 
REMARK       I    between atoms: C_8  and  N_9 
REMARK    3  A    between atoms: N_9  and  C_10 
REMARK    4  A    between atoms: C_12  and  N_13 
REMARK       I    between atoms: N_13  and  C_14 
REMARK    5  A    between atoms: C_14  and  C_15 
ROOT
HETATM    1  C   UNL     1       4.390  27.357  52.893  1.00  0.00     0.037 A 
HETATM    2  C   UNL     1       5.040  26.122  53.010  1.00  0.00     0.059 A 
HETATM    3  C   UNL     1       5.623  25.726  54.222  1.00  0.00     0.037 A 
HETATM    4  C   UNL     1       5.549  26.586  55.324  1.00  0.00     0.029 A 
HETATM    5  C   UNL     1       4.926  27.829  55.212  1.00  0.00     0.004 A 
HETATM    6  C   UNL     1       4.354  28.213  54.000  1.00  0.00     0.029 A 
ENDROOT
BRANCH   1   7
HETATM    7  N   UNL     1       3.758  27.812  51.713  1.00  0.00    -0.322 N 
HETATM    8  C   UNL     1       4.322  27.982  50.464  1.00  0.00     0.274 C 
HETATM    9  O   UNL     1       5.474  27.702  50.157  1.00  0.00    -0.266 OA
HETATM   10  H   UNL     1       2.765  27.978  51.783  1.00  0.00     0.169 HD
BRANCH   8  11
HETATM   11  C   UNL     1       3.421  28.510  49.467  1.00  0.00     0.120 A 
HETATM   12  N   UNL     1       3.776  28.524  48.143  1.00  0.00    -0.273 N 
HETATM   13  N   UNL     1       2.843  29.043  47.329  1.00  0.00    -0.179 NA
HETATM   14  H   UNL     1       4.650  28.187  47.747  1.00  0.00     0.189 HD
HETATM   15  C   UNL     1       1.852  29.392  48.155  1.00  0.00     0.056 A 
HETATM   16  C   UNL     1       2.162  29.077  49.502  1.00  0.00     0.065 A 
BRANCH  15  17
HETATM   17  C   UNL     1       0.617  30.034  47.624  1.00  0.00     0.056 C 
HETATM   18  C   UNL     1       0.573  30.027  46.104  1.00  0.00     0.011 C 
ENDBRANCH  15  17
ENDBRANCH   8  11
ENDBRANCH   1   7
BRANCH   3  19
HETATM   19  N   UNL     1       6.272  24.486  54.420  1.00  0.00    -0.323 N 
HETATM   20  C   UNL     1       7.378  24.001  53.745  1.00  0.00     0.256 C 
HETATM   21  O   UNL     1       8.041  24.593  52.902  1.00  0.00    -0.267 OA
HETATM   22  H   UNL     1       5.844  23.880  55.106  1.00  0.00     0.169 HD
BRANCH  20  23
HETATM   23  C   UNL     1       7.772  22.602  54.080  1.00  0.00     0.032 A 
HETATM   24  C   UNL     1       7.610  22.179  55.407  1.00  0.00     0.017 A 
HETATM   25  C   UNL     1       7.972  20.885  55.782  1.00  0.00     0.001 A 
HETATM   26  C   UNL     1       8.489  20.004  54.833  1.00  0.00     0.000 A 
HETATM   27  C   UNL     1       8.633  20.412  53.506  1.00  0.00     0.001 A 
HETATM   28  C   UNL     1       8.270  21.707  53.125  1.00  0.00     0.017 A 
ENDBRANCH  20  23
ENDBRANCH   3  19
TORSDOF 5
ENDMDL
MODEL 8
REMARK VINA RESULT:      -8.1      8.207     11.135
REMARK  5 active torsions:
REMARK  status: ('A' for Active; 'I' for Inactive)
REMARK    1  A    between atoms: C_2  and  C_3 
REMARK    2  A    between atoms: C_7  and  C_8 
REMARK       I    between atoms: C_8  and  N_9 
REMARK    3  A    between atoms: N_9  and  C_10 
REMARK    4  A    between atoms: C_12  and  N_13 
REMARK       I    between atoms: N_13  and  C_14 
REMARK    5  A    between atoms: C_14  and  C_15 
ROOT
HETATM    1  C   UNL     1       5.919  26.145  52.687  1.00  0.00     0.037 A 
HETATM    2  C   UNL     1       4.943  26.255  51.690  1.00  0.00     0.059 A 
HETATM    3  C   UNL     1       4.551  27.507  51.198  1.00  0.00     0.037 A 
HETATM    4  C   UNL     1       5.152  28.659  51.720  1.00  0.00     0.029 A 
HETATM    5  C   UNL     1       6.106  28.564  52.731  1.00  0.00     0.004 A 
HETATM    6  C   UNL     1       6.484  27.312  53.216  1.00  0.00     0.029 A 
ENDROOT
BRANCH   1   7
HETATM    7  N   UNL     1       6.382  24.918  53.213  1.00  0.00    -0.322 N 
HETATM    8  C   UNL     1       7.448  24.158  52.772  1.00  0.00     0.274 C 
HETATM    9  O   UNL     1       8.219  24.465  51.872  1.00  0.00    -0.266 OA
HETATM   10  H   UNL     1       5.909  24.589  54.042  1.00  0.00     0.169 HD
BRANCH   8  11
HETATM   11  C   UNL     1       7.641  22.921  53.493  1.00  0.00     0.120 A 
HETATM   12  N   UNL     1       7.778  21.735  52.820  1.00  0.00    -0.273 N 
HETATM   13  N   UNL     1       7.950  20.668  53.616  1.00  0.00    -0.179 NA
HETATM   14  H   UNL     1       7.760  21.606  51.812  1.00  0.00     0.189 HD
HETATM   15  C   UNL     1       7.910  21.177  54.851  1.00  0.00     0.056 A 
HETATM   16  C   UNL     1       7.723  22.582  54.829  1.00  0.00     0.065 A 
BRANCH  15  17
HETATM   17  C   UNL     1       8.049  20.288  56.039  1.00  0.00     0.056 C 
HETATM   18  C   UNL     1       8.389  21.063  57.302  1.00  0.00     0.011 C 
ENDBRANCH  15  17
ENDBRANCH   8  11
ENDBRANCH   1   7
BRANCH   3  19
HETATM   19  N   UNL     1       3.593  27.693  50.176  1.00  0.00    -0.323 N 
HETATM   20  C   UNL     1       3.682  27.278  48.858  1.00  0.00     0.256 C 
HETATM   21  O   UNL     1       4.578  26.607  48.359  1.00  0.00    -0.267 OA
HETATM   22  H   UNL     1       2.776  28.225  50.440  1.00  0.00     0.169 HD
BRANCH  20  23
HETATM   23  C   UNL     1       2.571  27.722  47.969  1.00  0.00     0.032 A 
HETATM   24  C   UNL     1       2.605  29.040  47.491  1.00  0.00     0.017 A 
HETATM   25  C   UNL     1       1.587  29.515  46.664  1.00  0.00     0.001 A 
HETATM   26  C   UNL     1       0.534  28.676  46.304  1.00  0.00     0.000 A 
HETATM   27  C   UNL     1       0.504  27.357  46.760  1.00  0.00     0.001 A 
HETATM   28  C   UNL     1       1.523  26.875  47.586  1.00  0.00     0.017 A 
ENDBRANCH  20  23
ENDBRANCH   3  19
TORSDOF 5
ENDMDL
MODEL 9
REMARK VINA RESULT:      -8.0      4.786      7.479
REMARK  5 active torsions:
REMARK  status: ('A' for Active; 'I' for Inactive)
REMARK    1  A    between atoms: C_2  and  C_3 
REMARK    2  A    between atoms: C_7  and  C_8 
REMARK       I    between atoms: C_8  and  N_9 
REMARK    3  A    between atoms: N_9  and  C_10 
REMARK    4  A    between atoms: C_12  and  N_13 
REMARK       I    between atoms: N_13  and  C_14 
REMARK    5  A    between atoms: C_14  and  C_15 
ROOT
HETATM    1  C   UNL     1       6.763  26.521  54.079  1.00  0.00     0.037 A 
HETATM    2  C   UNL     1       5.881  26.759  53.017  1.00  0.00     0.059 A 
HETATM    3  C   UNL     1       5.735  25.828  51.980  1.00  0.00     0.037 A 
HETATM    4  C   UNL     1       6.486  24.647  52.016  1.00  0.00     0.029 A 
HETATM    5  C   UNL     1       7.386  24.412  53.055  1.00  0.00     0.004 A 
HETATM    6  C   UNL     1       7.526  25.348  54.079  1.00  0.00     0.029 A 
ENDROOT
BRANCH   1   7
HETATM    7  N   UNL     1       6.945  27.400  55.171  1.00  0.00    -0.322 N 
HETATM    8  C   UNL     1       7.894  28.394  55.307  1.00  0.00     0.274 C 
HETATM    9  O   UNL     1       8.712  28.721  54.456  1.00  0.00    -0.266 OA
HETATM   10  H   UNL     1       6.264  27.326  55.913  1.00  0.00     0.169 HD
BRANCH   8  11
HETATM   11  C   UNL     1       7.851  29.096  56.568  1.00  0.00     0.120 A 
HETATM   12  N   UNL     1       6.818  29.948  56.859  1.00  0.00    -0.273 N 
HETATM   13  N   UNL     1       6.908  30.531  58.065  1.00  0.00    -0.179 NA
HETATM   14  H   UNL     1       6.025  30.163  56.260  1.00  0.00     0.189 HD
HETATM   15  C   UNL     1       8.048  30.051  58.571  1.00  0.00     0.056 A 
HETATM   16  C   UNL     1       8.674  29.147  57.677  1.00  0.00     0.065 A 
BRANCH  15  17
HETATM   17  C   UNL     1       8.517  30.483  59.917  1.00  0.00     0.056 C 
HETATM   18  C   UNL     1       7.615  31.544  60.528  1.00  0.00     0.011 C 
ENDBRANCH  15  17
ENDBRANCH   8  11
ENDBRANCH   1   7
BRANCH   3  19
HETATM   19  N   UNL     1       4.846  25.988  50.892  1.00  0.00    -0.323 N 
HETATM   20  C   UNL     1       4.821  27.025  49.976  1.00  0.00     0.256 C 
HETATM   21  O   UNL     1       5.615  27.955  49.899  1.00  0.00    -0.267 OA
HETATM   22  H   UNL     1       4.130  25.281  50.812  1.00  0.00     0.169 HD
BRANCH  20  23
HETATM   23  C   UNL     1       3.689  26.996  49.006  1.00  0.00     0.032 A 
HETATM   24  C   UNL     1       3.673  25.969  48.053  1.00  0.00     0.017 A 
HETATM   25  C   UNL     1       2.646  25.897  47.112  1.00  0.00     0.001 A 
HETATM   26  C   UNL     1       1.625  26.847  47.123  1.00  0.00     0.000 A 
HETATM   27  C   UNL     1       1.624  27.861  48.081  1.00  0.00     0.001 A 
HETATM   28  C   UNL     1       2.650  27.935  49.028  1.00  0.00     0.017 A 
ENDBRANCH  20  23
ENDBRANCH   3  19
TORSDOF 5
ENDMDL
MODEL 10
REMARK VINA RESULT:      -8.0      5.011      6.532
REMARK  5 active torsions:
REMARK  status: ('A' for Active; 'I' for Inactive)
REMARK    1  A    between atoms: C_2  and  C_3 
REMARK    2  A    between atoms: C_7  and  C_8 
REMARK       I    between atoms: C_8  and  N_9 
REMARK    3  A    between atoms: N_9  and  C_10 
REMARK    4  A    between atoms: C_12  and  N_13 
REMARK       I    between atoms: N_13  and  C_14 
REMARK    5  A    between atoms: C_14  and  C_15 
ROOT
HETATM    1  C   UNL     1       6.249  28.776  56.354  1.00  0.00     0.037 A 
HETATM    2  C   UNL     1       6.368  27.468  55.868  1.00  0.00     0.059 A 
HETATM    3  C   UNL     1       7.458  26.662  56.225  1.00  0.00     0.037 A 
HETATM    4  C   UNL     1       8.436  27.183  57.080  1.00  0.00     0.029 A 
HETATM    5  C   UNL     1       8.341  28.492  57.550  1.00  0.00     0.004 A 
HETATM    6  C   UNL     1       7.255  29.286  57.184  1.00  0.00     0.029 A 
ENDROOT
BRANCH   1   7
HETATM    7  N   UNL     1       5.168  29.637  56.058  1.00  0.00    -0.322 N 
HETATM    8  C   UNL     1       4.629  29.922  54.819  1.00  0.00     0.274 C 
HETATM    9  O   UNL     1       4.972  29.415  53.758  1.00  0.00    -0.266 OA
HETATM   10  H   UNL     1       4.702  30.047  56.855  1.00  0.00     0.169 HD
BRANCH   8  11
HETATM   11  C   UNL     1       3.552  30.884  54.840  1.00  0.00     0.120 A 
HETATM   12  N   UNL     1       2.810  31.075  55.977  1.00  0.00    -0.273 N 
HETATM   13  N   UNL     1       1.843  31.998  55.852  1.00  0.00    -0.179 NA
HETATM   14  H   UNL     1       2.928  30.595  56.864  1.00  0.00     0.189 HD
HETATM   15  C   UNL     1       1.952  32.412  54.586  1.00  0.00     0.056 A 
HETATM   16  C   UNL     1       3.008  31.749  53.912  1.00  0.00     0.065 A 
BRANCH  15  17
HETATM   17  C   UNL     1       1.022  33.443  54.046  1.00  0.00     0.056 C 
HETATM   18  C   UNL     1      -0.372  33.330  54.642  1.00  0.00     0.011 C 
ENDBRANCH  15  17
ENDBRANCH   8  11
ENDBRANCH   1   7
BRANCH   3  19
HETATM   19  N   UNL     1       7.630  25.327  55.794  1.00  0.00    -0.323 N 
HETATM   20  C   UNL     1       7.743  24.874  54.492  1.00  0.00     0.256 C 
HETATM   21  O   UNL     1       7.789  25.560  53.478  1.00  0.00    -0.267 OA
HETATM   22  H   UNL     1       7.626  24.632  56.528  1.00  0.00     0.169 HD
BRANCH  20  23
HETATM   23  C   UNL     1       7.790  23.392  54.329  1.00  0.00     0.032 A 
HETATM   24  C   UNL     1       7.660  22.605  55.482  1.00  0.00     0.017 A 
HETATM   25  C   UNL     1       7.708  21.213  55.393  1.00  0.00     0.001 A 
HETATM   26  C   UNL     1       7.879  20.601  54.152  1.00  0.00     0.000 A 
HETATM   27  C   UNL     1       7.989  21.378  52.998  1.00  0.00     0.001 A 
HETATM   28  C   UNL     1       7.938  22.773  53.082  1.00  0.00     0.017 A 
ENDBRANCH  20  23
ENDBRANCH   3  19
TORSDOF 5
ENDMDL
