MODEL 1
REMARK VINA RESULT:     -10.3      0.000      0.000
REMARK  7 active torsions:
REMARK  status: ('A' for Active; 'I' for Inactive)
REMARK    1  A    between atoms: C_4  and  C_5 
REMARK    2  A    between atoms: C_5  and  O_6 
REMARK    3  A    between atoms: C_5  and  C_7 
REMARK    4  A    between atoms: C_9  and  C_10 
REMARK    5  A    between atoms: C_10  and  N_11 
REMARK       I    between atoms: N_11  and  C_12 
REMARK    6  A    between atoms: C_12  and  C_13 
REMARK       I    between atoms: C_13  and  N_14 
REMARK    7  A    between atoms: N_14  and  C_15 
ROOT
HETATM    1  N   UNL     1       8.930  30.382  57.590  1.00  0.00    -0.348 N 
HETATM    2  C   UNL     1       9.850  31.212  58.180  1.00  0.00     0.310 C 
HETATM    3  O   UNL     1      10.978  31.449  57.766  1.00  0.00    -0.262 OA
HETATM    4  H   UNL     1       8.078  30.194  58.114  1.00  0.00     0.163 HD
ENDROOT
BRANCH   2   5
HETATM    5  C   UNL     1       9.367  31.851  59.501  1.00  0.00     0.313 C 
HETATM    6  N   UNL     1       7.994  31.797  59.621  1.00  0.00    -0.319 N 
HETATM    7  H   UNL     1       7.524  31.349  58.838  1.00  0.00     0.169 HD
HETATM    8  O   UNL     1      10.194  32.336  60.258  1.00  0.00    -0.262 OA
BRANCH   6   9
HETATM    9  C   UNL     1       7.197  32.322  60.651  1.00  0.00     0.036 A 
HETATM   10  C   UNL     1       5.906  32.811  60.456  1.00  0.00     0.039 A 
HETATM   11  C   UNL     1       5.149  33.282  61.542  1.00  0.00    -0.028 A 
HETATM   12  C   UNL     1       5.691  33.278  62.834  1.00  0.00     0.050 A 
HETATM   13  C   UNL     1       3.791  33.878  61.320  1.00  0.00     0.050 C 
HETATM   14  N   UNL     1       4.905  33.738  63.923  1.00  0.00    -0.317 N 
HETATM   15  C   UNL     1       7.010  32.843  63.028  1.00  0.00    -0.028 A 
HETATM   16  C   UNL     1       3.535  33.960  63.813  1.00  0.00     0.224 C 
HETATM   17  C   UNL     1       5.501  33.817  65.253  1.00  0.00     0.132 C 
HETATM   18  O   UNL     1       2.837  34.341  64.754  1.00  0.00    -0.273 OA
HETATM   19  C   UNL     1       2.893  33.575  62.499  1.00  0.00     0.108 C 
HETATM   20  C   UNL     1       7.013  33.967  65.237  1.00  0.00     0.025 C 
HETATM   21  C   UNL     1       7.631  32.860  64.399  1.00  0.00     0.042 C 
HETATM   22  C   UNL     1       7.746  32.348  61.938  1.00  0.00     0.039 A 
ENDBRANCH   6   9
ENDBRANCH   2   5
BRANCH   1  23
HETATM   23  C   UNL     1       9.276  29.569  56.455  1.00  0.00     0.169 C 
BRANCH  23  24
HETATM   24  C   UNL     1       8.359  28.393  56.409  1.00  0.00     0.001 A 
HETATM   25  S   UNL     1       7.719  27.852  54.915  1.00  0.00    -0.095 SA
HETATM   26  C   UNL     1       6.830  26.588  55.663  1.00  0.00     0.017 A 
HETATM   27  C   UNL     1       7.034  26.583  57.032  1.00  0.00     0.018 A 
HETATM   28  C   UNL     1       7.914  27.617  57.459  1.00  0.00     0.017 A 
BRANCH  26  29
HETATM   29  C   UNL     1       5.974  25.678  54.822  1.00  0.00     0.198 C 
BRANCH  29  30
HETATM   30  C   UNL     1       6.722  24.500  54.259  1.00  0.00     0.016 A 
HETATM   31  S   UNL     1       7.279  23.264  55.315  1.00  0.00    -0.103 SA
HETATM   32  C   UNL     1       7.992  22.393  54.029  1.00  0.00     0.050 A 
HETATM   33  C   UNL     1       7.815  23.020  52.818  1.00  0.00     0.008 A 
HETATM   34  C   UNL     1       7.087  24.238  52.950  1.00  0.00     0.018 A 
ENDBRANCH  29  30
BRANCH  29  35
HETATM   35  O   UNL     1       4.956  25.144  55.671  1.00  0.00    -0.385 OA
HETATM   36  H   UNL     1       4.848  25.787  56.393  1.00  0.00     0.210 HD
ENDBRANCH  29  35
ENDBRANCH  26  29
ENDBRANCH  23  24
ENDBRANCH   1  23
TORSDOF 7
ENDMDL
MODEL 2
REMARK VINA RESULT:     -10.2      3.510     11.130
REMARK  7 active torsions:
REMARK  status: ('A' for Active; 'I' for Inactive)
REMARK    1  A    between atoms: C_4  and  C_5 
REMARK    2  A    between atoms: C_5  and  O_6 
REMARK    3  A    between atoms: C_5  and  C_7 
REMARK    4  A    between atoms: C_9  and  C_10 
REMARK    5  A    between atoms: C_10  and  N_11 
REMARK       I    between atoms: N_11  and  C_12 
REMARK    6  A    between atoms: C_12  and  C_13 
REMARK       I    between atoms: C_13  and  N_14 
REMARK    7  A    between atoms: N_14  and  C_15 
ROOT
HETATM    1  N   UNL     1       8.082  30.427  58.369  1.00  0.00    -0.348 N 
HETATM    2  C   UNL     1       6.873  30.289  57.733  1.00  0.00     0.310 C 
HETATM    3  O   UNL     1       6.072  31.185  57.502  1.00  0.00    -0.262 OA
HETATM    4  H   UNL     1       8.584  29.570  58.592  1.00  0.00     0.163 HD
ENDROOT
BRANCH   2   5
HETATM    5  C   UNL     1       6.539  28.837  57.325  1.00  0.00     0.313 C 
HETATM    6  N   UNL     1       7.608  28.220  56.709  1.00  0.00    -0.319 N 
HETATM    7  H   UNL     1       8.435  28.807  56.625  1.00  0.00     0.169 HD
HETATM    8  O   UNL     1       5.418  28.404  57.551  1.00  0.00    -0.262 OA
BRANCH   6   9
HETATM    9  C   UNL     1       7.659  26.931  56.157  1.00  0.00     0.036 A 
HETATM   10  C   UNL     1       7.267  26.633  54.852  1.00  0.00     0.039 A 
HETATM   11  C   UNL     1       7.387  25.326  54.351  1.00  0.00    -0.028 A 
HETATM   12  C   UNL     1       7.889  24.302  55.164  1.00  0.00     0.050 A 
HETATM   13  C   UNL     1       6.895  24.992  52.974  1.00  0.00     0.050 C 
HETATM   14  N   UNL     1       8.023  22.991  54.636  1.00  0.00    -0.317 N 
HETATM   15  C   UNL     1       8.229  24.582  56.496  1.00  0.00    -0.028 A 
HETATM   16  C   UNL     1       7.916  22.721  53.275  1.00  0.00     0.224 C 
HETATM   17  C   UNL     1       8.462  21.908  55.510  1.00  0.00     0.132 C 
HETATM   18  O   UNL     1       8.049  21.592  52.799  1.00  0.00    -0.273 OA
HETATM   19  C   UNL     1       7.764  23.917  52.360  1.00  0.00     0.108 C 
HETATM   20  C   UNL     1       8.166  22.152  56.980  1.00  0.00     0.025 C 
HETATM   21  C   UNL     1       8.738  23.496  57.404  1.00  0.00     0.042 C 
HETATM   22  C   UNL     1       8.131  25.899  56.976  1.00  0.00     0.039 A 
ENDBRANCH   6   9
ENDBRANCH   2   5
BRANCH   1  23
HETATM   23  C   UNL     1       8.470  31.672  58.973  1.00  0.00     0.169 C 
BRANCH  23  24
HETATM   24  C   UNL     1       8.069  31.655  60.410  1.00  0.00     0.001 A 
HETATM   25  S   UNL     1       6.584  32.352  60.903  1.00  0.00    -0.095 SA
HETATM   26  C   UNL     1       6.860  31.967  62.553  1.00  0.00     0.017 A 
HETATM   27  C   UNL     1       8.067  31.309  62.712  1.00  0.00     0.018 A 
HETATM   28  C   UNL     1       8.759  31.127  61.482  1.00  0.00     0.017 A 
BRANCH  26  29
HETATM   29  C   UNL     1       5.842  32.358  63.591  1.00  0.00     0.198 C 
BRANCH  29  30
HETATM   30  C   UNL     1       5.323  33.761  63.428  1.00  0.00     0.016 A 
HETATM   31  S   UNL     1       3.677  34.014  63.008  1.00  0.00    -0.103 SA
HETATM   32  C   UNL     1       3.874  35.711  62.981  1.00  0.00     0.050 A 
HETATM   33  C   UNL     1       5.162  36.088  63.284  1.00  0.00     0.008 A 
HETATM   34  C   UNL     1       6.000  34.964  63.537  1.00  0.00     0.018 A 
ENDBRANCH  29  30
BRANCH  29  35
HETATM   35  O   UNL     1       4.718  31.490  63.435  1.00  0.00    -0.385 OA
HETATM   36  H   UNL     1       4.514  31.487  62.484  1.00  0.00     0.210 HD
ENDBRANCH  29  35
ENDBRANCH  26  29
ENDBRANCH  23  24
ENDBRANCH   1  23
TORSDOF 7
ENDMDL
MODEL 3
REMARK VINA RESULT:     -10.2      1.164      2.396
REMARK  7 active torsions:
REMARK  status: ('A' for Active; 'I' for Inactive)
REMARK    1  A    between atoms: C_4  and  C_5 
REMARK    2  A    between atoms: C_5  and  O_6 
REMARK    3  A    between atoms: C_5  and  C_7 
REMARK    4  A    between atoms: C_9  and  C_10 
REMARK    5  A    between atoms: C_10  and  N_11 
REMARK       I    between atoms: N_11  and  C_12 
REMARK    6  A    between atoms: C_12  and  C_13 
REMARK       I    between atoms: C_13  and  N_14 
REMARK    7  A    between atoms: N_14  and  C_15 
ROOT
HETATM    1  N   UNL     1       8.963  30.147  57.997  1.00  0.00    -0.348 N 
HETATM    2  C   UNL     1       9.449  31.249  58.656  1.00  0.00     0.310 C 
HETATM    3  O   UNL     1      10.270  32.047  58.222  1.00  0.00    -0.262 OA
HETATM    4  H   UNL     1       8.374  29.514  58.532  1.00  0.00     0.163 HD
ENDROOT
BRANCH   2   5
HETATM    5  C   UNL     1       8.890  31.424  60.085  1.00  0.00     0.313 C 
HETATM    6  N   UNL     1       7.793  32.260  60.106  1.00  0.00    -0.319 N 
HETATM    7  H   UNL     1       7.526  32.620  59.192  1.00  0.00     0.169 HD
HETATM    8  O   UNL     1       9.452  30.859  61.012  1.00  0.00    -0.262 OA
BRANCH   6   9
HETATM    9  C   UNL     1       7.060  32.694  61.222  1.00  0.00     0.036 A 
HETATM   10  C   UNL     1       7.559  32.688  62.524  1.00  0.00     0.039 A 
HETATM   11  C   UNL     1       6.785  33.179  63.588  1.00  0.00    -0.028 A 
HETATM   12  C   UNL     1       5.493  33.668  63.353  1.00  0.00     0.050 A 
HETATM   13  C   UNL     1       7.292  33.101  64.997  1.00  0.00     0.050 C 
HETATM   14  N   UNL     1       4.731  34.180  64.437  1.00  0.00    -0.317 N 
HETATM   15  C   UNL     1       4.963  33.622  62.056  1.00  0.00    -0.028 A 
HETATM   16  C   UNL     1       5.294  34.452  65.680  1.00  0.00     0.224 C 
HETATM   17  C   UNL     1       3.354  34.606  64.206  1.00  0.00     0.132 C 
HETATM   18  O   UNL     1       4.649  34.914  66.625  1.00  0.00    -0.273 OA
HETATM   19  C   UNL     1       6.793  34.285  65.794  1.00  0.00     0.108 C 
HETATM   20  C   UNL     1       2.698  33.931  63.014  1.00  0.00     0.025 C 
HETATM   21  C   UNL     1       3.566  34.109  61.779  1.00  0.00     0.042 C 
HETATM   22  C   UNL     1       5.759  33.156  60.996  1.00  0.00     0.039 A 
ENDBRANCH   6   9
ENDBRANCH   2   5
BRANCH   1  23
HETATM   23  C   UNL     1       9.507  29.734  56.731  1.00  0.00     0.169 C 
BRANCH  23  24
HETATM   24  C   UNL     1       8.644  28.656  56.166  1.00  0.00     0.001 A 
HETATM   25  S   UNL     1       8.302  27.250  57.083  1.00  0.00    -0.095 SA
HETATM   26  C   UNL     1       7.349  26.567  55.828  1.00  0.00     0.017 A 
HETATM   27  C   UNL     1       7.293  27.413  54.734  1.00  0.00     0.018 A 
HETATM   28  C   UNL     1       8.033  28.613  54.930  1.00  0.00     0.017 A 
BRANCH  26  29
HETATM   29  C   UNL     1       6.719  25.214  56.021  1.00  0.00     0.198 C 
BRANCH  29  30
HETATM   30  C   UNL     1       7.376  24.123  55.220  1.00  0.00     0.016 A 
HETATM   31  S   UNL     1       8.642  23.198  55.923  1.00  0.00    -0.103 SA
HETATM   32  C   UNL     1       8.859  22.284  54.496  1.00  0.00     0.050 A 
HETATM   33  C   UNL     1       7.992  22.667  53.499  1.00  0.00     0.008 A 
HETATM   34  C   UNL     1       7.139  23.730  53.914  1.00  0.00     0.018 A 
ENDBRANCH  29  30
BRANCH  29  35
HETATM   35  O   UNL     1       6.881  24.860  57.396  1.00  0.00    -0.385 OA
HETATM   36  H   UNL     1       6.994  23.895  57.411  1.00  0.00     0.210 HD
ENDBRANCH  29  35
ENDBRANCH  26  29
ENDBRANCH  23  24
ENDBRANCH   1  23
TORSDOF 7
ENDMDL
MODEL 4
REMARK VINA RESULT:     -10.2      1.882      2.619
REMARK  7 active torsions:
REMARK  status: ('A' for Active; 'I' for Inactive)
REMARK    1  A    between atoms: C_4  and  C_5 
REMARK    2  A    between atoms: C_5  and  O_6 
REMARK    3  A    between atoms: C_5  and  C_7 
REMARK    4  A    between atoms: C_9  and  C_10 
REMARK    5  A    between atoms: C_10  and  N_11 
REMARK       I    between atoms: N_11  and  C_12 
REMARK    6  A    between atoms: C_12  and  C_13 
REMARK       I    between atoms: C_13  and  N_14 
REMARK    7  A    between atoms: N_14  and  C_15 
ROOT
HETATM    1  N   UNL     1       7.431  28.795  55.439  1.00  0.00    -0.348 N 
HETATM    2  C   UNL     1       8.380  29.320  56.280  1.00  0.00     0.310 C 
HETATM    3  O   UNL     1       9.537  29.589  55.985  1.00  0.00    -0.262 OA
HETATM    4  H   UNL     1       6.547  28.517  55.860  1.00  0.00     0.163 HD
ENDROOT
BRANCH   2   5
HETATM    5  C   UNL     1       7.886  29.541  57.727  1.00  0.00     0.313 C 
HETATM    6  N   UNL     1       7.410  30.821  57.914  1.00  0.00    -0.319 N 
HETATM    7  H   UNL     1       7.453  31.408  57.084  1.00  0.00     0.169 HD
HETATM    8  O   UNL     1       7.980  28.622  58.528  1.00  0.00    -0.262 OA
BRANCH   6   9
HETATM    9  C   UNL     1       6.934  31.399  59.102  1.00  0.00     0.036 A 
HETATM   10  C   UNL     1       5.711  32.062  59.203  1.00  0.00     0.039 A 
HETATM   11  C   UNL     1       5.279  32.578  60.436  1.00  0.00    -0.028 A 
HETATM   12  C   UNL     1       6.081  32.446  61.576  1.00  0.00     0.050 A 
HETATM   13  C   UNL     1       4.000  33.357  60.527  1.00  0.00     0.050 C 
HETATM   14  N   UNL     1       5.620  32.956  62.819  1.00  0.00    -0.317 N 
HETATM   15  C   UNL     1       7.338  31.834  61.469  1.00  0.00    -0.028 A 
HETATM   16  C   UNL     1       4.302  33.360  63.016  1.00  0.00     0.224 C 
HETATM   17  C   UNL     1       6.494  32.897  63.986  1.00  0.00     0.132 C 
HETATM   18  O   UNL     1       3.882  33.786  64.094  1.00  0.00    -0.273 OA
HETATM   19  C   UNL     1       3.345  33.121  61.870  1.00  0.00     0.108 C 
HETATM   20  C   UNL     1       7.972  32.848  63.640  1.00  0.00     0.025 C 
HETATM   21  C   UNL     1       8.236  31.708  62.670  1.00  0.00     0.042 C 
HETATM   22  C   UNL     1       7.746  31.296  60.237  1.00  0.00     0.039 A 
ENDBRANCH   6   9
ENDBRANCH   2   5
BRANCH   1  23
HETATM   23  C   UNL     1       7.768  28.362  54.110  1.00  0.00     0.169 C 
BRANCH  23  24
HETATM   24  C   UNL     1       7.592  26.882  54.027  1.00  0.00     0.001 A 
HETATM   25  S   UNL     1       7.384  25.954  55.452  1.00  0.00    -0.095 SA
HETATM   26  C   UNL     1       7.278  24.483  54.573  1.00  0.00     0.017 A 
HETATM   27  C   UNL     1       7.392  24.711  53.213  1.00  0.00     0.018 A 
HETATM   28  C   UNL     1       7.569  26.088  52.899  1.00  0.00     0.017 A 
BRANCH  26  29
HETATM   29  C   UNL     1       7.091  23.184  55.311  1.00  0.00     0.198 C 
BRANCH  29  30
HETATM   30  C   UNL     1       7.735  22.006  54.630  1.00  0.00     0.016 A 
HETATM   31  S   UNL     1       8.554  20.826  55.571  1.00  0.00    -0.103 SA
HETATM   32  C   UNL     1       8.994  19.928  54.186  1.00  0.00     0.050 A 
HETATM   33  C   UNL     1       8.531  20.505  53.026  1.00  0.00     0.008 A 
HETATM   34  C   UNL     1       7.809  21.707  53.281  1.00  0.00     0.018 A 
ENDBRANCH  29  30
BRANCH  29  35
HETATM   35  O   UNL     1       7.733  23.319  56.581  1.00  0.00    -0.385 OA
HETATM   36  H   UNL     1       8.540  23.836  56.417  1.00  0.00     0.210 HD
ENDBRANCH  29  35
ENDBRANCH  26  29
ENDBRANCH  23  24
ENDBRANCH   1  23
TORSDOF 7
ENDMDL
MODEL 5
REMARK VINA RESULT:     -10.0      3.461     10.565
REMARK  7 active torsions:
REMARK  status: ('A' for Active; 'I' for Inactive)
REMARK    1  A    between atoms: C_4  and  C_5 
REMARK    2  A    between atoms: C_5  and  O_6 
REMARK    3  A    between atoms: C_5  and  C_7 
REMARK    4  A    between atoms: C_9  and  C_10 
REMARK    5  A    between atoms: C_10  and  N_11 
REMARK       I    between atoms: N_11  and  C_12 
REMARK    6  A    between atoms: C_12  and  C_13 
REMARK       I    between atoms: C_13  and  N_14 
REMARK    7  A    between atoms: N_14  and  C_15 
ROOT
HETATM    1  N   UNL     1       9.374  30.707  59.709  1.00  0.00    -0.348 N 
HETATM    2  C   UNL     1       9.894  31.050  58.485  1.00  0.00     0.310 C 
HETATM    3  O   UNL     1      10.585  32.030  58.243  1.00  0.00    -0.262 OA
HETATM    4  H   UNL     1       8.722  29.926  59.728  1.00  0.00     0.163 HD
ENDROOT
BRANCH   2   5
HETATM    5  C   UNL     1       9.506  30.083  57.344  1.00  0.00     0.313 C 
HETATM    6  N   UNL     1       8.335  29.410  57.620  1.00  0.00    -0.319 N 
HETATM    7  H   UNL     1       7.915  29.654  58.515  1.00  0.00     0.169 HD
HETATM    8  O   UNL     1      10.242  29.994  56.372  1.00  0.00    -0.262 OA
BRANCH   6   9
HETATM    9  C   UNL     1       7.707  28.419  56.849  1.00  0.00     0.036 A 
HETATM   10  C   UNL     1       6.598  28.657  56.039  1.00  0.00     0.039 A 
HETATM   11  C   UNL     1       6.047  27.626  55.260  1.00  0.00    -0.028 A 
HETATM   12  C   UNL     1       6.600  26.340  55.301  1.00  0.00     0.050 A 
HETATM   13  C   UNL     1       4.809  27.865  54.449  1.00  0.00     0.050 C 
HETATM   14  N   UNL     1       6.045  25.313  54.491  1.00  0.00    -0.317 N 
HETATM   15  C   UNL     1       7.679  26.078  56.159  1.00  0.00    -0.028 A 
HETATM   16  C   UNL     1       5.136  25.579  53.471  1.00  0.00     0.224 C 
HETATM   17  C   UNL     1       6.565  23.954  54.601  1.00  0.00     0.132 C 
HETATM   18  O   UNL     1       4.659  24.701  52.748  1.00  0.00    -0.273 OA
HETATM   19  C   UNL     1       4.851  27.036  53.184  1.00  0.00     0.108 C 
HETATM   20  C   UNL     1       7.210  23.654  55.943  1.00  0.00     0.025 C 
HETATM   21  C   UNL     1       8.272  24.699  56.249  1.00  0.00     0.042 C 
HETATM   22  C   UNL     1       8.238  27.126  56.910  1.00  0.00     0.039 A 
ENDBRANCH   6   9
ENDBRANCH   2   5
BRANCH   1  23
HETATM   23  C   UNL     1       9.486  31.587  60.841  1.00  0.00     0.169 C 
BRANCH  23  24
HETATM   24  C   UNL     1       8.117  32.005  61.261  1.00  0.00     0.001 A 
HETATM   25  S   UNL     1       7.792  32.390  62.898  1.00  0.00    -0.095 SA
HETATM   26  C   UNL     1       6.139  32.723  62.575  1.00  0.00     0.017 A 
HETATM   27  C   UNL     1       5.853  32.549  61.232  1.00  0.00     0.018 A 
HETATM   28  C   UNL     1       6.989  32.140  60.478  1.00  0.00     0.017 A 
BRANCH  26  29
HETATM   29  C   UNL     1       5.228  33.137  63.700  1.00  0.00     0.198 C 
BRANCH  29  30
HETATM   30  C   UNL     1       5.206  34.622  63.943  1.00  0.00     0.016 A 
HETATM   31  S   UNL     1       4.514  35.235  65.391  1.00  0.00    -0.103 SA
HETATM   32  C   UNL     1       4.818  36.852  64.932  1.00  0.00     0.050 A 
HETATM   33  C   UNL     1       5.433  36.935  63.704  1.00  0.00     0.008 A 
HETATM   34  C   UNL     1       5.653  35.650  63.131  1.00  0.00     0.018 A 
ENDBRANCH  29  30
BRANCH  29  35
HETATM   35  O   UNL     1       3.898  32.768  63.329  1.00  0.00    -0.385 OA
HETATM   36  H   UNL     1       3.837  31.808  63.477  1.00  0.00     0.210 HD
ENDBRANCH  29  35
ENDBRANCH  26  29
ENDBRANCH  23  24
ENDBRANCH   1  23
TORSDOF 7
ENDMDL
MODEL 6
REMARK VINA RESULT:      -9.8      2.946      9.281
REMARK  7 active torsions:
REMARK  status: ('A' for Active; 'I' for Inactive)
REMARK    1  A    between atoms: C_4  and  C_5 
REMARK    2  A    between atoms: C_5  and  O_6 
REMARK    3  A    between atoms: C_5  and  C_7 
REMARK    4  A    between atoms: C_9  and  C_10 
REMARK    5  A    between atoms: C_10  and  N_11 
REMARK       I    between atoms: N_11  and  C_12 
REMARK    6  A    between atoms: C_12  and  C_13 
REMARK       I    between atoms: C_13  and  N_14 
REMARK    7  A    between atoms: N_14  and  C_15 
ROOT
HETATM    1  N   UNL     1       9.410  30.807  60.064  1.00  0.00    -0.348 N 
HETATM    2  C   UNL     1       9.784  31.238  58.815  1.00  0.00     0.310 C 
HETATM    3  O   UNL     1      10.324  32.304  58.551  1.00  0.00    -0.262 OA
HETATM    4  H   UNL     1       8.867  29.948  60.110  1.00  0.00     0.163 HD
ENDROOT
BRANCH   2   5
HETATM    5  C   UNL     1       9.437  30.251  57.679  1.00  0.00     0.313 C 
HETATM    6  N   UNL     1       8.268  29.566  57.937  1.00  0.00    -0.319 N 
HETATM    7  H   UNL     1       7.824  29.817  58.818  1.00  0.00     0.169 HD
HETATM    8  O   UNL     1      10.196  30.158  56.726  1.00  0.00    -0.262 OA
BRANCH   6   9
HETATM    9  C   UNL     1       7.672  28.556  57.166  1.00  0.00     0.036 A 
HETATM   10  C   UNL     1       6.558  28.761  56.352  1.00  0.00     0.039 A 
HETATM   11  C   UNL     1       6.040  27.714  55.573  1.00  0.00    -0.028 A 
HETATM   12  C   UNL     1       6.630  26.444  55.616  1.00  0.00     0.050 A 
HETATM   13  C   UNL     1       4.798  27.915  54.757  1.00  0.00     0.050 C 
HETATM   14  N   UNL     1       6.107  25.401  54.807  1.00  0.00    -0.317 N 
HETATM   15  C   UNL     1       7.713  26.215  56.478  1.00  0.00    -0.028 A 
HETATM   16  C   UNL     1       5.194  25.639  53.784  1.00  0.00     0.224 C 
HETATM   17  C   UNL     1       6.666  24.057  54.920  1.00  0.00     0.132 C 
HETATM   18  O   UNL     1       4.745  24.747  53.061  1.00  0.00    -0.273 OA
HETATM   19  C   UNL     1       4.867  27.087  53.494  1.00  0.00     0.108 C 
HETATM   20  C   UNL     1       7.316  23.778  56.264  1.00  0.00     0.025 C 
HETATM   21  C   UNL     1       8.346  24.853  56.572  1.00  0.00     0.042 C 
HETATM   22  C   UNL     1       8.239  27.279  57.230  1.00  0.00     0.039 A 
ENDBRANCH   6   9
ENDBRANCH   2   5
BRANCH   1  23
HETATM   23  C   UNL     1       9.495  31.673  61.209  1.00  0.00     0.169 C 
BRANCH  23  24
HETATM   24  C   UNL     1       8.120  31.909  61.737  1.00  0.00     0.001 A 
HETATM   25  S   UNL     1       6.798  32.079  60.661  1.00  0.00    -0.095 SA
HETATM   26  C   UNL     1       5.682  32.319  61.945  1.00  0.00     0.017 A 
HETATM   27  C   UNL     1       6.320  32.258  63.171  1.00  0.00     0.018 A 
HETATM   28  C   UNL     1       7.718  32.020  63.052  1.00  0.00     0.017 A 
BRANCH  26  29
HETATM   29  C   UNL     1       4.228  32.558  61.636  1.00  0.00     0.198 C 
BRANCH  29  30
HETATM   30  C   UNL     1       3.967  32.897  60.193  1.00  0.00     0.016 A 
HETATM   31  S   UNL     1       3.657  31.637  59.068  1.00  0.00    -0.103 SA
HETATM   32  C   UNL     1       3.515  32.738  57.769  1.00  0.00     0.050 A 
HETATM   33  C   UNL     1       3.697  34.041  58.173  1.00  0.00     0.008 A 
HETATM   34  C   UNL     1       3.963  34.133  59.570  1.00  0.00     0.018 A 
ENDBRANCH  29  30
BRANCH  29  35
HETATM   35  O   UNL     1       3.530  31.340  61.899  1.00  0.00    -0.385 OA
HETATM   36  H   UNL     1       2.723  31.594  62.378  1.00  0.00     0.210 HD
ENDBRANCH  29  35
ENDBRANCH  26  29
ENDBRANCH  23  24
ENDBRANCH   1  23
TORSDOF 7
ENDMDL
MODEL 7
REMARK VINA RESULT:      -9.8      2.116      2.581
REMARK  7 active torsions:
REMARK  status: ('A' for Active; 'I' for Inactive)
REMARK    1  A    between atoms: C_4  and  C_5 
REMARK    2  A    between atoms: C_5  and  O_6 
REMARK    3  A    between atoms: C_5  and  C_7 
REMARK    4  A    between atoms: C_9  and  C_10 
REMARK    5  A    between atoms: C_10  and  N_11 
REMARK       I    between atoms: N_11  and  C_12 
REMARK    6  A    between atoms: C_12  and  C_13 
REMARK       I    between atoms: C_13  and  N_14 
REMARK    7  A    between atoms: N_14  and  C_15 
ROOT
HETATM    1  N   UNL     1       8.507  29.160  57.777  1.00  0.00    -0.348 N 
HETATM    2  C   UNL     1       9.407  30.193  57.869  1.00  0.00     0.310 C 
HETATM    3  O   UNL     1      10.469  30.281  57.268  1.00  0.00    -0.262 OA
HETATM    4  H   UNL     1       7.724  29.174  58.427  1.00  0.00     0.163 HD
ENDROOT
BRANCH   2   5
HETATM    5  C   UNL     1       8.994  31.300  58.865  1.00  0.00     0.313 C 
HETATM    6  N   UNL     1       7.877  30.944  59.590  1.00  0.00    -0.319 N 
HETATM    7  H   UNL     1       7.509  30.023  59.363  1.00  0.00     0.169 HD
HETATM    8  O   UNL     1       9.644  32.335  58.897  1.00  0.00    -0.262 OA
BRANCH   6   9
HETATM    9  C   UNL     1       7.185  31.712  60.541  1.00  0.00     0.036 A 
HETATM   10  C   UNL     1       5.970  32.346  60.285  1.00  0.00     0.039 A 
HETATM   11  C   UNL     1       5.311  33.062  61.298  1.00  0.00    -0.028 A 
HETATM   12  C   UNL     1       5.877  33.159  62.576  1.00  0.00     0.050 A 
HETATM   13  C   UNL     1       4.044  33.807  61.001  1.00  0.00     0.050 C 
HETATM   14  N   UNL     1       5.188  33.870  63.594  1.00  0.00    -0.317 N 
HETATM   15  C   UNL     1       7.128  32.574  62.823  1.00  0.00    -0.028 A 
HETATM   16  C   UNL     1       3.860  34.264  63.460  1.00  0.00     0.224 C 
HETATM   17  C   UNL     1       5.820  34.045  64.898  1.00  0.00     0.132 C 
HETATM   18  O   UNL     1       3.243  34.864  64.342  1.00  0.00    -0.273 OA
HETATM   19  C   UNL     1       3.140  33.797  62.214  1.00  0.00     0.108 C 
HETATM   20  C   UNL     1       7.337  33.978  64.855  1.00  0.00     0.025 C 
HETATM   21  C   UNL     1       7.776  32.691  64.175  1.00  0.00     0.042 C 
HETATM   22  C   UNL     1       7.762  31.836  61.809  1.00  0.00     0.039 A 
ENDBRANCH   6   9
ENDBRANCH   2   5
BRANCH   1  23
HETATM   23  C   UNL     1       8.813  27.966  57.037  1.00  0.00     0.169 C 
BRANCH  23  24
HETATM   24  C   UNL     1       7.939  27.912  55.830  1.00  0.00     0.001 A 
HETATM   25  S   UNL     1       6.371  27.230  55.926  1.00  0.00    -0.095 SA
HETATM   26  C   UNL     1       6.060  27.511  54.261  1.00  0.00     0.017 A 
HETATM   27  C   UNL     1       7.141  28.125  53.653  1.00  0.00     0.018 A 
HETATM   28  C   UNL     1       8.218  28.358  54.554  1.00  0.00     0.017 A 
BRANCH  26  29
HETATM   29  C   UNL     1       4.743  27.090  53.665  1.00  0.00     0.198 C 
BRANCH  29  30
HETATM   30  C   UNL     1       4.678  27.251  52.171  1.00  0.00     0.016 A 
HETATM   31  S   UNL     1       5.309  26.017  51.156  1.00  0.00    -0.103 SA
HETATM   32  C   UNL     1       4.925  26.892  49.739  1.00  0.00     0.050 A 
HETATM   33  C   UNL     1       4.329  28.099  50.021  1.00  0.00     0.008 A 
HETATM   34  C   UNL     1       4.191  28.309  51.423  1.00  0.00     0.018 A 
ENDBRANCH  29  30
BRANCH  29  35
HETATM   35  O   UNL     1       4.582  25.695  53.930  1.00  0.00    -0.385 OA
HETATM   36  H   UNL     1       3.626  25.555  54.043  1.00  0.00     0.210 HD
ENDBRANCH  29  35
ENDBRANCH  26  29
ENDBRANCH  23  24
ENDBRANCH   1  23
TORSDOF 7
ENDMDL
MODEL 8
REMARK VINA RESULT:      -9.8      2.068      3.309
REMARK  7 active torsions:
REMARK  status: ('A' for Active; 'I' for Inactive)
REMARK    1  A    between atoms: C_4  and  C_5 
REMARK    2  A    between atoms: C_5  and  O_6 
REMARK    3  A    between atoms: C_5  and  C_7 
REMARK    4  A    between atoms: C_9  and  C_10 
REMARK    5  A    between atoms: C_10  and  N_11 
REMARK       I    between atoms: N_11  and  C_12 
REMARK    6  A    between atoms: C_12  and  C_13 
REMARK       I    between atoms: C_13  and  N_14 
REMARK    7  A    between atoms: N_14  and  C_15 
ROOT
HETATM    1  N   UNL     1       8.437  29.067  57.903  1.00  0.00    -0.348 N 
HETATM    2  C   UNL     1       9.278  30.151  57.866  1.00  0.00     0.310 C 
HETATM    3  O   UNL     1      10.256  30.282  57.142  1.00  0.00    -0.262 OA
HETATM    4  H   UNL     1       7.736  29.054  58.640  1.00  0.00     0.163 HD
ENDROOT
BRANCH   2   5
HETATM    5  C   UNL     1       8.918  31.262  58.878  1.00  0.00     0.313 C 
HETATM    6  N   UNL     1       7.848  30.903  59.671  1.00  0.00    -0.319 N 
HETATM    7  H   UNL     1       7.474  29.977  59.472  1.00  0.00     0.169 HD
HETATM    8  O   UNL     1       9.561  32.302  58.866  1.00  0.00    -0.262 OA
BRANCH   6   9
HETATM    9  C   UNL     1       7.209  31.671  60.657  1.00  0.00     0.036 A 
HETATM   10  C   UNL     1       7.687  31.810  61.959  1.00  0.00     0.039 A 
HETATM   11  C   UNL     1       7.019  32.632  62.881  1.00  0.00    -0.028 A 
HETATM   12  C   UNL     1       5.852  33.310  62.506  1.00  0.00     0.050 A 
HETATM   13  C   UNL     1       7.491  32.721  64.302  1.00  0.00     0.050 C 
HETATM   14  N   UNL     1       5.199  34.152  63.444  1.00  0.00    -0.317 N 
HETATM   15  C   UNL     1       5.332  33.127  61.216  1.00  0.00    -0.028 A 
HETATM   16  C   UNL     1       5.796  34.537  64.641  1.00  0.00     0.224 C 
HETATM   17  C   UNL     1       3.936  34.787  63.080  1.00  0.00     0.132 C 
HETATM   18  O   UNL     1       5.250  35.283  65.457  1.00  0.00    -0.273 OA
HETATM   19  C   UNL     1       7.231  34.107  64.848  1.00  0.00     0.108 C 
HETATM   20  C   UNL     1       3.167  34.042  62.003  1.00  0.00     0.025 C 
HETATM   21  C   UNL     1       4.062  33.815  60.795  1.00  0.00     0.042 C 
HETATM   22  C   UNL     1       6.026  32.325  60.294  1.00  0.00     0.039 A 
ENDBRANCH   6   9
ENDBRANCH   2   5
BRANCH   1  23
HETATM   23  C   UNL     1       8.727  27.871  57.159  1.00  0.00     0.169 C 
BRANCH  23  24
HETATM   24  C   UNL     1       7.871  27.846  55.937  1.00  0.00     0.001 A 
HETATM   25  S   UNL     1       6.347  27.065  55.963  1.00  0.00    -0.095 SA
HETATM   26  C   UNL     1       6.038  27.441  54.316  1.00  0.00     0.017 A 
HETATM   27  C   UNL     1       7.086  28.160  53.768  1.00  0.00     0.018 A 
HETATM   28  C   UNL     1       8.136  28.396  54.699  1.00  0.00     0.017 A 
BRANCH  26  29
HETATM   29  C   UNL     1       4.756  26.982  53.673  1.00  0.00     0.198 C 
BRANCH  29  30
HETATM   30  C   UNL     1       4.777  27.052  52.170  1.00  0.00     0.016 A 
HETATM   31  S   UNL     1       4.188  28.458  51.378  1.00  0.00    -0.103 SA
HETATM   32  C   UNL     1       4.491  27.797  49.832  1.00  0.00     0.050 A 
HETATM   33  C   UNL     1       5.030  26.533  49.906  1.00  0.00     0.008 A 
HETATM   34  C   UNL     1       5.190  26.100  51.254  1.00  0.00     0.018 A 
ENDBRANCH  29  30
BRANCH  29  35
HETATM   35  O   UNL     1       4.578  25.605  54.012  1.00  0.00    -0.385 OA
HETATM   36  H   UNL     1       4.154  25.600  54.888  1.00  0.00     0.210 HD
ENDBRANCH  29  35
ENDBRANCH  26  29
ENDBRANCH  23  24
ENDBRANCH   1  23
TORSDOF 7
ENDMDL
MODEL 9
REMARK VINA RESULT:      -9.8      3.715     11.812
REMARK  7 active torsions:
REMARK  status: ('A' for Active; 'I' for Inactive)
REMARK    1  A    between atoms: C_4  and  C_5 
REMARK    2  A    between atoms: C_5  and  O_6 
REMARK    3  A    between atoms: C_5  and  C_7 
REMARK    4  A    between atoms: C_9  and  C_10 
REMARK    5  A    between atoms: C_10  and  N_11 
REMARK       I    between atoms: N_11  and  C_12 
REMARK    6  A    between atoms: C_12  and  C_13 
REMARK       I    between atoms: C_13  and  N_14 
REMARK    7  A    between atoms: N_14  and  C_15 
ROOT
HETATM    1  N   UNL     1       6.258  30.444  58.123  1.00  0.00    -0.348 N 
HETATM    2  C   UNL     1       7.153  29.412  58.259  1.00  0.00     0.310 C 
HETATM    3  O   UNL     1       8.200  29.444  58.891  1.00  0.00    -0.262 OA
HETATM    4  H   UNL     1       5.490  30.302  57.470  1.00  0.00     0.163 HD
ENDROOT
BRANCH   2   5
HETATM    5  C   UNL     1       6.757  28.129  57.494  1.00  0.00     0.313 C 
HETATM    6  N   UNL     1       7.852  27.336  57.225  1.00  0.00    -0.319 N 
HETATM    7  H   UNL     1       8.733  27.711  57.570  1.00  0.00     0.169 HD
HETATM    8  O   UNL     1       5.583  27.960  57.196  1.00  0.00    -0.262 OA
BRANCH   6   9
HETATM    9  C   UNL     1       7.889  26.132  56.505  1.00  0.00     0.036 A 
HETATM   10  C   UNL     1       8.190  24.897  57.078  1.00  0.00     0.039 A 
HETATM   11  C   UNL     1       8.165  23.725  56.305  1.00  0.00    -0.028 A 
HETATM   12  C   UNL     1       7.851  23.786  54.941  1.00  0.00     0.050 A 
HETATM   13  C   UNL     1       8.562  22.409  56.906  1.00  0.00     0.050 C 
HETATM   14  N   UNL     1       7.811  22.590  54.178  1.00  0.00    -0.317 N 
HETATM   15  C   UNL     1       7.607  25.032  54.344  1.00  0.00    -0.028 A 
HETATM   16  C   UNL     1       7.821  21.329  54.768  1.00  0.00     0.224 C 
HETATM   17  C   UNL     1       7.572  22.665  52.740  1.00  0.00     0.132 C 
HETATM   18  O   UNL     1       7.767  20.281  54.120  1.00  0.00    -0.273 OA
HETATM   19  C   UNL     1       7.761  21.290  56.279  1.00  0.00     0.108 C 
HETATM   20  C   UNL     1       7.972  23.994  52.123  1.00  0.00     0.025 C 
HETATM   21  C   UNL     1       7.302  25.133  52.875  1.00  0.00     0.042 C 
HETATM   22  C   UNL     1       7.606  26.193  55.136  1.00  0.00     0.039 A 
ENDBRANCH   6   9
ENDBRANCH   2   5
BRANCH   1  23
HETATM   23  C   UNL     1       6.554  31.761  58.618  1.00  0.00     0.169 C 
BRANCH  23  24
HETATM   24  C   UNL     1       5.467  32.180  59.550  1.00  0.00     0.001 A 
HETATM   25  S   UNL     1       5.839  32.693  61.141  1.00  0.00    -0.095 SA
HETATM   26  C   UNL     1       4.187  32.958  61.527  1.00  0.00     0.017 A 
HETATM   27  C   UNL     1       3.374  32.665  60.446  1.00  0.00     0.018 A 
HETATM   28  C   UNL     1       4.109  32.221  59.311  1.00  0.00     0.017 A 
BRANCH  26  29
HETATM   29  C   UNL     1       3.810  33.443  62.901  1.00  0.00     0.198 C 
BRANCH  29  30
HETATM   30  C   UNL     1       3.965  34.929  63.079  1.00  0.00     0.016 A 
HETATM   31  S   UNL     1       5.244  35.539  64.051  1.00  0.00    -0.103 SA
HETATM   32  C   UNL     1       4.753  37.156  63.802  1.00  0.00     0.050 A 
HETATM   33  C   UNL     1       3.640  37.242  62.998  1.00  0.00     0.008 A 
HETATM   34  C   UNL     1       3.182  35.958  62.585  1.00  0.00     0.018 A 
ENDBRANCH  29  30
BRANCH  29  35
HETATM   35  O   UNL     1       2.424  33.154  63.090  1.00  0.00    -0.385 OA
HETATM   36  H   UNL     1       2.154  33.652  63.881  1.00  0.00     0.210 HD
ENDBRANCH  29  35
ENDBRANCH  26  29
ENDBRANCH  23  24
ENDBRANCH   1  23
TORSDOF 7
ENDMDL
MODEL 10
REMARK VINA RESULT:      -9.8      3.846     11.692
REMARK  7 active torsions:
REMARK  status: ('A' for Active; 'I' for Inactive)
REMARK    1  A    between atoms: C_4  and  C_5 
REMARK    2  A    between atoms: C_5  and  O_6 
REMARK    3  A    between atoms: C_5  and  C_7 
REMARK    4  A    between atoms: C_9  and  C_10 
REMARK    5  A    between atoms: C_10  and  N_11 
REMARK       I    between atoms: N_11  and  C_12 
REMARK    6  A    between atoms: C_12  and  C_13 
REMARK       I    between atoms: C_13  and  N_14 
REMARK    7  A    between atoms: N_14  and  C_15 
ROOT
HETATM    1  N   UNL     1       6.455  31.311  58.769  1.00  0.00    -0.348 N 
HETATM    2  C   UNL     1       5.857  30.394  57.941  1.00  0.00     0.310 C 
HETATM    3  O   UNL     1       4.663  30.325  57.681  1.00  0.00    -0.262 OA
HETATM    4  H   UNL     1       7.441  31.169  58.977  1.00  0.00     0.163 HD
ENDROOT
BRANCH   2   5
HETATM    5  C   UNL     1       6.835  29.361  57.337  1.00  0.00     0.313 C 
HETATM    6  N   UNL     1       6.172  28.253  56.852  1.00  0.00    -0.319 N 
HETATM    7  H   UNL     1       5.161  28.291  56.963  1.00  0.00     0.169 HD
HETATM    8  O   UNL     1       8.034  29.598  57.364  1.00  0.00    -0.262 OA
BRANCH   6   9
HETATM    9  C   UNL     1       6.727  27.094  56.288  1.00  0.00     0.036 A 
HETATM   10  C   UNL     1       7.414  26.129  57.023  1.00  0.00     0.039 A 
HETATM   11  C   UNL     1       7.905  24.970  56.399  1.00  0.00    -0.028 A 
HETATM   12  C   UNL     1       7.723  24.779  55.024  1.00  0.00     0.050 A 
HETATM   13  C   UNL     1       8.709  23.971  57.177  1.00  0.00     0.050 C 
HETATM   14  N   UNL     1       8.208  23.593  54.412  1.00  0.00    -0.317 N 
HETATM   15  C   UNL     1       7.086  25.774  54.267  1.00  0.00    -0.028 A 
HETATM   16  C   UNL     1       8.635  22.494  55.152  1.00  0.00     0.224 C 
HETATM   17  C   UNL     1       8.097  23.436  52.965  1.00  0.00     0.132 C 
HETATM   18  O   UNL     1       9.041  21.451  54.635  1.00  0.00    -0.273 OA
HETATM   19  C   UNL     1       8.450  22.576  56.651  1.00  0.00     0.108 C 
HETATM   20  C   UNL     1       8.025  24.753  52.212  1.00  0.00     0.025 C 
HETATM   21  C   UNL     1       6.907  25.612  52.782  1.00  0.00     0.042 C 
HETATM   22  C   UNL     1       6.574  26.914  54.909  1.00  0.00     0.039 A 
ENDBRANCH   6   9
ENDBRANCH   2   5
BRANCH   1  23
HETATM   23  C   UNL     1       5.674  32.230  59.552  1.00  0.00     0.169 C 
BRANCH  23  24
HETATM   24  C   UNL     1       6.346  32.430  60.869  1.00  0.00     0.001 A 
HETATM   25  S   UNL     1       5.772  33.616  61.963  1.00  0.00    -0.095 SA
HETATM   26  C   UNL     1       6.988  33.252  63.120  1.00  0.00     0.017 A 
HETATM   27  C   UNL     1       7.808  32.232  62.670  1.00  0.00     0.018 A 
HETATM   28  C   UNL     1       7.438  31.758  61.380  1.00  0.00     0.017 A 
BRANCH  26  29
HETATM   29  C   UNL     1       7.044  34.022  64.412  1.00  0.00     0.198 C 
BRANCH  29  30
HETATM   30  C   UNL     1       5.762  34.736  64.744  1.00  0.00     0.016 A 
HETATM   31  S   UNL     1       4.557  33.932  65.668  1.00  0.00    -0.103 SA
HETATM   32  C   UNL     1       3.502  35.273  65.586  1.00  0.00     0.050 A 
HETATM   33  C   UNL     1       4.045  36.316  64.872  1.00  0.00     0.008 A 
HETATM   34  C   UNL     1       5.346  36.005  64.382  1.00  0.00     0.018 A 
ENDBRANCH  29  30
BRANCH  29  35
HETATM   35  O   UNL     1       7.266  33.078  65.462  1.00  0.00    -0.385 OA
HETATM   36  H   UNL     1       7.266  33.594  66.287  1.00  0.00     0.210 HD
ENDBRANCH  29  35
ENDBRANCH  26  29
ENDBRANCH  23  24
ENDBRANCH   1  23
TORSDOF 7
ENDMDL
