MODEL 1
REMARK VINA RESULT:      -9.6      0.000      0.000
REMARK  5 active torsions:
REMARK  status: ('A' for Active; 'I' for Inactive)
REMARK    1  A    between atoms: C_5  and  C_6 
REMARK    2  A    between atoms: C_11  and  C_12 
REMARK       I    between atoms: C_12  and  N_13 
REMARK    3  A    between atoms: N_13  and  C_14 
REMARK    4  A    between atoms: C_16  and  O_17 
REMARK    5  A    between atoms: C_23  and  C_24 
ROOT
HETATM    1  C   UNL     1       5.170  26.193  54.402  1.00  0.00     0.118 C 
HETATM    2  N   UNL     1       4.873  26.759  55.713  1.00  0.00    -0.366 N 
HETATM    3  C   UNL     1       5.420  27.909  56.154  1.00  0.00     0.123 A 
HETATM    4  N   UNL     1       6.268  28.648  55.379  1.00  0.00    -0.240 N 
HETATM    5  N   UNL     1       6.672  29.798  55.953  1.00  0.00    -0.165 NA
HETATM    6  C   UNL     1       6.095  29.758  57.177  1.00  0.00     0.148 A 
HETATM    7  C   UNL     1       5.302  28.589  57.336  1.00  0.00     0.089 A 
HETATM    8  C   UNL     1       6.669  28.281  54.036  1.00  0.00     0.221 C 
HETATM    9  C   UNL     1       5.671  27.276  53.431  1.00  0.00     0.066 C 
HETATM   10  H   UNL     1       4.334  26.157  56.336  1.00  0.00     0.161 HD
ENDROOT
BRANCH   6  11
HETATM   11  C   UNL     1       6.297  30.824  58.175  1.00  0.00     0.276 C 
HETATM   12  N   UNL     1       7.168  30.438  59.175  1.00  0.00    -0.322 N 
HETATM   13  H   UNL     1       7.514  29.486  59.063  1.00  0.00     0.169 HD
HETATM   14  O   UNL     1       5.727  31.905  58.078  1.00  0.00    -0.266 OA
BRANCH  12  15
HETATM   15  C   UNL     1       7.598  31.173  60.293  1.00  0.00     0.037 A 
HETATM   16  C   UNL     1       6.749  31.952  61.083  1.00  0.00     0.066 A 
HETATM   17  C   UNL     1       7.264  32.649  62.176  1.00  0.00     0.067 A 
HETATM   18  C   UNL     1       8.614  32.584  62.496  1.00  0.00     0.036 A 
HETATM   19  C   UNL     1       9.467  31.809  61.715  1.00  0.00     0.005 A 
HETATM   20  C   UNL     1       8.960  31.109  60.616  1.00  0.00     0.029 A 
BRANCH  17  21
HETATM   21  O   UNL     1       6.461  33.419  62.965  1.00  0.00    -0.361 OA
HETATM   22  H   UNL     1       6.782  34.336  62.926  1.00  0.00     0.217 HD
ENDBRANCH  17  21
ENDBRANCH  12  15
ENDBRANCH   6  11
BRANCH   8  23
HETATM   23  C   UNL     1       8.105  27.807  54.030  1.00  0.00     0.409 C 
HETATM   24  F   UNL     1       9.010  28.798  53.937  1.00  0.00    -0.169 F 
HETATM   25  F   UNL     1       8.375  27.120  55.170  1.00  0.00    -0.169 F 
HETATM   26  F   UNL     1       8.343  26.949  53.010  1.00  0.00    -0.169 F 
ENDBRANCH   8  23
BRANCH   1  27
HETATM   27  C   UNL     1       6.038  24.950  54.481  1.00  0.00    -0.035 A 
HETATM   28  C   UNL     1       6.409  24.301  53.290  1.00  0.00     0.010 A 
HETATM   29  C   UNL     1       7.183  23.137  53.312  1.00  0.00     0.007 A 
HETATM   30  C   UNL     1       7.602  22.588  54.526  1.00  0.00    -0.062 A 
HETATM   31  C   UNL     1       8.457  21.356  54.563  1.00  0.00     0.048 C 
HETATM   32  C   UNL     1       7.250  23.232  55.715  1.00  0.00     0.007 A 
HETATM   33  C   UNL     1       6.469  24.392  55.693  1.00  0.00     0.010 A 
ENDBRANCH   1  27
TORSDOF 5
ENDMDL
MODEL 2
REMARK VINA RESULT:      -9.4      5.459      9.570
REMARK  5 active torsions:
REMARK  status: ('A' for Active; 'I' for Inactive)
REMARK    1  A    between atoms: C_5  and  C_6 
REMARK    2  A    between atoms: C_11  and  C_12 
REMARK       I    between atoms: C_12  and  N_13 
REMARK    3  A    between atoms: N_13  and  C_14 
REMARK    4  A    between atoms: C_16  and  O_17 
REMARK    5  A    between atoms: C_23  and  C_24 
ROOT
HETATM    1  C   UNL     1       5.447  26.584  55.321  1.00  0.00     0.118 C 
HETATM    2  N   UNL     1       4.668  27.424  54.419  1.00  0.00    -0.366 N 
HETATM    3  C   UNL     1       4.633  27.229  53.085  1.00  0.00     0.123 A 
HETATM    4  N   UNL     1       5.302  26.197  52.491  1.00  0.00    -0.240 N 
HETATM    5  N   UNL     1       5.108  26.115  51.159  1.00  0.00    -0.165 NA
HETATM    6  C   UNL     1       4.321  27.184  50.890  1.00  0.00     0.148 A 
HETATM    7  C   UNL     1       4.003  27.902  52.074  1.00  0.00     0.089 A 
HETATM    8  C   UNL     1       6.108  25.230  53.208  1.00  0.00     0.221 C 
HETATM    9  C   UNL     1       5.721  25.204  54.697  1.00  0.00     0.066 C 
HETATM   10  H   UNL     1       4.262  28.259  54.841  1.00  0.00     0.161 HD
ENDROOT
BRANCH   6  11
HETATM   11  C   UNL     1       3.879  27.507  49.521  1.00  0.00     0.276 C 
HETATM   12  N   UNL     1       2.522  27.758  49.462  1.00  0.00    -0.322 N 
HETATM   13  H   UNL     1       2.056  27.671  50.363  1.00  0.00     0.169 HD
HETATM   14  O   UNL     1       4.669  27.528  48.584  1.00  0.00    -0.266 OA
BRANCH  12  15
HETATM   15  C   UNL     1       1.743  28.091  48.341  1.00  0.00     0.037 A 
HETATM   16  C   UNL     1       1.315  27.162  47.389  1.00  0.00     0.066 A 
HETATM   17  C   UNL     1       0.543  27.583  46.307  1.00  0.00     0.067 A 
HETATM   18  C   UNL     1       0.188  28.917  46.155  1.00  0.00     0.036 A 
HETATM   19  C   UNL     1       0.610  29.850  47.099  1.00  0.00     0.005 A 
HETATM   20  C   UNL     1       1.386  29.438  48.186  1.00  0.00     0.029 A 
BRANCH  17  21
HETATM   21  O   UNL     1       0.111  26.700  45.360  1.00  0.00    -0.361 OA
HETATM   22  H   UNL     1      -0.719  26.300  45.672  1.00  0.00     0.217 HD
ENDBRANCH  17  21
ENDBRANCH  12  15
ENDBRANCH   6  11
BRANCH   8  23
HETATM   23  C   UNL     1       7.577  25.484  52.953  1.00  0.00     0.409 C 
HETATM   24  F   UNL     1       7.916  26.785  52.943  1.00  0.00    -0.169 F 
HETATM   25  F   UNL     1       8.329  24.878  53.909  1.00  0.00    -0.169 F 
HETATM   26  F   UNL     1       7.977  24.955  51.772  1.00  0.00    -0.169 F 
ENDBRANCH   8  23
BRANCH   1  27
HETATM   27  C   UNL     1       6.669  27.293  55.876  1.00  0.00    -0.035 A 
HETATM   28  C   UNL     1       6.892  28.638  55.533  1.00  0.00     0.010 A 
HETATM   29  C   UNL     1       8.018  29.325  55.997  1.00  0.00     0.007 A 
HETATM   30  C   UNL     1       8.955  28.683  56.811  1.00  0.00    -0.062 A 
HETATM   31  C   UNL     1      10.152  29.417  57.337  1.00  0.00     0.048 C 
HETATM   32  C   UNL     1       8.736  27.350  57.168  1.00  0.00     0.007 A 
HETATM   33  C   UNL     1       7.613  26.661  56.697  1.00  0.00     0.010 A 
ENDBRANCH   1  27
TORSDOF 5
ENDMDL
MODEL 3
REMARK VINA RESULT:      -9.3      5.502      9.195
REMARK  5 active torsions:
REMARK  status: ('A' for Active; 'I' for Inactive)
REMARK    1  A    between atoms: C_5  and  C_6 
REMARK    2  A    between atoms: C_11  and  C_12 
REMARK       I    between atoms: C_12  and  N_13 
REMARK    3  A    between atoms: N_13  and  C_14 
REMARK    4  A    between atoms: C_16  and  O_17 
REMARK    5  A    between atoms: C_23  and  C_24 
ROOT
HETATM    1  C   UNL     1       8.047  25.636  52.874  1.00  0.00     0.118 C 
HETATM    2  N   UNL     1       7.212  25.733  51.683  1.00  0.00    -0.366 N 
HETATM    3  C   UNL     1       6.101  26.494  51.629  1.00  0.00     0.123 A 
HETATM    4  N   UNL     1       5.701  27.262  52.686  1.00  0.00    -0.240 N 
HETATM    5  N   UNL     1       4.604  28.005  52.438  1.00  0.00    -0.165 NA
HETATM    6  C   UNL     1       4.259  27.646  51.179  1.00  0.00     0.148 A 
HETATM    7  C   UNL     1       5.176  26.702  50.641  1.00  0.00     0.089 A 
HETATM    8  C   UNL     1       6.405  27.333  53.950  1.00  0.00     0.221 C 
HETATM    9  C   UNL     1       7.861  26.863  53.784  1.00  0.00     0.066 C 
HETATM   10  H   UNL     1       7.440  25.077  50.935  1.00  0.00     0.161 HD
ENDROOT
BRANCH   6  11
HETATM   11  C   UNL     1       3.073  28.202  50.502  1.00  0.00     0.276 C 
HETATM   12  N   UNL     1       2.989  27.790  49.186  1.00  0.00    -0.322 N 
HETATM   13  H   UNL     1       3.757  27.185  48.903  1.00  0.00     0.169 HD
HETATM   14  O   UNL     1       2.293  28.943  51.089  1.00  0.00    -0.266 OA
BRANCH  12  15
HETATM   15  C   UNL     1       2.011  28.114  48.230  1.00  0.00     0.037 A 
HETATM   16  C   UNL     1       1.551  27.224  47.257  1.00  0.00     0.066 A 
HETATM   17  C   UNL     1       0.577  27.633  46.347  1.00  0.00     0.067 A 
HETATM   18  C   UNL     1       0.051  28.918  46.389  1.00  0.00     0.036 A 
HETATM   19  C   UNL     1       0.504  29.812  47.355  1.00  0.00     0.005 A 
HETATM   20  C   UNL     1       1.482  29.411  48.271  1.00  0.00     0.029 A 
BRANCH  17  21
HETATM   21  O   UNL     1       0.108  26.786  45.385  1.00  0.00    -0.361 OA
HETATM   22  H   UNL     1       0.869  26.357  44.959  1.00  0.00     0.217 HD
ENDBRANCH  17  21
ENDBRANCH  12  15
ENDBRANCH   6  11
BRANCH   8  23
HETATM   23  C   UNL     1       5.633  26.595  55.021  1.00  0.00     0.409 C 
HETATM   24  F   UNL     1       6.371  26.249  56.090  1.00  0.00    -0.169 F 
HETATM   25  F   UNL     1       4.606  27.362  55.470  1.00  0.00    -0.169 F 
HETATM   26  F   UNL     1       5.071  25.462  54.537  1.00  0.00    -0.169 F 
ENDBRANCH   8  23
BRANCH   1  27
HETATM   27  C   UNL     1       7.923  24.294  53.572  1.00  0.00    -0.035 A 
HETATM   28  C   UNL     1       8.147  24.223  54.958  1.00  0.00     0.010 A 
HETATM   29  C   UNL     1       8.072  23.005  55.641  1.00  0.00     0.007 A 
HETATM   30  C   UNL     1       7.776  21.825  54.955  1.00  0.00    -0.062 A 
HETATM   31  C   UNL     1       7.665  20.517  55.681  1.00  0.00     0.048 C 
HETATM   32  C   UNL     1       7.539  21.886  53.580  1.00  0.00     0.007 A 
HETATM   33  C   UNL     1       7.622  23.103  52.896  1.00  0.00     0.010 A 
ENDBRANCH   1  27
TORSDOF 5
ENDMDL
MODEL 4
REMARK VINA RESULT:      -9.1      6.660      9.549
REMARK  5 active torsions:
REMARK  status: ('A' for Active; 'I' for Inactive)
REMARK    1  A    between atoms: C_5  and  C_6 
REMARK    2  A    between atoms: C_11  and  C_12 
REMARK       I    between atoms: C_12  and  N_13 
REMARK    3  A    between atoms: N_13  and  C_14 
REMARK    4  A    between atoms: C_16  and  O_17 
REMARK    5  A    between atoms: C_23  and  C_24 
ROOT
HETATM    1  C   UNL     1       4.592  29.287  48.249  1.00  0.00     0.118 C 
HETATM    2  N   UNL     1       4.821  29.108  49.678  1.00  0.00    -0.366 N 
HETATM    3  C   UNL     1       4.911  27.894  50.257  1.00  0.00     0.123 A 
HETATM    4  N   UNL     1       4.831  26.740  49.530  1.00  0.00    -0.240 N 
HETATM    5  N   UNL     1       5.002  25.621  50.261  1.00  0.00    -0.165 NA
HETATM    6  C   UNL     1       5.142  26.088  51.524  1.00  0.00     0.148 A 
HETATM    7  C   UNL     1       5.092  27.507  51.558  1.00  0.00     0.089 A 
HETATM    8  C   UNL     1       4.636  26.696  48.095  1.00  0.00     0.221 C 
HETATM    9  C   UNL     1       5.026  28.041  47.456  1.00  0.00     0.066 C 
HETATM   10  H   UNL     1       4.768  29.958  50.238  1.00  0.00     0.161 HD
ENDROOT
BRANCH   6  11
HETATM   11  C   UNL     1       5.325  25.187  52.678  1.00  0.00     0.276 C 
HETATM   12  N   UNL     1       6.640  24.789  52.819  1.00  0.00    -0.322 N 
HETATM   13  H   UNL     1       7.256  25.173  52.104  1.00  0.00     0.169 HD
HETATM   14  O   UNL     1       4.380  24.861  53.388  1.00  0.00    -0.266 OA
BRANCH  12  15
HETATM   15  C   UNL     1       7.196  23.936  53.787  1.00  0.00     0.037 A 
HETATM   16  C   UNL     1       7.316  24.268  55.138  1.00  0.00     0.066 A 
HETATM   17  C   UNL     1       7.882  23.357  56.029  1.00  0.00     0.067 A 
HETATM   18  C   UNL     1       8.331  22.116  55.597  1.00  0.00     0.036 A 
HETATM   19  C   UNL     1       8.215  21.776  54.252  1.00  0.00     0.005 A 
HETATM   20  C   UNL     1       7.651  22.684  53.351  1.00  0.00     0.029 A 
BRANCH  17  21
HETATM   21  O   UNL     1       8.014  23.653  57.355  1.00  0.00    -0.361 OA
HETATM   22  H   UNL     1       8.223  24.599  57.437  1.00  0.00     0.217 HD
ENDBRANCH  17  21
ENDBRANCH  12  15
ENDBRANCH   6  11
BRANCH   8  23
HETATM   23  C   UNL     1       3.230  26.241  47.773  1.00  0.00     0.409 C 
HETATM   24  F   UNL     1       2.304  26.652  48.656  1.00  0.00    -0.169 F 
HETATM   25  F   UNL     1       2.857  26.704  46.552  1.00  0.00    -0.169 F 
HETATM   26  F   UNL     1       3.147  24.891  47.703  1.00  0.00    -0.169 F 
ENDBRANCH   8  23
BRANCH   1  27
HETATM   27  C   UNL     1       3.195  29.792  47.936  1.00  0.00    -0.035 A 
HETATM   28  C   UNL     1       2.309  30.047  48.997  1.00  0.00     0.010 A 
HETATM   29  C   UNL     1       1.003  30.487  48.759  1.00  0.00     0.007 A 
HETATM   30  C   UNL     1       0.547  30.678  47.452  1.00  0.00    -0.062 A 
HETATM   31  C   UNL     1      -0.841  31.177  47.183  1.00  0.00     0.048 C 
HETATM   32  C   UNL     1       1.425  30.441  46.391  1.00  0.00     0.007 A 
HETATM   33  C   UNL     1       2.728  29.993  46.630  1.00  0.00     0.010 A 
ENDBRANCH   1  27
TORSDOF 5
ENDMDL
MODEL 5
REMARK VINA RESULT:      -8.9      5.404     11.262
REMARK  5 active torsions:
REMARK  status: ('A' for Active; 'I' for Inactive)
REMARK    1  A    between atoms: C_5  and  C_6 
REMARK    2  A    between atoms: C_11  and  C_12 
REMARK       I    between atoms: C_12  and  N_13 
REMARK    3  A    between atoms: N_13  and  C_14 
REMARK    4  A    between atoms: C_16  and  O_17 
REMARK    5  A    between atoms: C_23  and  C_24 
ROOT
HETATM    1  C   UNL     1       3.897  34.609  63.808  1.00  0.00     0.118 C 
HETATM    2  N   UNL     1       3.926  34.481  62.355  1.00  0.00    -0.366 N 
HETATM    3  C   UNL     1       4.792  33.673  61.710  1.00  0.00     0.123 A 
HETATM    4  N   UNL     1       5.682  32.886  62.384  1.00  0.00    -0.240 N 
HETATM    5  N   UNL     1       6.428  32.098  61.585  1.00  0.00    -0.165 NA
HETATM    6  C   UNL     1       6.029  32.445  60.339  1.00  0.00     0.148 A 
HETATM    7  C   UNL     1       5.004  33.429  60.380  1.00  0.00     0.089 A 
HETATM    8  C   UNL     1       5.797  32.840  63.827  1.00  0.00     0.221 C 
HETATM    9  C   UNL     1       4.512  33.373  64.488  1.00  0.00     0.066 C 
HETATM   10  H   UNL     1       3.346  35.148  61.847  1.00  0.00     0.161 HD
ENDROOT
BRANCH   6  11
HETATM   11  C   UNL     1       6.618  31.842  59.129  1.00  0.00     0.276 C 
HETATM   12  N   UNL     1       7.519  30.842  59.438  1.00  0.00    -0.322 N 
HETATM   13  H   UNL     1       7.632  30.696  60.439  1.00  0.00     0.169 HD
HETATM   14  O   UNL     1       6.309  32.229  58.008  1.00  0.00    -0.266 OA
BRANCH  12  15
HETATM   15  C   UNL     1       8.279  30.048  58.561  1.00  0.00     0.037 A 
HETATM   16  C   UNL     1       9.582  30.358  58.164  1.00  0.00     0.066 A 
HETATM   17  C   UNL     1      10.261  29.511  57.289  1.00  0.00     0.067 A 
HETATM   18  C   UNL     1       9.663  28.357  56.800  1.00  0.00     0.036 A 
HETATM   19  C   UNL     1       8.365  28.040  57.190  1.00  0.00     0.005 A 
HETATM   20  C   UNL     1       7.675  28.884  58.066  1.00  0.00     0.029 A 
BRANCH  17  21
HETATM   21  O   UNL     1      11.534  29.787  56.883  1.00  0.00    -0.361 OA
HETATM   22  H   UNL     1      12.090  29.013  57.074  1.00  0.00     0.217 HD
ENDBRANCH  17  21
ENDBRANCH  12  15
ENDBRANCH   6  11
BRANCH   8  23
HETATM   23  C   UNL     1       7.059  33.542  64.274  1.00  0.00     0.409 C 
HETATM   24  F   UNL     1       7.069  33.881  65.575  1.00  0.00    -0.169 F 
HETATM   25  F   UNL     1       8.139  32.747  64.056  1.00  0.00    -0.169 F 
HETATM   26  F   UNL     1       7.279  34.674  63.563  1.00  0.00    -0.169 F 
ENDBRANCH   8  23
BRANCH   1  27
HETATM   27  C   UNL     1       4.437  35.943  64.291  1.00  0.00    -0.035 A 
HETATM   28  C   UNL     1       4.801  36.915  63.343  1.00  0.00     0.010 A 
HETATM   29  C   UNL     1       5.330  38.148  63.738  1.00  0.00     0.007 A 
HETATM   30  C   UNL     1       5.514  38.439  65.092  1.00  0.00    -0.062 A 
HETATM   31  C   UNL     1       6.054  39.768  65.530  1.00  0.00     0.048 C 
HETATM   32  C   UNL     1       5.144  37.485  66.043  1.00  0.00     0.007 A 
HETATM   33  C   UNL     1       4.623  36.249  65.647  1.00  0.00     0.010 A 
ENDBRANCH   1  27
TORSDOF 5
ENDMDL
MODEL 6
REMARK VINA RESULT:      -8.7      4.841     10.917
REMARK  5 active torsions:
REMARK  status: ('A' for Active; 'I' for Inactive)
REMARK    1  A    between atoms: C_5  and  C_6 
REMARK    2  A    between atoms: C_11  and  C_12 
REMARK       I    between atoms: C_12  and  N_13 
REMARK    3  A    between atoms: N_13  and  C_14 
REMARK    4  A    between atoms: C_16  and  O_17 
REMARK    5  A    between atoms: C_23  and  C_24 
ROOT
HETATM    1  C   UNL     1       4.230  34.242  62.721  1.00  0.00     0.118 C 
HETATM    2  N   UNL     1       4.455  33.961  61.308  1.00  0.00    -0.366 N 
HETATM    3  C   UNL     1       5.362  33.061  60.877  1.00  0.00     0.123 A 
HETATM    4  N   UNL     1       6.110  32.319  61.746  1.00  0.00    -0.240 N 
HETATM    5  N   UNL     1       6.922  31.426  61.144  1.00  0.00    -0.165 NA
HETATM    6  C   UNL     1       6.717  31.655  59.825  1.00  0.00     0.148 A 
HETATM    7  C   UNL     1       5.746  32.672  59.622  1.00  0.00     0.089 A 
HETATM    8  C   UNL     1       6.020  32.420  63.188  1.00  0.00     0.221 C 
HETATM    9  C   UNL     1       4.683  33.063  63.601  1.00  0.00     0.066 C 
HETATM   10  H   UNL     1       3.984  34.590  60.658  1.00  0.00     0.161 HD
ENDROOT
BRANCH   6  11
HETATM   11  C   UNL     1       7.439  30.909  58.779  1.00  0.00     0.276 C 
HETATM   12  N   UNL     1       6.664  29.905  58.233  1.00  0.00    -0.322 N 
HETATM   13  H   UNL     1       5.736  29.842  58.646  1.00  0.00     0.169 HD
HETATM   14  O   UNL     1       8.594  31.189  58.477  1.00  0.00    -0.266 OA
BRANCH  12  15
HETATM   15  C   UNL     1       7.006  28.987  57.225  1.00  0.00     0.037 A 
HETATM   16  C   UNL     1       7.030  29.301  55.864  1.00  0.00     0.066 A 
HETATM   17  C   UNL     1       7.382  28.325  54.932  1.00  0.00     0.067 A 
HETATM   18  C   UNL     1       7.711  27.036  55.333  1.00  0.00     0.036 A 
HETATM   19  C   UNL     1       7.690  26.715  56.688  1.00  0.00     0.005 A 
HETATM   20  C   UNL     1       7.336  27.686  57.629  1.00  0.00     0.029 A 
BRANCH  17  21
HETATM   21  O   UNL     1       7.413  28.601  53.596  1.00  0.00    -0.361 OA
HETATM   22  H   UNL     1       7.473  29.565  53.485  1.00  0.00     0.217 HD
ENDBRANCH  17  21
ENDBRANCH  12  15
ENDBRANCH   6  11
BRANCH   8  23
HETATM   23  C   UNL     1       7.241  33.121  63.740  1.00  0.00     0.409 C 
HETATM   24  F   UNL     1       8.321  32.330  63.861  1.00  0.00    -0.169 F 
HETATM   25  F   UNL     1       7.588  34.159  62.936  1.00  0.00    -0.169 F 
HETATM   26  F   UNL     1       6.998  33.658  64.960  1.00  0.00    -0.169 F 
ENDBRANCH   8  23
BRANCH   1  27
HETATM   27  C   UNL     1       4.762  35.599  63.144  1.00  0.00    -0.035 A 
HETATM   28  C   UNL     1       4.580  36.019  64.473  1.00  0.00     0.010 A 
HETATM   29  C   UNL     1       5.027  37.272  64.903  1.00  0.00     0.007 A 
HETATM   30  C   UNL     1       5.663  38.141  64.013  1.00  0.00    -0.062 A 
HETATM   31  C   UNL     1       6.172  39.477  64.468  1.00  0.00     0.048 C 
HETATM   32  C   UNL     1       5.860  37.729  62.692  1.00  0.00     0.007 A 
HETATM   33  C   UNL     1       5.405  36.478  62.261  1.00  0.00     0.010 A 
ENDBRANCH   1  27
TORSDOF 5
ENDMDL
MODEL 7
REMARK VINA RESULT:      -8.7      2.398      3.542
REMARK  5 active torsions:
REMARK  status: ('A' for Active; 'I' for Inactive)
REMARK    1  A    between atoms: C_5  and  C_6 
REMARK    2  A    between atoms: C_11  and  C_12 
REMARK       I    between atoms: C_12  and  N_13 
REMARK    3  A    between atoms: N_13  and  C_14 
REMARK    4  A    between atoms: C_16  and  O_17 
REMARK    5  A    between atoms: C_23  and  C_24 
ROOT
HETATM    1  C   UNL     1       8.005  27.215  54.400  1.00  0.00     0.118 C 
HETATM    2  N   UNL     1       8.279  28.571  54.863  1.00  0.00    -0.366 N 
HETATM    3  C   UNL     1       7.806  29.055  56.028  1.00  0.00     0.123 A 
HETATM    4  N   UNL     1       7.063  28.287  56.879  1.00  0.00    -0.240 N 
HETATM    5  N   UNL     1       6.725  28.911  58.025  1.00  0.00    -0.165 NA
HETATM    6  C   UNL     1       7.232  30.156  57.866  1.00  0.00     0.148 A 
HETATM    7  C   UNL     1       7.916  30.281  56.627  1.00  0.00     0.089 A 
HETATM    8  C   UNL     1       6.705  26.906  56.625  1.00  0.00     0.221 C 
HETATM    9  C   UNL     1       7.647  26.289  55.576  1.00  0.00     0.066 C 
HETATM   10  H   UNL     1       8.732  29.181  54.182  1.00  0.00     0.161 HD
ENDROOT
BRANCH   6  11
HETATM   11  C   UNL     1       7.065  31.207  58.887  1.00  0.00     0.276 C 
HETATM   12  N   UNL     1       7.310  30.733  60.161  1.00  0.00    -0.322 N 
HETATM   13  H   UNL     1       7.554  29.745  60.183  1.00  0.00     0.169 HD
HETATM   14  O   UNL     1       6.739  32.348  58.580  1.00  0.00    -0.266 OA
BRANCH  12  15
HETATM   15  C   UNL     1       7.247  31.429  61.380  1.00  0.00     0.037 A 
HETATM   16  C   UNL     1       6.076  31.585  62.126  1.00  0.00     0.066 A 
HETATM   17  C   UNL     1       6.107  32.293  63.327  1.00  0.00     0.067 A 
HETATM   18  C   UNL     1       7.287  32.851  63.800  1.00  0.00     0.036 A 
HETATM   19  C   UNL     1       8.459  32.701  63.063  1.00  0.00     0.005 A 
HETATM   20  C   UNL     1       8.438  31.994  61.857  1.00  0.00     0.029 A 
BRANCH  17  21
HETATM   21  O   UNL     1       4.979  32.463  64.076  1.00  0.00    -0.361 OA
HETATM   22  H   UNL     1       4.714  33.396  64.022  1.00  0.00     0.217 HD
ENDBRANCH  17  21
ENDBRANCH  12  15
ENDBRANCH   6  11
BRANCH   8  23
HETATM   23  C   UNL     1       5.237  26.803  56.277  1.00  0.00     0.409 C 
HETATM   24  F   UNL     1       4.687  27.959  55.866  1.00  0.00    -0.169 F 
HETATM   25  F   UNL     1       5.055  25.894  55.284  1.00  0.00    -0.169 F 
HETATM   26  F   UNL     1       4.506  26.361  57.327  1.00  0.00    -0.169 F 
ENDBRANCH   8  23
BRANCH   1  27
HETATM   27  C   UNL     1       7.036  27.176  53.233  1.00  0.00    -0.035 A 
HETATM   28  C   UNL     1       6.930  25.997  52.474  1.00  0.00     0.010 A 
HETATM   29  C   UNL     1       6.072  25.921  51.373  1.00  0.00     0.007 A 
HETATM   30  C   UNL     1       5.301  27.024  50.998  1.00  0.00    -0.062 A 
HETATM   31  C   UNL     1       4.356  26.946  49.836  1.00  0.00     0.048 C 
HETATM   32  C   UNL     1       5.389  28.196  51.753  1.00  0.00     0.007 A 
HETATM   33  C   UNL     1       6.253  28.274  52.850  1.00  0.00     0.010 A 
ENDBRANCH   1  27
TORSDOF 5
ENDMDL
MODEL 8
REMARK VINA RESULT:      -8.3      5.003      8.414
REMARK  5 active torsions:
REMARK  status: ('A' for Active; 'I' for Inactive)
REMARK    1  A    between atoms: C_5  and  C_6 
REMARK    2  A    between atoms: C_11  and  C_12 
REMARK       I    between atoms: C_12  and  N_13 
REMARK    3  A    between atoms: N_13  and  C_14 
REMARK    4  A    between atoms: C_16  and  O_17 
REMARK    5  A    between atoms: C_23  and  C_24 
ROOT
HETATM    1  C   UNL     1       8.173  25.828  54.531  1.00  0.00     0.118 C 
HETATM    2  N   UNL     1       7.598  26.106  53.220  1.00  0.00    -0.366 N 
HETATM    3  C   UNL     1       6.442  26.779  53.056  1.00  0.00     0.123 A 
HETATM    4  N   UNL     1       5.745  27.284  54.117  1.00  0.00    -0.240 N 
HETATM    5  N   UNL     1       4.646  27.981  53.768  1.00  0.00    -0.165 NA
HETATM    6  C   UNL     1       4.614  27.863  52.419  1.00  0.00     0.148 A 
HETATM    7  C   UNL     1       5.725  27.117  51.940  1.00  0.00     0.089 A 
HETATM    8  C   UNL     1       6.158  27.148  55.500  1.00  0.00     0.221 C 
HETATM    9  C   UNL     1       7.661  26.827  55.585  1.00  0.00     0.066 C 
HETATM   10  H   UNL     1       8.051  25.634  52.437  1.00  0.00     0.161 HD
ENDROOT
BRANCH   6  11
HETATM   11  C   UNL     1       3.538  28.458  51.605  1.00  0.00     0.276 C 
HETATM   12  N   UNL     1       3.613  28.063  50.283  1.00  0.00    -0.322 N 
HETATM   13  H   UNL     1       4.396  27.441  50.092  1.00  0.00     0.169 HD
HETATM   14  O   UNL     1       2.708  29.212  52.099  1.00  0.00    -0.266 OA
BRANCH  12  15
HETATM   15  C   UNL     1       2.774  28.424  49.215  1.00  0.00     0.037 A 
HETATM   16  C   UNL     1       2.741  29.701  48.651  1.00  0.00     0.066 A 
HETATM   17  C   UNL     1       1.875  29.969  47.590  1.00  0.00     0.067 A 
HETATM   18  C   UNL     1       1.039  28.984  47.081  1.00  0.00     0.036 A 
HETATM   19  C   UNL     1       1.066  27.709  47.637  1.00  0.00     0.005 A 
HETATM   20  C   UNL     1       1.929  27.431  48.702  1.00  0.00     0.029 A 
BRANCH  17  21
HETATM   21  O   UNL     1       1.819  31.207  47.019  1.00  0.00    -0.361 OA
HETATM   22  H   UNL     1       1.030  31.663  47.356  1.00  0.00     0.217 HD
ENDBRANCH  17  21
ENDBRANCH  12  15
ENDBRANCH   6  11
BRANCH   8  23
HETATM   23  C   UNL     1       5.271  26.153  56.214  1.00  0.00     0.409 C 
HETATM   24  F   UNL     1       4.844  25.142  55.437  1.00  0.00    -0.169 F 
HETATM   25  F   UNL     1       5.934  25.603  57.263  1.00  0.00    -0.169 F 
HETATM   26  F   UNL     1       4.173  26.750  56.736  1.00  0.00    -0.169 F 
ENDBRANCH   8  23
BRANCH   1  27
HETATM   27  C   UNL     1       8.062  24.367  54.925  1.00  0.00    -0.035 A 
HETATM   28  C   UNL     1       8.472  23.975  56.212  1.00  0.00     0.010 A 
HETATM   29  C   UNL     1       8.415  22.636  56.612  1.00  0.00     0.007 A 
HETATM   30  C   UNL     1       7.952  21.653  55.734  1.00  0.00    -0.062 A 
HETATM   31  C   UNL     1       7.860  20.218  56.160  1.00  0.00     0.048 C 
HETATM   32  C   UNL     1       7.531  22.034  54.458  1.00  0.00     0.007 A 
HETATM   33  C   UNL     1       7.595  23.372  54.055  1.00  0.00     0.010 A 
ENDBRANCH   1  27
TORSDOF 5
ENDMDL
MODEL 9
REMARK VINA RESULT:      -8.0      4.938     10.902
REMARK  5 active torsions:
REMARK  status: ('A' for Active; 'I' for Inactive)
REMARK    1  A    between atoms: C_5  and  C_6 
REMARK    2  A    between atoms: C_11  and  C_12 
REMARK       I    between atoms: C_12  and  N_13 
REMARK    3  A    between atoms: N_13  and  C_14 
REMARK    4  A    between atoms: C_16  and  O_17 
REMARK    5  A    between atoms: C_23  and  C_24 
ROOT
HETATM    1  C   UNL     1       3.783  35.163  62.498  1.00  0.00     0.118 C 
HETATM    2  N   UNL     1       3.689  34.915  61.064  1.00  0.00    -0.366 N 
HETATM    3  C   UNL     1       4.293  33.872  60.461  1.00  0.00     0.123 A 
HETATM    4  N   UNL     1       5.010  32.948  61.167  1.00  0.00    -0.240 N 
HETATM    5  N   UNL     1       5.494  31.939  60.415  1.00  0.00    -0.165 NA
HETATM    6  C   UNL     1       5.112  32.273  59.159  1.00  0.00     0.148 A 
HETATM    7  C   UNL     1       4.357  33.477  59.152  1.00  0.00     0.089 A 
HETATM    8  C   UNL     1       5.201  32.991  62.603  1.00  0.00     0.221 C 
HETATM    9  C   UNL     1       4.125  33.872  63.263  1.00  0.00     0.066 C 
HETATM   10  H   UNL     1       3.254  35.660  60.520  1.00  0.00     0.161 HD
ENDROOT
BRANCH   6  11
HETATM   11  C   UNL     1       5.462  31.449  57.988  1.00  0.00     0.276 C 
HETATM   12  N   UNL     1       5.798  30.158  58.346  1.00  0.00    -0.322 N 
HETATM   13  H   UNL     1       5.757  29.995  59.351  1.00  0.00     0.169 HD
HETATM   14  O   UNL     1       5.444  31.913  56.853  1.00  0.00    -0.266 OA
BRANCH  12  15
HETATM   15  C   UNL     1       6.191  29.095  57.516  1.00  0.00     0.037 A 
HETATM   16  C   UNL     1       5.305  28.360  56.723  1.00  0.00     0.066 A 
HETATM   17  C   UNL     1       5.785  27.319  55.929  1.00  0.00     0.067 A 
HETATM   18  C   UNL     1       7.135  26.995  55.910  1.00  0.00     0.036 A 
HETATM   19  C   UNL     1       8.025  27.721  56.697  1.00  0.00     0.005 A 
HETATM   20  C   UNL     1       7.553  28.766  57.498  1.00  0.00     0.029 A 
BRANCH  17  21
HETATM   21  O   UNL     1       4.945  26.584  55.144  1.00  0.00    -0.361 OA
HETATM   22  H   UNL     1       5.180  26.742  54.214  1.00  0.00     0.217 HD
ENDBRANCH  17  21
ENDBRANCH  12  15
ENDBRANCH   6  11
BRANCH   8  23
HETATM   23  C   UNL     1       6.620  33.397  62.929  1.00  0.00     0.409 C 
HETATM   24  F   UNL     1       7.208  34.150  61.982  1.00  0.00    -0.169 F 
HETATM   25  F   UNL     1       6.650  34.108  64.086  1.00  0.00    -0.169 F 
HETATM   26  F   UNL     1       7.413  32.317  63.133  1.00  0.00    -0.169 F 
ENDBRANCH   8  23
BRANCH   1  27
HETATM   27  C   UNL     1       4.656  36.358  62.832  1.00  0.00    -0.035 A 
HETATM   28  C   UNL     1       4.652  36.860  64.146  1.00  0.00     0.010 A 
HETATM   29  C   UNL     1       5.417  37.976  64.496  1.00  0.00     0.007 A 
HETATM   30  C   UNL     1       6.204  38.624  63.540  1.00  0.00    -0.062 A 
HETATM   31  C   UNL     1       7.051  39.805  63.909  1.00  0.00     0.048 C 
HETATM   32  C   UNL     1       6.225  38.126  62.235  1.00  0.00     0.007 A 
HETATM   33  C   UNL     1       5.453  37.014  61.884  1.00  0.00     0.010 A 
ENDBRANCH   1  27
TORSDOF 5
ENDMDL
MODEL 10
REMARK VINA RESULT:      -8.0      6.110      8.777
REMARK  5 active torsions:
REMARK  status: ('A' for Active; 'I' for Inactive)
REMARK    1  A    between atoms: C_5  and  C_6 
REMARK    2  A    between atoms: C_11  and  C_12 
REMARK       I    between atoms: C_12  and  N_13 
REMARK    3  A    between atoms: N_13  and  C_14 
REMARK    4  A    between atoms: C_16  and  O_17 
REMARK    5  A    between atoms: C_23  and  C_24 
ROOT
HETATM    1  C   UNL     1       8.077  25.592  52.876  1.00  0.00     0.118 C 
HETATM    2  N   UNL     1       7.455  25.512  51.559  1.00  0.00    -0.366 N 
HETATM    3  C   UNL     1       6.327  26.178  51.242  1.00  0.00     0.123 A 
HETATM    4  N   UNL     1       5.707  27.009  52.131  1.00  0.00    -0.240 N 
HETATM    5  N   UNL     1       4.627  27.641  51.627  1.00  0.00    -0.165 NA
HETATM    6  C   UNL     1       4.526  27.139  50.373  1.00  0.00     0.148 A 
HETATM    7  C   UNL     1       5.575  26.221  50.098  1.00  0.00     0.089 A 
HETATM    8  C   UNL     1       6.177  27.254  53.479  1.00  0.00     0.221 C 
HETATM    9  C   UNL     1       7.665  26.882  53.607  1.00  0.00     0.066 C 
HETATM   10  H   UNL     1       7.847  24.808  50.934  1.00  0.00     0.161 HD
ENDROOT
BRANCH   6  11
HETATM   11  C   UNL     1       3.444  27.537  49.454  1.00  0.00     0.276 C 
HETATM   12  N   UNL     1       3.364  28.908  49.313  1.00  0.00    -0.322 N 
HETATM   13  H   UNL     1       4.053  29.412  49.869  1.00  0.00     0.169 HD
HETATM   14  O   UNL     1       2.728  26.702  48.914  1.00  0.00    -0.266 OA
BRANCH  12  15
HETATM   15  C   UNL     1       2.464  29.656  48.535  1.00  0.00     0.037 A 
HETATM   16  C   UNL     1       1.276  30.200  49.028  1.00  0.00     0.066 A 
HETATM   17  C   UNL     1       0.443  30.930  48.181  1.00  0.00     0.067 A 
HETATM   18  C   UNL     1       0.772  31.127  46.846  1.00  0.00     0.036 A 
HETATM   19  C   UNL     1       1.954  30.589  46.346  1.00  0.00     0.005 A 
HETATM   20  C   UNL     1       2.796  29.854  47.187  1.00  0.00     0.029 A 
BRANCH  17  21
HETATM   21  O   UNL     1      -0.724  31.473  48.634  1.00  0.00    -0.361 OA
HETATM   22  H   UNL     1      -1.400  30.774  48.649  1.00  0.00     0.217 HD
ENDBRANCH  17  21
ENDBRANCH  12  15
ENDBRANCH   6  11
BRANCH   8  23
HETATM   23  C   UNL     1       5.277  26.564  54.479  1.00  0.00     0.409 C 
HETATM   24  F   UNL     1       4.863  25.344  54.095  1.00  0.00    -0.169 F 
HETATM   25  F   UNL     1       5.922  26.416  55.665  1.00  0.00    -0.169 F 
HETATM   26  F   UNL     1       4.170  27.299  54.743  1.00  0.00    -0.169 F 
ENDBRANCH   8  23
BRANCH   1  27
HETATM   27  C   UNL     1       7.913  24.316  53.682  1.00  0.00    -0.035 A 
HETATM   28  C   UNL     1       7.731  23.099  53.003  1.00  0.00     0.010 A 
HETATM   29  C   UNL     1       7.548  21.901  53.701  1.00  0.00     0.007 A 
HETATM   30  C   UNL     1       7.537  21.891  55.098  1.00  0.00    -0.062 A 
HETATM   31  C   UNL     1       7.370  20.609  55.860  1.00  0.00     0.048 C 
HETATM   32  C   UNL     1       7.730  23.093  55.783  1.00  0.00     0.007 A 
HETATM   33  C   UNL     1       7.905  24.291  55.084  1.00  0.00     0.010 A 
ENDBRANCH   1  27
TORSDOF 5
ENDMDL
