MODEL 1
REMARK VINA RESULT:     -11.0      0.000      0.000
REMARK  6 active torsions:
REMARK  status: ('A' for Active; 'I' for Inactive)
REMARK    1  A    between atoms: N_2  and  C_3 
REMARK    2  A    between atoms: C_6  and  C_7 
REMARK       I    between atoms: C_7  and  N_8 
REMARK    3  A    between atoms: N_8  and  C_9 
REMARK    4  A    between atoms: C_9  and  C_10 
REMARK    5  A    between atoms: C_10  and  C_11 
REMARK    6  A    between atoms: C_22  and  O_23 
ROOT
HETATM    1  C   UNL     1       8.004  30.027  57.659  1.00  0.00     0.158 A 
HETATM    2  N   UNL     1       9.318  30.196  57.848  1.00  0.00    -0.111 NA
HETATM    3  O   UNL     1       9.383  30.813  59.098  1.00  0.00    -0.189 OA
HETATM    4  C   UNL     1       8.096  30.943  59.546  1.00  0.00     0.223 A 
HETATM    5  C   UNL     1       7.746  31.517  60.801  1.00  0.00     0.089 A 
HETATM    6  N   UNL     1       6.440  31.676  61.190  1.00  0.00    -0.352 N 
HETATM    7  H   UNL     1       5.642  31.410  60.630  1.00  0.00     0.166 HD
HETATM    8  C   UNL     1       6.379  32.238  62.445  1.00  0.00     0.045 A 
HETATM    9  C   UNL     1       7.690  32.449  62.865  1.00  0.00    -0.007 A 
HETATM   10  C   UNL     1       8.544  31.997  61.820  1.00  0.00     0.048 A 
HETATM   11  C   UNL     1       5.273  32.572  63.237  1.00  0.00     0.067 A 
HETATM   12  C   UNL     1       5.505  33.132  64.500  1.00  0.00     0.070 A 
HETATM   13  C   UNL     1       6.811  33.354  64.939  1.00  0.00     0.038 A 
HETATM   14  C   UNL     1       7.909  33.018  64.133  1.00  0.00     0.016 A 
HETATM   15  N   UNL     1       7.212  30.464  58.693  1.00  0.00    -0.203 NA
ENDROOT
BRANCH   1  16
HETATM   16  C   UNL     1       7.470  29.351  56.450  1.00  0.00     0.103 C 
BRANCH  16  17
HETATM   17  C   UNL     1       6.566  28.161  56.777  1.00  0.00     0.133 C 
BRANCH  17  18
HETATM   18  N   UNL     1       7.169  26.878  56.401  1.00  0.00    -0.352 N 
HETATM   19  C   UNL     1       6.684  26.243  55.258  1.00  0.00     0.253 C 
HETATM   20  O   UNL     1       5.863  26.764  54.505  1.00  0.00    -0.267 OA
HETATM   21  C   UNL     1       8.355  26.465  57.142  1.00  0.00     0.152 C 
BRANCH  19  22
HETATM   22  C   UNL     1       7.160  24.883  54.919  1.00  0.00     0.032 A 
HETATM   23  C   UNL     1       7.748  24.605  53.687  1.00  0.00     0.019 A 
HETATM   24  C   UNL     1       8.207  23.309  53.409  1.00  0.00     0.030 A 
HETATM   25  C   UNL     1       8.127  22.269  54.353  1.00  0.00     0.029 A 
HETATM   26  C   UNL     1       7.540  22.593  55.592  1.00  0.00     0.030 A 
HETATM   27  C   UNL     1       7.072  23.880  55.882  1.00  0.00     0.019 A 
BRANCH  25  28
HETATM   28  N   UNL     1       8.569  20.966  54.084  1.00  0.00    -0.390 N 
HETATM   29  C   UNL     1       8.502  19.957  55.138  1.00  0.00     0.149 C 
HETATM   30  C   UNL     1       8.324  20.462  52.729  1.00  0.00     0.149 C 
ENDBRANCH  25  28
ENDBRANCH  19  22
ENDBRANCH  17  18
ENDBRANCH  16  17
ENDBRANCH   1  16
BRANCH  12  31
HETATM   31  O   UNL     1       4.366  33.420  65.203  1.00  0.00    -0.356 OA
HETATM   32  C   UNL     1       4.526  34.114  66.433  1.00  0.00     0.210 C 
ENDBRANCH  12  31
TORSDOF 6
ENDMDL
MODEL 2
REMARK VINA RESULT:      -9.9      2.267     12.017
REMARK  6 active torsions:
REMARK  status: ('A' for Active; 'I' for Inactive)
REMARK    1  A    between atoms: N_2  and  C_3 
REMARK    2  A    between atoms: C_6  and  C_7 
REMARK       I    between atoms: C_7  and  N_8 
REMARK    3  A    between atoms: N_8  and  C_9 
REMARK    4  A    between atoms: C_9  and  C_10 
REMARK    5  A    between atoms: C_10  and  C_11 
REMARK    6  A    between atoms: C_22  and  O_23 
ROOT
HETATM    1  C   UNL     1       7.879  29.662  58.510  1.00  0.00     0.158 A 
HETATM    2  N   UNL     1       6.986  30.172  57.654  1.00  0.00    -0.111 NA
HETATM    3  O   UNL     1       6.758  29.121  56.766  1.00  0.00    -0.189 OA
HETATM    4  C   UNL     1       7.531  28.070  57.185  1.00  0.00     0.223 A 
HETATM    5  C   UNL     1       7.563  26.801  56.539  1.00  0.00     0.089 A 
HETATM    6  N   UNL     1       8.391  25.792  56.960  1.00  0.00    -0.352 N 
HETATM    7  H   UNL     1       9.031  25.867  57.738  1.00  0.00     0.166 HD
HETATM    8  C   UNL     1       8.216  24.672  56.180  1.00  0.00     0.045 A 
HETATM    9  C   UNL     1       7.249  24.983  55.226  1.00  0.00    -0.007 A 
HETATM   10  C   UNL     1       6.848  26.328  55.458  1.00  0.00     0.048 A 
HETATM   11  C   UNL     1       8.833  23.416  56.242  1.00  0.00     0.067 A 
HETATM   12  C   UNL     1       8.451  22.441  55.312  1.00  0.00     0.070 A 
HETATM   13  C   UNL     1       7.485  22.731  54.348  1.00  0.00     0.038 A 
HETATM   14  C   UNL     1       6.879  23.996  54.294  1.00  0.00     0.016 A 
HETATM   15  N   UNL     1       8.234  28.358  58.262  1.00  0.00    -0.203 NA
ENDROOT
BRANCH   1  16
HETATM   16  C   UNL     1       8.381  30.438  59.672  1.00  0.00     0.103 C 
BRANCH  16  17
HETATM   17  C   UNL     1       7.562  31.699  59.950  1.00  0.00     0.133 C 
BRANCH  17  18
HETATM   18  N   UNL     1       7.357  31.930  61.384  1.00  0.00    -0.352 N 
HETATM   19  C   UNL     1       6.365  32.835  61.761  1.00  0.00     0.253 C 
HETATM   20  O   UNL     1       5.594  33.351  60.954  1.00  0.00    -0.267 OA
HETATM   21  C   UNL     1       8.076  31.053  62.301  1.00  0.00     0.152 C 
BRANCH  19  22
HETATM   22  C   UNL     1       6.219  33.208  63.186  1.00  0.00     0.032 A 
HETATM   23  C   UNL     1       7.330  33.376  64.010  1.00  0.00     0.019 A 
HETATM   24  C   UNL     1       7.155  33.750  65.350  1.00  0.00     0.030 A 
HETATM   25  C   UNL     1       5.882  34.001  65.897  1.00  0.00     0.029 A 
HETATM   26  C   UNL     1       4.786  33.835  65.028  1.00  0.00     0.030 A 
HETATM   27  C   UNL     1       4.944  33.456  63.690  1.00  0.00     0.019 A 
BRANCH  25  28
HETATM   28  N   UNL     1       5.692  34.362  67.237  1.00  0.00    -0.390 N 
HETATM   29  C   UNL     1       4.470  33.945  67.923  1.00  0.00     0.149 C 
HETATM   30  C   UNL     1       6.891  34.398  68.080  1.00  0.00     0.149 C 
ENDBRANCH  25  28
ENDBRANCH  19  22
ENDBRANCH  17  18
ENDBRANCH  16  17
ENDBRANCH   1  16
BRANCH  12  31
HETATM   31  O   UNL     1       9.103  21.245  55.456  1.00  0.00    -0.356 OA
HETATM   32  C   UNL     1       8.321  20.132  55.870  1.00  0.00     0.210 C 
ENDBRANCH  12  31
TORSDOF 6
ENDMDL
MODEL 3
REMARK VINA RESULT:      -9.7      3.149     11.955
REMARK  6 active torsions:
REMARK  status: ('A' for Active; 'I' for Inactive)
REMARK    1  A    between atoms: N_2  and  C_3 
REMARK    2  A    between atoms: C_6  and  C_7 
REMARK       I    between atoms: C_7  and  N_8 
REMARK    3  A    between atoms: N_8  and  C_9 
REMARK    4  A    between atoms: C_9  and  C_10 
REMARK    5  A    between atoms: C_10  and  C_11 
REMARK    6  A    between atoms: C_22  and  O_23 
ROOT
HETATM    1  C   UNL     1       7.975  29.401  57.584  1.00  0.00     0.158 A 
HETATM    2  N   UNL     1       7.986  28.183  58.137  1.00  0.00    -0.111 NA
HETATM    3  O   UNL     1       7.492  27.366  57.120  1.00  0.00    -0.189 OA
HETATM    4  C   UNL     1       7.242  28.177  56.044  1.00  0.00     0.223 A 
HETATM    5  C   UNL     1       6.738  27.708  54.797  1.00  0.00     0.089 A 
HETATM    6  N   UNL     1       6.452  28.561  53.761  1.00  0.00    -0.352 N 
HETATM    7  H   UNL     1       6.569  29.564  53.801  1.00  0.00     0.166 HD
HETATM    8  C   UNL     1       5.996  27.855  52.671  1.00  0.00     0.045 A 
HETATM    9  C   UNL     1       5.986  26.509  53.029  1.00  0.00    -0.007 A 
HETATM   10  C   UNL     1       6.449  26.427  54.372  1.00  0.00     0.048 A 
HETATM   11  C   UNL     1       5.596  28.299  51.405  1.00  0.00     0.067 A 
HETATM   12  C   UNL     1       5.179  27.345  50.468  1.00  0.00     0.070 A 
HETATM   13  C   UNL     1       5.159  25.992  50.806  1.00  0.00     0.038 A 
HETATM   14  C   UNL     1       5.559  25.562  52.080  1.00  0.00     0.016 A 
HETATM   15  N   UNL     1       7.533  29.440  56.284  1.00  0.00    -0.203 NA
ENDROOT
BRANCH   1  16
HETATM   16  C   UNL     1       8.474  30.595  58.313  1.00  0.00     0.103 C 
BRANCH  16  17
HETATM   17  C   UNL     1       8.721  30.332  59.799  1.00  0.00     0.133 C 
BRANCH  17  18
HETATM   18  N   UNL     1       8.026  31.294  60.662  1.00  0.00    -0.352 N 
HETATM   19  C   UNL     1       8.131  31.121  62.042  1.00  0.00     0.253 C 
HETATM   20  O   UNL     1       8.865  30.277  62.553  1.00  0.00    -0.267 OA
HETATM   21  C   UNL     1       7.441  32.460  60.011  1.00  0.00     0.152 C 
BRANCH  19  22
HETATM   22  C   UNL     1       7.333  31.977  62.949  1.00  0.00     0.032 A 
HETATM   23  C   UNL     1       5.941  31.918  62.965  1.00  0.00     0.019 A 
HETATM   24  C   UNL     1       5.218  32.728  63.852  1.00  0.00     0.030 A 
HETATM   25  C   UNL     1       5.853  33.589  64.766  1.00  0.00     0.029 A 
HETATM   26  C   UNL     1       7.262  33.610  64.729  1.00  0.00     0.030 A 
HETATM   27  C   UNL     1       7.997  32.811  63.845  1.00  0.00     0.019 A 
BRANCH  25  28
HETATM   28  N   UNL     1       5.143  34.414  65.648  1.00  0.00    -0.390 N 
HETATM   29  C   UNL     1       3.691  34.515  65.519  1.00  0.00     0.149 C 
HETATM   30  C   UNL     1       5.647  34.485  67.023  1.00  0.00     0.149 C 
ENDBRANCH  25  28
ENDBRANCH  19  22
ENDBRANCH  17  18
ENDBRANCH  16  17
ENDBRANCH   1  16
BRANCH  12  31
HETATM   31  O   UNL     1       4.813  27.872  49.258  1.00  0.00    -0.356 OA
HETATM   32  C   UNL     1       4.709  26.967  48.166  1.00  0.00     0.210 C 
ENDBRANCH  12  31
TORSDOF 6
ENDMDL
MODEL 4
REMARK VINA RESULT:      -9.7      1.370      1.696
REMARK  6 active torsions:
REMARK  status: ('A' for Active; 'I' for Inactive)
REMARK    1  A    between atoms: N_2  and  C_3 
REMARK    2  A    between atoms: C_6  and  C_7 
REMARK       I    between atoms: C_7  and  N_8 
REMARK    3  A    between atoms: N_8  and  C_9 
REMARK    4  A    between atoms: C_9  and  C_10 
REMARK    5  A    between atoms: C_10  and  C_11 
REMARK    6  A    between atoms: C_22  and  O_23 
ROOT
HETATM    1  C   UNL     1       6.860  29.654  56.284  1.00  0.00     0.158 A 
HETATM    2  N   UNL     1       8.125  29.222  56.348  1.00  0.00    -0.111 NA
HETATM    3  O   UNL     1       8.554  29.677  57.595  1.00  0.00    -0.189 OA
HETATM    4  C   UNL     1       7.495  30.330  58.168  1.00  0.00     0.223 A 
HETATM    5  C   UNL     1       7.535  30.928  59.460  1.00  0.00     0.089 A 
HETATM    6  N   UNL     1       6.468  31.619  59.975  1.00  0.00    -0.352 N 
HETATM    7  H   UNL     1       5.593  31.760  59.490  1.00  0.00     0.166 HD
HETATM    8  C   UNL     1       6.760  32.080  61.238  1.00  0.00     0.045 A 
HETATM    9  C   UNL     1       8.060  31.674  61.533  1.00  0.00    -0.007 A 
HETATM   10  C   UNL     1       8.541  30.954  60.404  1.00  0.00     0.048 A 
HETATM   11  C   UNL     1       5.982  32.819  62.138  1.00  0.00     0.067 A 
HETATM   12  C   UNL     1       6.537  33.150  63.381  1.00  0.00     0.070 A 
HETATM   13  C   UNL     1       7.837  32.754  63.696  1.00  0.00     0.038 A 
HETATM   14  C   UNL     1       8.607  32.018  62.782  1.00  0.00     0.016 A 
HETATM   15  N   UNL     1       6.426  30.334  57.396  1.00  0.00    -0.203 NA
ENDROOT
BRANCH   1  16
HETATM   16  C   UNL     1       5.988  29.348  55.122  1.00  0.00     0.103 C 
BRANCH  16  17
HETATM   17  C   UNL     1       5.150  28.083  55.316  1.00  0.00     0.133 C 
BRANCH  17  18
HETATM   18  N   UNL     1       5.865  26.869  54.910  1.00  0.00    -0.352 N 
HETATM   19  C   UNL     1       5.758  25.747  55.733  1.00  0.00     0.253 C 
HETATM   20  O   UNL     1       5.008  25.705  56.706  1.00  0.00    -0.267 OA
HETATM   21  C   UNL     1       6.473  26.874  53.585  1.00  0.00     0.152 C 
BRANCH  19  22
HETATM   22  C   UNL     1       6.574  24.547  55.442  1.00  0.00     0.032 A 
HETATM   23  C   UNL     1       6.594  23.972  54.173  1.00  0.00     0.019 A 
HETATM   24  C   UNL     1       7.396  22.849  53.927  1.00  0.00     0.030 A 
HETATM   25  C   UNL     1       8.222  22.288  54.919  1.00  0.00     0.029 A 
HETATM   26  C   UNL     1       8.185  22.906  56.185  1.00  0.00     0.030 A 
HETATM   27  C   UNL     1       7.386  24.025  56.447  1.00  0.00     0.019 A 
BRANCH  25  28
HETATM   28  N   UNL     1       9.018  21.157  54.692  1.00  0.00    -0.390 N 
HETATM   29  C   UNL     1       9.428  20.333  55.827  1.00  0.00     0.149 C 
HETATM   30  C   UNL     1       8.761  20.418  53.453  1.00  0.00     0.149 C 
ENDBRANCH  25  28
ENDBRANCH  19  22
ENDBRANCH  17  18
ENDBRANCH  16  17
ENDBRANCH   1  16
BRANCH  12  31
HETATM   31  O   UNL     1       5.700  33.866  64.195  1.00  0.00    -0.356 OA
HETATM   32  C   UNL     1       6.039  33.926  65.574  1.00  0.00     0.210 C 
ENDBRANCH  12  31
TORSDOF 6
ENDMDL
MODEL 5
REMARK VINA RESULT:      -9.2      2.629      3.191
REMARK  6 active torsions:
REMARK  status: ('A' for Active; 'I' for Inactive)
REMARK    1  A    between atoms: N_2  and  C_3 
REMARK    2  A    between atoms: C_6  and  C_7 
REMARK       I    between atoms: C_7  and  N_8 
REMARK    3  A    between atoms: N_8  and  C_9 
REMARK    4  A    between atoms: C_9  and  C_10 
REMARK    5  A    between atoms: C_10  and  C_11 
REMARK    6  A    between atoms: C_22  and  O_23 
ROOT
HETATM    1  C   UNL     1       3.897  29.815  56.588  1.00  0.00     0.158 A 
HETATM    2  N   UNL     1       2.984  30.661  56.096  1.00  0.00    -0.111 NA
HETATM    3  O   UNL     1       3.024  31.729  56.991  1.00  0.00    -0.189 OA
HETATM    4  C   UNL     1       3.972  31.425  57.933  1.00  0.00     0.223 A 
HETATM    5  C   UNL     1       4.318  32.282  59.016  1.00  0.00     0.089 A 
HETATM    6  N   UNL     1       5.237  31.917  59.968  1.00  0.00    -0.352 N 
HETATM    7  H   UNL     1       5.725  31.032  59.978  1.00  0.00     0.166 HD
HETATM    8  C   UNL     1       5.398  32.925  60.890  1.00  0.00     0.045 A 
HETATM    9  C   UNL     1       4.549  33.964  60.515  1.00  0.00    -0.007 A 
HETATM   10  C   UNL     1       3.869  33.547  59.337  1.00  0.00     0.048 A 
HETATM   11  C   UNL     1       6.225  33.000  62.018  1.00  0.00     0.067 A 
HETATM   12  C   UNL     1       6.195  34.171  62.787  1.00  0.00     0.070 A 
HETATM   13  C   UNL     1       5.350  35.222  62.431  1.00  0.00     0.038 A 
HETATM   14  C   UNL     1       4.524  35.132  61.300  1.00  0.00     0.016 A 
HETATM   15  N   UNL     1       4.541  30.256  57.718  1.00  0.00    -0.203 NA
ENDROOT
BRANCH   1  16
HETATM   16  C   UNL     1       4.223  28.536  55.908  1.00  0.00     0.103 C 
BRANCH  16  17
HETATM   17  C   UNL     1       5.289  28.687  54.821  1.00  0.00     0.133 C 
BRANCH  17  18
HETATM   18  N   UNL     1       6.150  27.505  54.711  1.00  0.00    -0.352 N 
HETATM   19  C   UNL     1       5.694  26.441  53.932  1.00  0.00     0.253 C 
HETATM   20  O   UNL     1       4.669  26.502  53.257  1.00  0.00    -0.267 OA
HETATM   21  C   UNL     1       7.494  27.616  55.265  1.00  0.00     0.152 C 
BRANCH  19  22
HETATM   22  C   UNL     1       6.460  25.174  53.907  1.00  0.00     0.032 A 
HETATM   23  C   UNL     1       7.181  24.784  52.781  1.00  0.00     0.019 A 
HETATM   24  C   UNL     1       7.913  23.588  52.800  1.00  0.00     0.030 A 
HETATM   25  C   UNL     1       7.976  22.768  53.942  1.00  0.00     0.029 A 
HETATM   26  C   UNL     1       7.245  23.203  55.065  1.00  0.00     0.030 A 
HETATM   27  C   UNL     1       6.506  24.392  55.059  1.00  0.00     0.019 A 
BRANCH  25  28
HETATM   28  N   UNL     1       8.691  21.563  53.970  1.00  0.00    -0.390 N 
HETATM   29  C   UNL     1       9.127  21.021  55.256  1.00  0.00     0.149 C 
HETATM   30  C   UNL     1       8.315  20.558  52.972  1.00  0.00     0.149 C 
ENDBRANCH  25  28
ENDBRANCH  19  22
ENDBRANCH  17  18
ENDBRANCH  16  17
ENDBRANCH   1  16
BRANCH  12  31
HETATM   31  O   UNL     1       7.040  34.154  63.865  1.00  0.00    -0.356 OA
HETATM   32  C   UNL     1       7.732  32.939  64.121  1.00  0.00     0.210 C 
ENDBRANCH  12  31
TORSDOF 6
ENDMDL
MODEL 6
REMARK VINA RESULT:      -9.1      1.933      2.948
REMARK  6 active torsions:
REMARK  status: ('A' for Active; 'I' for Inactive)
REMARK    1  A    between atoms: N_2  and  C_3 
REMARK    2  A    between atoms: C_6  and  C_7 
REMARK       I    between atoms: C_7  and  N_8 
REMARK    3  A    between atoms: N_8  and  C_9 
REMARK    4  A    between atoms: C_9  and  C_10 
REMARK    5  A    between atoms: C_10  and  C_11 
REMARK    6  A    between atoms: C_22  and  O_23 
ROOT
HETATM    1  C   UNL     1       6.852  31.629  59.193  1.00  0.00     0.158 A 
HETATM    2  N   UNL     1       6.265  32.543  58.412  1.00  0.00    -0.111 NA
HETATM    3  O   UNL     1       5.609  33.369  59.325  1.00  0.00    -0.189 OA
HETATM    4  C   UNL     1       5.877  32.875  60.574  1.00  0.00     0.223 A 
HETATM    5  C   UNL     1       5.391  33.458  61.779  1.00  0.00     0.089 A 
HETATM    6  N   UNL     1       5.641  32.902  63.008  1.00  0.00    -0.352 N 
HETATM    7  H   UNL     1       6.170  32.053  63.153  1.00  0.00     0.166 HD
HETATM    8  C   UNL     1       5.076  33.665  64.004  1.00  0.00     0.045 A 
HETATM    9  C   UNL     1       4.441  34.740  63.386  1.00  0.00    -0.007 A 
HETATM   10  C   UNL     1       4.640  34.597  61.984  1.00  0.00     0.048 A 
HETATM   11  C   UNL     1       5.078  33.491  65.393  1.00  0.00     0.067 A 
HETATM   12  C   UNL     1       4.421  34.444  66.183  1.00  0.00     0.070 A 
HETATM   13  C   UNL     1       3.777  35.527  65.585  1.00  0.00     0.038 A 
HETATM   14  C   UNL     1       3.779  35.686  64.190  1.00  0.00     0.016 A 
HETATM   15  N   UNL     1       6.647  31.806  60.540  1.00  0.00    -0.203 NA
ENDROOT
BRANCH   1  16
HETATM   16  C   UNL     1       7.713  30.558  58.632  1.00  0.00     0.103 C 
BRANCH  16  17
HETATM   17  C   UNL     1       7.169  29.970  57.329  1.00  0.00     0.133 C 
BRANCH  17  18
HETATM   18  N   UNL     1       7.770  28.672  57.004  1.00  0.00    -0.352 N 
HETATM   19  C   UNL     1       6.914  27.631  56.647  1.00  0.00     0.253 C 
HETATM   20  O   UNL     1       5.705  27.789  56.487  1.00  0.00    -0.267 OA
HETATM   21  C   UNL     1       9.224  28.629  56.895  1.00  0.00     0.152 C 
BRANCH  19  22
HETATM   22  C   UNL     1       7.461  26.269  56.451  1.00  0.00     0.032 A 
HETATM   23  C   UNL     1       8.017  25.551  57.508  1.00  0.00     0.019 A 
HETATM   24  C   UNL     1       8.506  24.256  57.291  1.00  0.00     0.030 A 
HETATM   25  C   UNL     1       8.426  23.627  56.034  1.00  0.00     0.029 A 
HETATM   26  C   UNL     1       7.844  24.379  54.995  1.00  0.00     0.030 A 
HETATM   27  C   UNL     1       7.356  25.676  55.195  1.00  0.00     0.019 A 
BRANCH  25  28
HETATM   28  N   UNL     1       8.923  22.338  55.799  1.00  0.00    -0.390 N 
HETATM   29  C   UNL     1       8.484  21.236  56.653  1.00  0.00     0.149 C 
HETATM   30  C   UNL     1       9.162  21.976  54.399  1.00  0.00     0.149 C 
ENDBRANCH  25  28
ENDBRANCH  19  22
ENDBRANCH  17  18
ENDBRANCH  16  17
ENDBRANCH   1  16
BRANCH  12  31
HETATM   31  O   UNL     1       4.482  34.194  67.528  1.00  0.00    -0.356 OA
HETATM   32  C   UNL     1       5.678  34.567  68.198  1.00  0.00     0.210 C 
ENDBRANCH  12  31
TORSDOF 6
ENDMDL
MODEL 7
REMARK VINA RESULT:      -9.0      2.303     11.638
REMARK  6 active torsions:
REMARK  status: ('A' for Active; 'I' for Inactive)
REMARK    1  A    between atoms: N_2  and  C_3 
REMARK    2  A    between atoms: C_6  and  C_7 
REMARK       I    between atoms: C_7  and  N_8 
REMARK    3  A    between atoms: N_8  and  C_9 
REMARK    4  A    between atoms: C_9  and  C_10 
REMARK    5  A    between atoms: C_10  and  C_11 
REMARK    6  A    between atoms: C_22  and  O_23 
ROOT
HETATM    1  C   UNL     1       5.179  29.215  55.829  1.00  0.00     0.158 A 
HETATM    2  N   UNL     1       4.902  29.462  54.543  1.00  0.00    -0.111 NA
HETATM    3  O   UNL     1       5.432  28.353  53.884  1.00  0.00    -0.189 OA
HETATM    4  C   UNL     1       5.968  27.537  54.845  1.00  0.00     0.223 A 
HETATM    5  C   UNL     1       6.596  26.289  54.566  1.00  0.00     0.089 A 
HETATM    6  N   UNL     1       7.166  25.526  55.553  1.00  0.00    -0.352 N 
HETATM    7  H   UNL     1       7.191  25.783  56.530  1.00  0.00     0.166 HD
HETATM    8  C   UNL     1       7.687  24.368  55.023  1.00  0.00     0.045 A 
HETATM    9  C   UNL     1       7.445  24.399  53.651  1.00  0.00    -0.007 A 
HETATM   10  C   UNL     1       6.762  25.616  53.373  1.00  0.00     0.048 A 
HETATM   11  C   UNL     1       8.349  23.301  55.644  1.00  0.00     0.067 A 
HETATM   12  C   UNL     1       8.771  22.227  54.850  1.00  0.00     0.070 A 
HETATM   13  C   UNL     1       8.540  22.239  53.474  1.00  0.00     0.038 A 
HETATM   14  C   UNL     1       7.880  23.317  52.864  1.00  0.00     0.016 A 
HETATM   15  N   UNL     1       5.827  28.026  56.060  1.00  0.00    -0.203 NA
ENDROOT
BRANCH   1  16
HETATM   16  C   UNL     1       4.745  30.133  56.912  1.00  0.00     0.103 C 
BRANCH  16  17
HETATM   17  C   UNL     1       5.873  31.028  57.429  1.00  0.00     0.133 C 
BRANCH  17  18
HETATM   18  N   UNL     1       5.590  31.575  58.760  1.00  0.00    -0.352 N 
HETATM   19  C   UNL     1       6.651  32.140  59.469  1.00  0.00     0.253 C 
HETATM   20  O   UNL     1       7.770  32.294  58.981  1.00  0.00    -0.267 OA
HETATM   21  C   UNL     1       4.189  31.658  59.153  1.00  0.00     0.152 C 
BRANCH  19  22
HETATM   22  C   UNL     1       6.446  32.574  60.869  1.00  0.00     0.032 A 
HETATM   23  C   UNL     1       7.033  31.894  61.934  1.00  0.00     0.019 A 
HETATM   24  C   UNL     1       6.834  32.346  63.246  1.00  0.00     0.030 A 
HETATM   25  C   UNL     1       6.081  33.499  63.533  1.00  0.00     0.029 A 
HETATM   26  C   UNL     1       5.515  34.167  62.430  1.00  0.00     0.030 A 
HETATM   27  C   UNL     1       5.700  33.724  61.114  1.00  0.00     0.019 A 
BRANCH  25  28
HETATM   28  N   UNL     1       5.862  33.954  64.841  1.00  0.00    -0.390 N 
HETATM   29  C   UNL     1       4.530  33.825  65.429  1.00  0.00     0.149 C 
HETATM   30  C   UNL     1       6.972  33.787  65.783  1.00  0.00     0.149 C 
ENDBRANCH  25  28
ENDBRANCH  19  22
ENDBRANCH  17  18
ENDBRANCH  16  17
ENDBRANCH   1  16
BRANCH  12  31
HETATM   31  O   UNL     1       9.401  21.230  55.546  1.00  0.00    -0.356 OA
HETATM   32  C   UNL     1       8.674  20.025  55.744  1.00  0.00     0.210 C 
ENDBRANCH  12  31
TORSDOF 6
ENDMDL
MODEL 8
REMARK VINA RESULT:      -8.9      2.785     11.126
REMARK  6 active torsions:
REMARK  status: ('A' for Active; 'I' for Inactive)
REMARK    1  A    between atoms: N_2  and  C_3 
REMARK    2  A    between atoms: C_6  and  C_7 
REMARK       I    between atoms: C_7  and  N_8 
REMARK    3  A    between atoms: N_8  and  C_9 
REMARK    4  A    between atoms: C_9  and  C_10 
REMARK    5  A    between atoms: C_10  and  C_11 
REMARK    6  A    between atoms: C_22  and  O_23 
ROOT
HETATM    1  C   UNL     1       4.563  29.134  54.234  1.00  0.00     0.158 A 
HETATM    2  N   UNL     1       4.590  29.234  52.900  1.00  0.00    -0.111 NA
HETATM    3  O   UNL     1       5.261  28.076  52.507  1.00  0.00    -0.189 OA
HETATM    4  C   UNL     1       5.562  27.382  53.649  1.00  0.00     0.223 A 
HETATM    5  C   UNL     1       6.240  26.130  53.661  1.00  0.00     0.089 A 
HETATM    6  N   UNL     1       6.569  25.492  54.831  1.00  0.00    -0.352 N 
HETATM    7  H   UNL     1       6.366  25.854  55.753  1.00  0.00     0.166 HD
HETATM    8  C   UNL     1       7.201  24.299  54.565  1.00  0.00     0.045 A 
HETATM    9  C   UNL     1       7.282  24.177  53.180  1.00  0.00    -0.007 A 
HETATM   10  C   UNL     1       6.679  25.338  52.620  1.00  0.00     0.048 A 
HETATM   11  C   UNL     1       7.703  23.324  55.436  1.00  0.00     0.067 A 
HETATM   12  C   UNL     1       8.299  22.184  54.883  1.00  0.00     0.070 A 
HETATM   13  C   UNL     1       8.392  22.042  53.499  1.00  0.00     0.038 A 
HETATM   14  C   UNL     1       7.889  23.030  52.638  1.00  0.00     0.016 A 
HETATM   15  N   UNL     1       5.143  27.995  54.738  1.00  0.00    -0.203 NA
ENDROOT
BRANCH   1  16
HETATM   16  C   UNL     1       3.889  30.150  55.081  1.00  0.00     0.103 C 
BRANCH  16  17
HETATM   17  C   UNL     1       4.837  31.244  55.576  1.00  0.00     0.133 C 
BRANCH  17  18
HETATM   18  N   UNL     1       4.967  31.254  57.037  1.00  0.00    -0.352 N 
HETATM   19  C   UNL     1       5.325  32.455  57.649  1.00  0.00     0.253 C 
HETATM   20  O   UNL     1       5.420  33.514  57.030  1.00  0.00    -0.267 OA
HETATM   21  C   UNL     1       4.527  30.058  57.746  1.00  0.00     0.152 C 
BRANCH  19  22
HETATM   22  C   UNL     1       5.608  32.480  59.102  1.00  0.00     0.032 A 
HETATM   23  C   UNL     1       4.610  32.763  60.031  1.00  0.00     0.019 A 
HETATM   24  C   UNL     1       4.909  32.756  61.401  1.00  0.00     0.030 A 
HETATM   25  C   UNL     1       6.191  32.437  61.885  1.00  0.00     0.029 A 
HETATM   26  C   UNL     1       7.170  32.143  60.915  1.00  0.00     0.030 A 
HETATM   27  C   UNL     1       6.887  32.151  59.543  1.00  0.00     0.019 A 
BRANCH  25  28
HETATM   28  N   UNL     1       6.508  32.440  63.250  1.00  0.00    -0.390 N 
HETATM   29  C   UNL     1       7.854  32.826  63.670  1.00  0.00     0.149 C 
HETATM   30  C   UNL     1       5.437  32.840  64.167  1.00  0.00     0.149 C 
ENDBRANCH  25  28
ENDBRANCH  19  22
ENDBRANCH  17  18
ENDBRANCH  16  17
ENDBRANCH   1  16
BRANCH  12  31
HETATM   31  O   UNL     1       8.754  21.284  55.811  1.00  0.00    -0.356 OA
HETATM   32  C   UNL     1       8.313  21.463  57.151  1.00  0.00     0.210 C 
ENDBRANCH  12  31
TORSDOF 6
ENDMDL
MODEL 9
REMARK VINA RESULT:      -8.4      7.791     11.937
REMARK  6 active torsions:
REMARK  status: ('A' for Active; 'I' for Inactive)
REMARK    1  A    between atoms: N_2  and  C_3 
REMARK    2  A    between atoms: C_6  and  C_7 
REMARK       I    between atoms: C_7  and  N_8 
REMARK    3  A    between atoms: N_8  and  C_9 
REMARK    4  A    between atoms: C_9  and  C_10 
REMARK    5  A    between atoms: C_10  and  C_11 
REMARK    6  A    between atoms: C_22  and  O_23 
ROOT
HETATM    1  C   UNL     1       3.815  28.569  53.008  1.00  0.00     0.158 A 
HETATM    2  N   UNL     1       3.765  28.987  54.278  1.00  0.00    -0.111 NA
HETATM    3  O   UNL     1       4.556  28.056  54.951  1.00  0.00    -0.189 OA
HETATM    4  C   UNL     1       5.017  27.171  54.012  1.00  0.00     0.223 A 
HETATM    5  C   UNL     1       5.875  26.074  54.309  1.00  0.00     0.089 A 
HETATM    6  N   UNL     1       6.273  25.180  53.346  1.00  0.00    -0.352 N 
HETATM    7  H   UNL     1       5.991  25.224  52.377  1.00  0.00     0.166 HD
HETATM    8  C   UNL     1       7.107  24.230  53.890  1.00  0.00     0.045 A 
HETATM    9  C   UNL     1       7.239  24.527  55.244  1.00  0.00    -0.007 A 
HETATM   10  C   UNL     1       6.455  25.686  55.500  1.00  0.00     0.048 A 
HETATM   11  C   UNL     1       7.751  23.139  53.293  1.00  0.00     0.067 A 
HETATM   12  C   UNL     1       8.563  22.328  54.095  1.00  0.00     0.070 A 
HETATM   13  C   UNL     1       8.709  22.606  55.454  1.00  0.00     0.038 A 
HETATM   14  C   UNL     1       8.053  23.699  56.040  1.00  0.00     0.016 A 
HETATM   15  N   UNL     1       4.590  27.454  52.798  1.00  0.00    -0.203 NA
ENDROOT
BRANCH   1  16
HETATM   16  C   UNL     1       3.135  29.309  51.915  1.00  0.00     0.103 C 
BRANCH  16  17
HETATM   17  C   UNL     1       3.414  28.723  50.529  1.00  0.00     0.133 C 
BRANCH  17  18
HETATM   18  N   UNL     1       2.297  28.925  49.600  1.00  0.00    -0.352 N 
HETATM   19  C   UNL     1       2.314  28.213  48.401  1.00  0.00     0.253 C 
HETATM   20  O   UNL     1       3.156  27.352  48.150  1.00  0.00    -0.267 OA
HETATM   21  C   UNL     1       1.167  29.707  50.088  1.00  0.00     0.152 C 
BRANCH  19  22
HETATM   22  C   UNL     1       1.286  28.490  47.372  1.00  0.00     0.032 A 
HETATM   23  C   UNL     1       1.262  29.698  46.677  1.00  0.00     0.019 A 
HETATM   24  C   UNL     1       0.287  29.918  45.694  1.00  0.00     0.030 A 
HETATM   25  C   UNL     1      -0.663  28.938  45.349  1.00  0.00     0.029 A 
HETATM   26  C   UNL     1      -0.597  27.726  46.064  1.00  0.00     0.030 A 
HETATM   27  C   UNL     1       0.367  27.493  47.052  1.00  0.00     0.019 A 
BRANCH  25  28
HETATM   28  N   UNL     1      -1.651  29.150  44.379  1.00  0.00    -0.390 N 
HETATM   29  C   UNL     1      -2.727  30.101  44.650  1.00  0.00     0.149 C 
HETATM   30  C   UNL     1      -1.214  29.095  42.980  1.00  0.00     0.149 C 
ENDBRANCH  25  28
ENDBRANCH  19  22
ENDBRANCH  17  18
ENDBRANCH  16  17
ENDBRANCH   1  16
BRANCH  12  31
HETATM   31  O   UNL     1       9.156  21.292  53.423  1.00  0.00    -0.356 OA
HETATM   32  C   UNL     1       8.293  20.352  52.796  1.00  0.00     0.210 C 
ENDBRANCH  12  31
TORSDOF 6
ENDMDL
MODEL 10
REMARK VINA RESULT:      -8.0      3.773     11.446
REMARK  6 active torsions:
REMARK  status: ('A' for Active; 'I' for Inactive)
REMARK    1  A    between atoms: N_2  and  C_3 
REMARK    2  A    between atoms: C_6  and  C_7 
REMARK       I    between atoms: C_7  and  N_8 
REMARK    3  A    between atoms: N_8  and  C_9 
REMARK    4  A    between atoms: C_9  and  C_10 
REMARK    5  A    between atoms: C_10  and  C_11 
REMARK    6  A    between atoms: C_22  and  O_23 
ROOT
HETATM    1  C   UNL     1       4.380  28.494  55.245  1.00  0.00     0.158 A 
HETATM    2  N   UNL     1       4.383  28.566  56.581  1.00  0.00    -0.111 NA
HETATM    3  O   UNL     1       5.110  27.437  56.959  1.00  0.00    -0.189 OA
HETATM    4  C   UNL     1       5.486  26.800  55.806  1.00  0.00     0.223 A 
HETATM    5  C   UNL     1       6.261  25.605  55.776  1.00  0.00     0.089 A 
HETATM    6  N   UNL     1       6.573  24.970  54.601  1.00  0.00    -0.352 N 
HETATM    7  H   UNL     1       6.281  25.287  53.687  1.00  0.00     0.166 HD
HETATM    8  C   UNL     1       7.339  23.854  54.848  1.00  0.00     0.045 A 
HETATM    9  C   UNL     1       7.516  23.774  56.227  1.00  0.00    -0.007 A 
HETATM   10  C   UNL     1       6.828  24.879  56.804  1.00  0.00     0.048 A 
HETATM   11  C   UNL     1       7.888  22.916  53.964  1.00  0.00     0.067 A 
HETATM   12  C   UNL     1       8.647  21.866  54.498  1.00  0.00     0.070 A 
HETATM   13  C   UNL     1       8.835  21.766  55.877  1.00  0.00     0.038 A 
HETATM   14  C   UNL     1       8.275  22.711  56.750  1.00  0.00     0.016 A 
HETATM   15  N   UNL     1       5.064  27.422  54.724  1.00  0.00    -0.203 NA
ENDROOT
BRANCH   1  16
HETATM   16  C   UNL     1       3.744  29.541  54.407  1.00  0.00     0.103 C 
BRANCH  16  17
HETATM   17  C   UNL     1       4.397  30.915  54.563  1.00  0.00     0.133 C 
BRANCH  17  18
HETATM   18  N   UNL     1       3.849  31.671  55.695  1.00  0.00    -0.352 N 
HETATM   19  C   UNL     1       4.708  31.967  56.754  1.00  0.00     0.253 C 
HETATM   20  O   UNL     1       5.912  31.721  56.723  1.00  0.00    -0.267 OA
HETATM   21  C   UNL     1       2.507  32.217  55.534  1.00  0.00     0.152 C 
BRANCH  19  22
HETATM   22  C   UNL     1       4.167  32.601  57.978  1.00  0.00     0.032 A 
HETATM   23  C   UNL     1       3.663  31.837  59.029  1.00  0.00     0.019 A 
HETATM   24  C   UNL     1       3.179  32.470  60.182  1.00  0.00     0.030 A 
HETATM   25  C   UNL     1       3.212  33.868  60.338  1.00  0.00     0.029 A 
HETATM   26  C   UNL     1       3.741  34.604  59.260  1.00  0.00     0.030 A 
HETATM   27  C   UNL     1       4.224  33.987  58.099  1.00  0.00     0.019 A 
BRANCH  25  28
HETATM   28  N   UNL     1       2.718  34.515  61.479  1.00  0.00    -0.390 N 
HETATM   29  C   UNL     1       2.798  33.840  62.773  1.00  0.00     0.149 C 
HETATM   30  C   UNL     1       2.890  35.970  61.529  1.00  0.00     0.149 C 
ENDBRANCH  25  28
ENDBRANCH  19  22
ENDBRANCH  17  18
ENDBRANCH  16  17
ENDBRANCH   1  16
BRANCH  12  31
HETATM   31  O   UNL     1       9.148  21.004  53.559  1.00  0.00    -0.356 OA
HETATM   32  C   UNL     1       8.212  20.406  52.671  1.00  0.00     0.210 C 
ENDBRANCH  12  31
TORSDOF 6
ENDMDL
