MODEL 1
REMARK VINA RESULT:      -9.2      0.000      0.000
REMARK  7 active torsions:
REMARK  status: ('A' for Active; 'I' for Inactive)
REMARK    1  A    between atoms: C_2  and  O_3 
REMARK    2  A    between atoms: O_3  and  C_4 
REMARK    3  A    between atoms: C_4  and  C_5 
REMARK    4  A    between atoms: C_6  and  C_7 
REMARK    5  A    between atoms: C_18  and  S_19 
REMARK    6  A    between atoms: S_19  and  C_20 
REMARK    7  A    between atoms: C_20  and  C_21 
ROOT
HETATM    1  C   UNL     1       9.115  30.219  58.419  1.00  0.00     0.070 A 
HETATM    2  C   UNL     1       7.668  29.749  58.520  1.00  0.00     0.203 A 
HETATM    3  N   UNL     1       7.387  28.668  57.569  1.00  0.00    -0.082 N 
HETATM    4  C   UNL     1       8.314  28.129  56.723  1.00  0.00     0.726 A 
HETATM    5  N   UNL     1       9.571  28.609  56.731  1.00  0.00    -0.192 N 
HETATM    6  N   UNL     1       6.200  28.033  57.466  1.00  0.00    -0.128 NA
HETATM    7  C   UNL     1       6.468  27.165  56.482  1.00  0.00     0.226 A 
HETATM    8  N   UNL     1       7.760  27.178  56.018  1.00  0.00    -0.035 NA
HETATM    9  C   UNL     1       9.992  29.645  57.557  1.00  0.00     0.037 A 
HETATM   10  C   UNL     1      11.447  30.025  57.432  1.00  0.00     0.070 C 
HETATM   11  H   UNL     1      10.253  28.203  56.095  1.00  0.00     0.184 HD
ENDROOT
BRANCH   7  12
HETATM   12  S   UNL     1       5.271  26.064  55.857  1.00  0.00    -0.083 SA
BRANCH  12  13
HETATM   13  C   UNL     1       5.996  25.696  54.234  1.00  0.00     0.123 C 
BRANCH  13  14
HETATM   14  C   UNL     1       6.796  24.414  54.259  1.00  0.00    -0.027 A 
HETATM   15  C   UNL     1       7.550  23.962  53.165  1.00  0.00     0.041 A 
HETATM   16 CL   UNL     1       7.618  24.835  51.674  1.00  0.00    -0.084 Cl
HETATM   17  C   UNL     1       8.281  22.772  53.248  1.00  0.00     0.024 A 
HETATM   18  C   UNL     1       8.273  22.021  54.424  1.00  0.00     0.002 A 
HETATM   19  C   UNL     1       7.538  22.460  55.520  1.00  0.00     0.001 A 
HETATM   20  C   UNL     1       6.807  23.648  55.440  1.00  0.00     0.009 A 
ENDBRANCH  13  14
ENDBRANCH  12  13
ENDBRANCH   7  12
BRANCH   2  21
HETATM   21  C   UNL     1       6.644  30.868  58.346  1.00  0.00    -0.026 A 
HETATM   22  C   UNL     1       6.253  31.631  59.462  1.00  0.00     0.033 A 
HETATM   23  C   UNL     1       5.325  32.660  59.323  1.00  0.00     0.034 A 
HETATM   24 CL   UNL     1       4.871  33.589  60.699  1.00  0.00    -0.084 Cl
HETATM   25  C   UNL     1       4.767  32.946  58.081  1.00  0.00     0.024 A 
HETATM   26  C   UNL     1       5.137  32.192  56.967  1.00  0.00     0.002 A 
HETATM   27  C   UNL     1       6.067  31.157  57.097  1.00  0.00     0.010 A 
ENDBRANCH   2  21
BRANCH   1  28
HETATM   28  C   UNL     1       9.498  31.368  59.264  1.00  0.00     0.293 C 
HETATM   29  O   UNL     1       9.696  32.496  58.839  1.00  0.00    -0.259 OA
BRANCH  28  30
HETATM   30  O   UNL     1       9.566  30.978  60.560  1.00  0.00    -0.318 OA
BRANCH  30  31
HETATM   31  C   UNL     1       9.681  32.042  61.519  1.00  0.00     0.174 C 
HETATM   32  C   UNL     1       8.472  32.054  62.437  1.00  0.00     0.034 C 
ENDBRANCH  30  31
ENDBRANCH  28  30
ENDBRANCH   1  28
TORSDOF 7
ENDMDL
MODEL 2
REMARK VINA RESULT:      -9.2      2.001      2.303
REMARK  7 active torsions:
REMARK  status: ('A' for Active; 'I' for Inactive)
REMARK    1  A    between atoms: C_2  and  O_3 
REMARK    2  A    between atoms: O_3  and  C_4 
REMARK    3  A    between atoms: C_4  and  C_5 
REMARK    4  A    between atoms: C_6  and  C_7 
REMARK    5  A    between atoms: C_18  and  S_19 
REMARK    6  A    between atoms: S_19  and  C_20 
REMARK    7  A    between atoms: C_20  and  C_21 
ROOT
HETATM    1  C   UNL     1       8.162  30.062  57.721  1.00  0.00     0.070 A 
HETATM    2  C   UNL     1       6.846  29.435  57.277  1.00  0.00     0.203 A 
HETATM    3  N   UNL     1       6.984  28.758  55.983  1.00  0.00    -0.082 N 
HETATM    4  C   UNL     1       8.152  28.672  55.281  1.00  0.00     0.726 A 
HETATM    5  N   UNL     1       9.262  29.248  55.778  1.00  0.00    -0.192 N 
HETATM    6  N   UNL     1       5.991  28.082  55.367  1.00  0.00    -0.128 NA
HETATM    7  C   UNL     1       6.620  27.672  54.258  1.00  0.00     0.226 A 
HETATM    8  N   UNL     1       7.952  27.995  54.182  1.00  0.00    -0.035 NA
HETATM    9  C   UNL     1       9.293  29.945  56.980  1.00  0.00     0.037 A 
HETATM   10  C   UNL     1      10.640  30.500  57.376  1.00  0.00     0.070 C 
HETATM   11  H   UNL     1      10.127  29.181  55.246  1.00  0.00     0.184 HD
ENDROOT
BRANCH   7  12
HETATM   12  S   UNL     1       5.816  26.758  53.013  1.00  0.00    -0.083 SA
BRANCH  12  13
HETATM   13  C   UNL     1       5.351  25.278  53.957  1.00  0.00     0.123 C 
BRANCH  13  14
HETATM   14  C   UNL     1       6.528  24.352  54.157  1.00  0.00    -0.027 A 
HETATM   15  C   UNL     1       7.109  24.115  55.413  1.00  0.00     0.041 A 
HETATM   16 CL   UNL     1       6.532  24.881  56.850  1.00  0.00    -0.084 Cl
HETATM   17  C   UNL     1       8.192  23.237  55.541  1.00  0.00     0.024 A 
HETATM   18  C   UNL     1       8.703  22.582  54.421  1.00  0.00     0.002 A 
HETATM   19  C   UNL     1       8.133  22.800  53.171  1.00  0.00     0.001 A 
HETATM   20  C   UNL     1       7.053  23.675  53.040  1.00  0.00     0.009 A 
ENDBRANCH  13  14
ENDBRANCH  12  13
ENDBRANCH   7  12
BRANCH   2  21
HETATM   21  C   UNL     1       5.682  30.422  57.221  1.00  0.00    -0.026 A 
HETATM   22  C   UNL     1       5.715  31.481  56.294  1.00  0.00     0.033 A 
HETATM   23  C   UNL     1       4.660  32.389  56.223  1.00  0.00     0.034 A 
HETATM   24 CL   UNL     1       4.714  33.668  55.073  1.00  0.00    -0.084 Cl
HETATM   25  C   UNL     1       3.563  32.265  57.069  1.00  0.00     0.024 A 
HETATM   26  C   UNL     1       3.521  31.226  58.000  1.00  0.00     0.002 A 
HETATM   27  C   UNL     1       4.574  30.311  58.079  1.00  0.00     0.010 A 
ENDBRANCH   2  21
BRANCH   1  28
HETATM   28  C   UNL     1       8.132  30.853  58.968  1.00  0.00     0.293 C 
HETATM   29  O   UNL     1       7.878  32.046  59.018  1.00  0.00    -0.259 OA
BRANCH  28  30
HETATM   30  O   UNL     1       8.397  30.046  60.026  1.00  0.00    -0.318 OA
BRANCH  30  31
HETATM   31  C   UNL     1       9.243  30.615  61.037  1.00  0.00     0.174 C 
HETATM   32  C   UNL     1       8.435  30.924  62.285  1.00  0.00     0.034 C 
ENDBRANCH  30  31
ENDBRANCH  28  30
ENDBRANCH   1  28
TORSDOF 7
ENDMDL
MODEL 3
REMARK VINA RESULT:      -8.9      4.069      6.668
REMARK  7 active torsions:
REMARK  status: ('A' for Active; 'I' for Inactive)
REMARK    1  A    between atoms: C_2  and  O_3 
REMARK    2  A    between atoms: O_3  and  C_4 
REMARK    3  A    between atoms: C_4  and  C_5 
REMARK    4  A    between atoms: C_6  and  C_7 
REMARK    5  A    between atoms: C_18  and  S_19 
REMARK    6  A    between atoms: S_19  and  C_20 
REMARK    7  A    between atoms: C_20  and  C_21 
ROOT
HETATM    1  C   UNL     1       7.154  29.102  56.052  1.00  0.00     0.070 A 
HETATM    2  C   UNL     1       6.832  28.389  54.744  1.00  0.00     0.203 A 
HETATM    3  N   UNL     1       5.563  28.859  54.175  1.00  0.00    -0.082 N 
HETATM    4  C   UNL     1       4.787  29.835  54.732  1.00  0.00     0.726 A 
HETATM    5  N   UNL     1       5.179  30.412  55.882  1.00  0.00    -0.192 N 
HETATM    6  N   UNL     1       5.049  28.432  53.003  1.00  0.00    -0.128 NA
HETATM    7  C   UNL     1       3.919  29.148  52.951  1.00  0.00     0.226 A 
HETATM    8  N   UNL     1       3.736  30.036  53.981  1.00  0.00    -0.035 NA
HETATM    9  C   UNL     1       6.342  30.065  56.558  1.00  0.00     0.037 A 
HETATM   10  C   UNL     1       6.618  30.843  57.821  1.00  0.00     0.070 C 
HETATM   11  H   UNL     1       4.592  31.136  56.290  1.00  0.00     0.184 HD
ENDROOT
BRANCH   7  12
HETATM   12  S   UNL     1       2.776  28.996  51.646  1.00  0.00    -0.083 SA
BRANCH  12  13
HETATM   13  C   UNL     1       3.910  29.007  50.228  1.00  0.00     0.123 C 
BRANCH  13  14
HETATM   14  C   UNL     1       3.515  27.982  49.191  1.00  0.00    -0.027 A 
HETATM   15  C   UNL     1       3.994  26.662  49.200  1.00  0.00     0.041 A 
HETATM   16 CL   UNL     1       5.098  26.094  50.402  1.00  0.00    -0.084 Cl
HETATM   17  C   UNL     1       3.585  25.751  48.219  1.00  0.00     0.024 A 
HETATM   18  C   UNL     1       2.691  26.144  47.223  1.00  0.00     0.002 A 
HETATM   19  C   UNL     1       2.202  27.445  47.205  1.00  0.00     0.001 A 
HETATM   20  C   UNL     1       2.608  28.357  48.182  1.00  0.00     0.009 A 
ENDBRANCH  13  14
ENDBRANCH  12  13
ENDBRANCH   7  12
BRANCH   2  21
HETATM   21  C   UNL     1       6.811  26.866  54.861  1.00  0.00    -0.026 A 
HETATM   22  C   UNL     1       7.460  26.087  53.886  1.00  0.00     0.033 A 
HETATM   23  C   UNL     1       7.457  24.697  53.978  1.00  0.00     0.034 A 
HETATM   24 CL   UNL     1       8.268  23.763  52.781  1.00  0.00    -0.084 Cl
HETATM   25  C   UNL     1       6.811  24.059  55.032  1.00  0.00     0.024 A 
HETATM   26  C   UNL     1       6.155  24.818  56.001  1.00  0.00     0.002 A 
HETATM   27  C   UNL     1       6.152  26.213  55.917  1.00  0.00     0.010 A 
ENDBRANCH   2  21
BRANCH   1  28
HETATM   28  C   UNL     1       8.363  28.651  56.771  1.00  0.00     0.293 C 
HETATM   29  O   UNL     1       8.346  27.933  57.759  1.00  0.00    -0.259 OA
BRANCH  28  30
HETATM   30  O   UNL     1       9.468  29.132  56.150  1.00  0.00    -0.318 OA
BRANCH  30  31
HETATM   31  C   UNL     1      10.594  29.385  57.005  1.00  0.00     0.174 C 
HETATM   32  C   UNL     1      10.512  30.788  57.580  1.00  0.00     0.034 C 
ENDBRANCH  30  31
ENDBRANCH  28  30
ENDBRANCH   1  28
TORSDOF 7
ENDMDL
MODEL 4
REMARK VINA RESULT:      -8.9      3.456      8.450
REMARK  7 active torsions:
REMARK  status: ('A' for Active; 'I' for Inactive)
REMARK    1  A    between atoms: C_2  and  O_3 
REMARK    2  A    between atoms: O_3  and  C_4 
REMARK    3  A    between atoms: C_4  and  C_5 
REMARK    4  A    between atoms: C_6  and  C_7 
REMARK    5  A    between atoms: C_18  and  S_19 
REMARK    6  A    between atoms: S_19  and  C_20 
REMARK    7  A    between atoms: C_20  and  C_21 
ROOT
HETATM    1  C   UNL     1       7.280  25.626  55.090  1.00  0.00     0.070 A 
HETATM    2  C   UNL     1       7.481  27.114  54.825  1.00  0.00     0.203 A 
HETATM    3  N   UNL     1       7.846  27.833  56.052  1.00  0.00    -0.082 N 
HETATM    4  C   UNL     1       8.015  27.238  57.269  1.00  0.00     0.726 A 
HETATM    5  N   UNL     1       7.830  25.910  57.385  1.00  0.00    -0.192 N 
HETATM    6  N   UNL     1       8.123  29.152  56.108  1.00  0.00    -0.128 NA
HETATM    7  C   UNL     1       8.385  29.297  57.413  1.00  0.00     0.226 A 
HETATM    8  N   UNL     1       8.351  28.140  58.152  1.00  0.00    -0.035 NA
HETATM    9  C   UNL     1       7.461  25.091  56.324  1.00  0.00     0.037 A 
HETATM   10  C   UNL     1       7.324  23.624  56.653  1.00  0.00     0.070 C 
HETATM   11  H   UNL     1       7.955  25.477  58.297  1.00  0.00     0.184 HD
ENDROOT
BRANCH   7  12
HETATM   12  S   UNL     1       8.780  30.837  58.121  1.00  0.00    -0.083 SA
BRANCH  12  13
HETATM   13  C   UNL     1       7.199  31.234  58.919  1.00  0.00     0.123 C 
BRANCH  13  14
HETATM   14  C   UNL     1       7.395  31.712  60.339  1.00  0.00    -0.027 A 
HETATM   15  C   UNL     1       6.383  32.341  61.081  1.00  0.00     0.041 A 
HETATM   16 CL   UNL     1       4.814  32.642  60.421  1.00  0.00    -0.084 Cl
HETATM   17  C   UNL     1       6.618  32.753  62.398  1.00  0.00     0.024 A 
HETATM   18  C   UNL     1       7.861  32.536  62.992  1.00  0.00     0.002 A 
HETATM   19  C   UNL     1       8.871  31.905  62.273  1.00  0.00     0.001 A 
HETATM   20  C   UNL     1       8.640  31.494  60.959  1.00  0.00     0.009 A 
ENDBRANCH  13  14
ENDBRANCH  12  13
ENDBRANCH   7  12
BRANCH   2  21
HETATM   21  C   UNL     1       6.280  27.791  54.169  1.00  0.00    -0.026 A 
HETATM   22  C   UNL     1       6.387  28.264  52.848  1.00  0.00     0.033 A 
HETATM   23  C   UNL     1       5.301  28.879  52.229  1.00  0.00     0.034 A 
HETATM   24 CL   UNL     1       5.450  29.439  50.609  1.00  0.00    -0.084 Cl
HETATM   25  C   UNL     1       4.097  29.038  52.909  1.00  0.00     0.024 A 
HETATM   26  C   UNL     1       3.979  28.582  54.221  1.00  0.00     0.002 A 
HETATM   27  C   UNL     1       5.063  27.965  54.851  1.00  0.00     0.010 A 
ENDBRANCH   2  21
BRANCH   1  28
HETATM   28  C   UNL     1       6.821  24.807  53.950  1.00  0.00     0.293 C 
HETATM   29  O   UNL     1       5.648  24.587  53.692  1.00  0.00    -0.259 OA
BRANCH  28  30
HETATM   30  O   UNL     1       7.892  24.375  53.239  1.00  0.00    -0.318 OA
BRANCH  30  31
HETATM   31  C   UNL     1       7.839  23.002  52.820  1.00  0.00     0.174 C 
HETATM   32  C   UNL     1       8.804  22.166  53.642  1.00  0.00     0.034 C 
ENDBRANCH  30  31
ENDBRANCH  28  30
ENDBRANCH   1  28
TORSDOF 7
ENDMDL
MODEL 5
REMARK VINA RESULT:      -8.8      2.322      3.056
REMARK  7 active torsions:
REMARK  status: ('A' for Active; 'I' for Inactive)
REMARK    1  A    between atoms: C_2  and  O_3 
REMARK    2  A    between atoms: O_3  and  C_4 
REMARK    3  A    between atoms: C_4  and  C_5 
REMARK    4  A    between atoms: C_6  and  C_7 
REMARK    5  A    between atoms: C_18  and  S_19 
REMARK    6  A    between atoms: S_19  and  C_20 
REMARK    7  A    between atoms: C_20  and  C_21 
ROOT
HETATM    1  C   UNL     1       6.570  30.609  58.214  1.00  0.00     0.070 A 
HETATM    2  C   UNL     1       5.505  29.625  57.746  1.00  0.00     0.203 A 
HETATM    3  N   UNL     1       6.103  28.369  57.279  1.00  0.00    -0.082 N 
HETATM    4  C   UNL     1       7.442  28.104  57.293  1.00  0.00     0.726 A 
HETATM    5  N   UNL     1       8.294  29.041  57.748  1.00  0.00    -0.192 N 
HETATM    6  N   UNL     1       5.397  27.304  56.845  1.00  0.00    -0.128 NA
HETATM    7  C   UNL     1       6.387  26.453  56.547  1.00  0.00     0.226 A 
HETATM    8  N   UNL     1       7.654  26.900  56.831  1.00  0.00    -0.035 NA
HETATM    9  C   UNL     1       7.889  30.290  58.204  1.00  0.00     0.037 A 
HETATM   10  C   UNL     1       8.996  31.193  58.693  1.00  0.00     0.070 C 
HETATM   11  H   UNL     1       9.291  28.835  57.751  1.00  0.00     0.184 HD
ENDROOT
BRANCH   7  12
HETATM   12  S   UNL     1       6.091  24.871  55.882  1.00  0.00    -0.083 SA
BRANCH  12  13
HETATM   13  C   UNL     1       7.794  24.256  55.756  1.00  0.00     0.123 C 
BRANCH  13  14
HETATM   14  C   UNL     1       7.864  22.962  54.979  1.00  0.00    -0.027 A 
HETATM   15  C   UNL     1       7.984  22.915  53.581  1.00  0.00     0.041 A 
HETATM   16 CL   UNL     1       8.048  24.348  52.617  1.00  0.00    -0.084 Cl
HETATM   17  C   UNL     1       8.055  21.687  52.915  1.00  0.00     0.024 A 
HETATM   18  C   UNL     1       8.014  20.492  53.634  1.00  0.00     0.002 A 
HETATM   19  C   UNL     1       7.904  20.522  55.020  1.00  0.00     0.001 A 
HETATM   20  C   UNL     1       7.832  21.747  55.688  1.00  0.00     0.009 A 
ENDBRANCH  13  14
ENDBRANCH  12  13
ENDBRANCH   7  12
BRANCH   2  21
HETATM   21  C   UNL     1       4.579  30.187  56.669  1.00  0.00    -0.026 A 
HETATM   22  C   UNL     1       4.942  30.074  55.314  1.00  0.00     0.033 A 
HETATM   23  C   UNL     1       4.109  30.574  54.316  1.00  0.00     0.034 A 
HETATM   24 CL   UNL     1       4.566  30.414  52.665  1.00  0.00    -0.084 Cl
HETATM   25  C   UNL     1       2.908  31.197  54.645  1.00  0.00     0.024 A 
HETATM   26  C   UNL     1       2.540  31.325  55.984  1.00  0.00     0.002 A 
HETATM   27  C   UNL     1       3.370  30.826  56.991  1.00  0.00     0.010 A 
ENDBRANCH   2  21
BRANCH   1  28
HETATM   28  C   UNL     1       6.101  31.948  58.624  1.00  0.00     0.293 C 
HETATM   29  O   UNL     1       6.062  32.918  57.883  1.00  0.00    -0.259 OA
BRANCH  28  30
HETATM   30  O   UNL     1       5.703  31.915  59.920  1.00  0.00    -0.318 OA
BRANCH  30  31
HETATM   31  C   UNL     1       6.499  32.691  60.829  1.00  0.00     0.174 C 
HETATM   32  C   UNL     1       6.889  31.852  62.032  1.00  0.00     0.034 C 
ENDBRANCH  30  31
ENDBRANCH  28  30
ENDBRANCH   1  28
TORSDOF 7
ENDMDL
MODEL 6
REMARK VINA RESULT:      -8.7      4.820      7.472
REMARK  7 active torsions:
REMARK  status: ('A' for Active; 'I' for Inactive)
REMARK    1  A    between atoms: C_2  and  O_3 
REMARK    2  A    between atoms: O_3  and  C_4 
REMARK    3  A    between atoms: C_4  and  C_5 
REMARK    4  A    between atoms: C_6  and  C_7 
REMARK    5  A    between atoms: C_18  and  S_19 
REMARK    6  A    between atoms: S_19  and  C_20 
REMARK    7  A    between atoms: C_20  and  C_21 
ROOT
HETATM    1  C   UNL     1       7.587  24.388  54.825  1.00  0.00     0.070 A 
HETATM    2  C   UNL     1       6.622  25.558  54.981  1.00  0.00     0.203 A 
HETATM    3  N   UNL     1       6.184  26.069  53.677  1.00  0.00    -0.082 N 
HETATM    4  C   UNL     1       6.566  25.542  52.477  1.00  0.00     0.726 A 
HETATM    5  N   UNL     1       7.409  24.493  52.457  1.00  0.00    -0.192 N 
HETATM    6  N   UNL     1       5.299  27.075  53.511  1.00  0.00    -0.128 NA
HETATM    7  C   UNL     1       5.249  27.145  52.175  1.00  0.00     0.226 A 
HETATM    8  N   UNL     1       5.995  26.206  51.507  1.00  0.00    -0.035 NA
HETATM    9  C   UNL     1       7.932  23.907  53.604  1.00  0.00     0.037 A 
HETATM   10  C   UNL     1       8.844  22.726  53.372  1.00  0.00     0.070 C 
HETATM   11  H   UNL     1       7.690  24.109  51.558  1.00  0.00     0.184 HD
ENDROOT
BRANCH   7  12
HETATM   12  S   UNL     1       4.276  28.321  51.337  1.00  0.00    -0.083 SA
BRANCH  12  13
HETATM   13  C   UNL     1       4.975  28.179  49.668  1.00  0.00     0.123 C 
BRANCH  13  14
HETATM   14  C   UNL     1       4.003  27.527  48.711  1.00  0.00    -0.027 A 
HETATM   15  C   UNL     1       3.008  28.242  48.027  1.00  0.00     0.041 A 
HETATM   16 CL   UNL     1       2.796  29.945  48.232  1.00  0.00    -0.084 Cl
HETATM   17  C   UNL     1       2.143  27.587  47.143  1.00  0.00     0.024 A 
HETATM   18  C   UNL     1       2.263  26.214  46.928  1.00  0.00     0.002 A 
HETATM   19  C   UNL     1       3.250  25.493  47.592  1.00  0.00     0.001 A 
HETATM   20  C   UNL     1       4.115  26.144  48.474  1.00  0.00     0.009 A 
ENDBRANCH  13  14
ENDBRANCH  12  13
ENDBRANCH   7  12
BRANCH   2  21
HETATM   21  C   UNL     1       7.176  26.704  55.824  1.00  0.00    -0.026 A 
HETATM   22  C   UNL     1       8.189  27.526  55.296  1.00  0.00     0.033 A 
HETATM   23  C   UNL     1       8.704  28.581  56.048  1.00  0.00     0.034 A 
HETATM   24 CL   UNL     1       9.932  29.582  55.378  1.00  0.00    -0.084 Cl
HETATM   25  C   UNL     1       8.228  28.833  57.331  1.00  0.00     0.024 A 
HETATM   26  C   UNL     1       7.232  28.020  57.871  1.00  0.00     0.002 A 
HETATM   27  C   UNL     1       6.709  26.960  57.125  1.00  0.00     0.010 A 
ENDBRANCH   2  21
BRANCH   1  28
HETATM   28  C   UNL     1       8.172  23.842  56.066  1.00  0.00     0.293 C 
HETATM   29  O   UNL     1       9.121  24.338  56.653  1.00  0.00    -0.259 OA
BRANCH  28  30
HETATM   30  O   UNL     1       7.478  22.742  56.452  1.00  0.00    -0.318 OA
BRANCH  30  31
HETATM   31  C   UNL     1       8.278  21.632  56.889  1.00  0.00     0.174 C 
HETATM   32  C   UNL     1       7.903  20.380  56.116  1.00  0.00     0.034 C 
ENDBRANCH  30  31
ENDBRANCH  28  30
ENDBRANCH   1  28
TORSDOF 7
ENDMDL
MODEL 7
REMARK VINA RESULT:      -8.6      1.990      3.777
REMARK  7 active torsions:
REMARK  status: ('A' for Active; 'I' for Inactive)
REMARK    1  A    between atoms: C_2  and  O_3 
REMARK    2  A    between atoms: O_3  and  C_4 
REMARK    3  A    between atoms: C_4  and  C_5 
REMARK    4  A    between atoms: C_6  and  C_7 
REMARK    5  A    between atoms: C_18  and  S_19 
REMARK    6  A    between atoms: S_19  and  C_20 
REMARK    7  A    between atoms: C_20  and  C_21 
ROOT
HETATM    1  C   UNL     1       5.640  31.075  57.582  1.00  0.00     0.070 A 
HETATM    2  C   UNL     1       7.040  30.477  57.506  1.00  0.00     0.203 A 
HETATM    3  N   UNL     1       6.994  29.012  57.432  1.00  0.00    -0.082 N 
HETATM    4  C   UNL     1       5.842  28.280  57.402  1.00  0.00     0.726 A 
HETATM    5  N   UNL     1       4.657  28.915  57.455  1.00  0.00    -0.192 N 
HETATM    6  N   UNL     1       8.082  28.221  57.315  1.00  0.00    -0.128 NA
HETATM    7  C   UNL     1       7.507  27.011  57.291  1.00  0.00     0.226 A 
HETATM    8  N   UNL     1       6.135  27.009  57.318  1.00  0.00    -0.035 NA
HETATM    9  C   UNL     1       4.529  30.296  57.549  1.00  0.00     0.037 A 
HETATM   10  C   UNL     1       3.113  30.818  57.575  1.00  0.00     0.070 C 
HETATM   11  H   UNL     1       3.804  28.360  57.434  1.00  0.00     0.184 HD
ENDROOT
BRANCH   7  12
HETATM   12  S   UNL     1       8.434  25.540  57.191  1.00  0.00    -0.083 SA
BRANCH  12  13
HETATM   13  C   UNL     1       7.120  24.368  56.747  1.00  0.00     0.123 C 
BRANCH  13  14
HETATM   14  C   UNL     1       7.391  23.705  55.417  1.00  0.00    -0.027 A 
HETATM   15  C   UNL     1       7.124  24.324  54.186  1.00  0.00     0.041 A 
HETATM   16 CL   UNL     1       6.441  25.909  54.084  1.00  0.00    -0.084 Cl
HETATM   17  C   UNL     1       7.406  23.667  52.983  1.00  0.00     0.024 A 
HETATM   18  C   UNL     1       7.963  22.388  52.994  1.00  0.00     0.002 A 
HETATM   19  C   UNL     1       8.241  21.764  54.206  1.00  0.00     0.001 A 
HETATM   20  C   UNL     1       7.961  22.418  55.408  1.00  0.00     0.009 A 
ENDBRANCH  13  14
ENDBRANCH  12  13
ENDBRANCH   7  12
BRANCH   2  21
HETATM   21  C   UNL     1       7.956  30.907  58.650  1.00  0.00    -0.026 A 
HETATM   22  C   UNL     1       7.503  30.801  59.978  1.00  0.00     0.033 A 
HETATM   23  C   UNL     1       8.325  31.182  61.037  1.00  0.00     0.034 A 
HETATM   24 CL   UNL     1       7.756  31.032  62.654  1.00  0.00    -0.084 Cl
HETATM   25  C   UNL     1       9.603  31.677  60.796  1.00  0.00     0.024 A 
HETATM   26  C   UNL     1      10.062  31.797  59.484  1.00  0.00     0.002 A 
HETATM   27  C   UNL     1       9.244  31.417  58.416  1.00  0.00     0.010 A 
ENDBRANCH   2  21
BRANCH   1  28
HETATM   28  C   UNL     1       5.554  32.540  57.753  1.00  0.00     0.293 C 
HETATM   29  O   UNL     1       5.581  33.341  56.832  1.00  0.00    -0.259 OA
BRANCH  28  30
HETATM   30  O   UNL     1       5.414  32.837  59.069  1.00  0.00    -0.318 OA
BRANCH  30  31
HETATM   31  C   UNL     1       4.451  33.859  59.371  1.00  0.00     0.174 C 
HETATM   32  C   UNL     1       3.442  33.346  60.382  1.00  0.00     0.034 C 
ENDBRANCH  30  31
ENDBRANCH  28  30
ENDBRANCH   1  28
TORSDOF 7
ENDMDL
MODEL 8
REMARK VINA RESULT:      -8.5      3.330      5.087
REMARK  7 active torsions:
REMARK  status: ('A' for Active; 'I' for Inactive)
REMARK    1  A    between atoms: C_2  and  O_3 
REMARK    2  A    between atoms: O_3  and  C_4 
REMARK    3  A    between atoms: C_4  and  C_5 
REMARK    4  A    between atoms: C_6  and  C_7 
REMARK    5  A    between atoms: C_18  and  S_19 
REMARK    6  A    between atoms: S_19  and  C_20 
REMARK    7  A    between atoms: C_20  and  C_21 
ROOT
HETATM    1  C   UNL     1       5.297  29.942  56.914  1.00  0.00     0.070 A 
HETATM    2  C   UNL     1       5.157  28.558  56.292  1.00  0.00     0.203 A 
HETATM    3  N   UNL     1       6.224  27.656  56.742  1.00  0.00    -0.082 N 
HETATM    4  C   UNL     1       7.200  28.006  57.631  1.00  0.00     0.726 A 
HETATM    5  N   UNL     1       7.217  29.254  58.134  1.00  0.00    -0.192 N 
HETATM    6  N   UNL     1       6.327  26.359  56.384  1.00  0.00    -0.128 NA
HETATM    7  C   UNL     1       7.437  26.006  57.046  1.00  0.00     0.226 A 
HETATM    8  N   UNL     1       7.986  26.983  57.839  1.00  0.00    -0.035 NA
HETATM    9  C   UNL     1       6.290  30.232  57.792  1.00  0.00     0.037 A 
HETATM   10  C   UNL     1       6.467  31.563  58.481  1.00  0.00     0.070 C 
HETATM   11  H   UNL     1       7.950  29.505  58.793  1.00  0.00     0.184 HD
ENDROOT
BRANCH   7  12
HETATM   12  S   UNL     1       8.117  24.407  56.940  1.00  0.00    -0.083 SA
BRANCH  12  13
HETATM   13  C   UNL     1       7.104  23.719  55.600  1.00  0.00     0.123 C 
BRANCH  13  14
HETATM   14  C   UNL     1       7.668  22.415  55.088  1.00  0.00    -0.027 A 
HETATM   15  C   UNL     1       7.993  22.200  53.739  1.00  0.00     0.041 A 
HETATM   16 CL   UNL     1       7.757  23.416  52.533  1.00  0.00    -0.084 Cl
HETATM   17  C   UNL     1       8.524  20.974  53.322  1.00  0.00     0.024 A 
HETATM   18  C   UNL     1       8.743  19.952  54.245  1.00  0.00     0.002 A 
HETATM   19  C   UNL     1       8.435  20.152  55.587  1.00  0.00     0.001 A 
HETATM   20  C   UNL     1       7.905  21.374  56.006  1.00  0.00     0.009 A 
ENDBRANCH  13  14
ENDBRANCH  12  13
ENDBRANCH   7  12
BRANCH   2  21
HETATM   21  C   UNL     1       5.102  28.571  54.766  1.00  0.00    -0.026 A 
HETATM   22  C   UNL     1       3.854  28.595  54.117  1.00  0.00     0.033 A 
HETATM   23  C   UNL     1       3.783  28.613  52.725  1.00  0.00     0.034 A 
HETATM   24 CL   UNL     1       2.247  28.655  51.952  1.00  0.00    -0.084 Cl
HETATM   25  C   UNL     1       4.944  28.604  51.958  1.00  0.00     0.024 A 
HETATM   26  C   UNL     1       6.188  28.570  52.587  1.00  0.00     0.002 A 
HETATM   27  C   UNL     1       6.269  28.551  53.983  1.00  0.00     0.010 A 
ENDBRANCH   2  21
BRANCH   1  28
HETATM   28  C   UNL     1       4.333  30.969  56.468  1.00  0.00     0.293 C 
HETATM   29  O   UNL     1       3.245  31.161  56.988  1.00  0.00    -0.259 OA
BRANCH  28  30
HETATM   30  O   UNL     1       4.858  31.665  55.429  1.00  0.00    -0.318 OA
BRANCH  30  31
HETATM   31  C   UNL     1       3.908  32.392  54.633  1.00  0.00     0.174 C 
HETATM   32  C   UNL     1       4.247  32.257  53.159  1.00  0.00     0.034 C 
ENDBRANCH  30  31
ENDBRANCH  28  30
ENDBRANCH   1  28
TORSDOF 7
ENDMDL
MODEL 9
REMARK VINA RESULT:      -8.4      2.665      3.918
REMARK  7 active torsions:
REMARK  status: ('A' for Active; 'I' for Inactive)
REMARK    1  A    between atoms: C_2  and  O_3 
REMARK    2  A    between atoms: O_3  and  C_4 
REMARK    3  A    between atoms: C_4  and  C_5 
REMARK    4  A    between atoms: C_6  and  C_7 
REMARK    5  A    between atoms: C_18  and  S_19 
REMARK    6  A    between atoms: S_19  and  C_20 
REMARK    7  A    between atoms: C_20  and  C_21 
ROOT
HETATM    1  C   UNL     1       6.022  30.609  57.803  1.00  0.00     0.070 A 
HETATM    2  C   UNL     1       4.996  29.753  57.069  1.00  0.00     0.203 A 
HETATM    3  N   UNL     1       5.630  28.612  56.398  1.00  0.00    -0.082 N 
HETATM    4  C   UNL     1       6.966  28.335  56.452  1.00  0.00     0.726 A 
HETATM    5  N   UNL     1       7.780  29.150  57.147  1.00  0.00    -0.192 N 
HETATM    6  N   UNL     1       4.960  27.666  55.707  1.00  0.00    -0.128 NA
HETATM    7  C   UNL     1       5.972  26.883  55.312  1.00  0.00     0.226 A 
HETATM    8  N   UNL     1       7.213  27.249  55.769  1.00  0.00    -0.035 NA
HETATM    9  C   UNL     1       7.339  30.284  57.820  1.00  0.00     0.037 A 
HETATM   10  C   UNL     1       8.405  31.056  58.559  1.00  0.00     0.070 C 
HETATM   11  H   UNL     1       8.774  28.937  57.178  1.00  0.00     0.184 HD
ENDROOT
BRANCH   7  12
HETATM   12  S   UNL     1       5.729  25.474  54.318  1.00  0.00    -0.083 SA
BRANCH  12  13
HETATM   13  C   UNL     1       7.455  25.006  54.005  1.00  0.00     0.123 C 
BRANCH  13  14
HETATM   14  C   UNL     1       7.662  23.516  54.145  1.00  0.00    -0.027 A 
HETATM   15  C   UNL     1       7.816  22.880  55.387  1.00  0.00     0.041 A 
HETATM   16 CL   UNL     1       7.797  23.756  56.876  1.00  0.00    -0.084 Cl
HETATM   17  C   UNL     1       7.994  21.493  55.458  1.00  0.00     0.024 A 
HETATM   18  C   UNL     1       8.015  20.726  54.293  1.00  0.00     0.002 A 
HETATM   19  C   UNL     1       7.855  21.341  53.056  1.00  0.00     0.001 A 
HETATM   20  C   UNL     1       7.677  22.724  52.982  1.00  0.00     0.009 A 
ENDBRANCH  13  14
ENDBRANCH  12  13
ENDBRANCH   7  12
BRANCH   2  21
HETATM   21  C   UNL     1       4.146  30.533  56.068  1.00  0.00    -0.026 A 
HETATM   22  C   UNL     1       4.655  30.795  54.783  1.00  0.00     0.033 A 
HETATM   23  C   UNL     1       3.894  31.500  53.853  1.00  0.00     0.034 A 
HETATM   24 CL   UNL     1       4.531  31.798  52.282  1.00  0.00    -0.084 Cl
HETATM   25  C   UNL     1       2.622  31.958  54.183  1.00  0.00     0.024 A 
HETATM   26  C   UNL     1       2.109  31.715  55.456  1.00  0.00     0.002 A 
HETATM   27  C   UNL     1       2.865  31.009  56.396  1.00  0.00     0.010 A 
ENDBRANCH   2  21
BRANCH   1  28
HETATM   28  C   UNL     1       5.520  31.841  58.444  1.00  0.00     0.293 C 
HETATM   29  O   UNL     1       4.916  31.866  59.505  1.00  0.00    -0.259 OA
BRANCH  28  30
HETATM   30  O   UNL     1       5.857  32.916  57.689  1.00  0.00    -0.318 OA
BRANCH  30  31
HETATM   31  C   UNL     1       4.831  33.912  57.542  1.00  0.00     0.174 C 
HETATM   32  C   UNL     1       4.801  34.426  56.114  1.00  0.00     0.034 C 
ENDBRANCH  30  31
ENDBRANCH  28  30
ENDBRANCH   1  28
TORSDOF 7
ENDMDL
MODEL 10
REMARK VINA RESULT:      -8.3      2.561      3.844
REMARK  7 active torsions:
REMARK  status: ('A' for Active; 'I' for Inactive)
REMARK    1  A    between atoms: C_2  and  O_3 
REMARK    2  A    between atoms: O_3  and  C_4 
REMARK    3  A    between atoms: C_4  and  C_5 
REMARK    4  A    between atoms: C_6  and  C_7 
REMARK    5  A    between atoms: C_18  and  S_19 
REMARK    6  A    between atoms: S_19  and  C_20 
REMARK    7  A    between atoms: C_20  and  C_21 
ROOT
HETATM    1  C   UNL     1       5.388  31.401  58.274  1.00  0.00     0.070 A 
HETATM    2  C   UNL     1       4.505  30.478  57.442  1.00  0.00     0.203 A 
HETATM    3  N   UNL     1       5.202  29.233  57.100  1.00  0.00    -0.082 N 
HETATM    4  C   UNL     1       6.470  28.927  57.503  1.00  0.00     0.726 A 
HETATM    5  N   UNL     1       7.154  29.810  58.254  1.00  0.00    -0.192 N 
HETATM    6  N   UNL     1       4.650  28.217  56.405  1.00  0.00    -0.128 NA
HETATM    7  C   UNL     1       5.674  27.355  56.368  1.00  0.00     0.226 A 
HETATM    8  N   UNL     1       6.798  27.746  57.051  1.00  0.00    -0.035 NA
HETATM    9  C   UNL     1       6.643  31.043  58.645  1.00  0.00     0.037 A 
HETATM   10  C   UNL     1       7.558  31.882  59.503  1.00  0.00     0.070 C 
HETATM   11  H   UNL     1       8.099  29.574  58.547  1.00  0.00     0.184 HD
ENDROOT
BRANCH   7  12
HETATM   12  S   UNL     1       5.576  25.824  55.544  1.00  0.00    -0.083 SA
BRANCH  12  13
HETATM   13  C   UNL     1       7.341  25.502  55.263  1.00  0.00     0.123 C 
BRANCH  13  14
HETATM   14  C   UNL     1       7.575  24.110  54.724  1.00  0.00    -0.027 A 
HETATM   15  C   UNL     1       7.840  23.850  53.370  1.00  0.00     0.041 A 
HETATM   16 CL   UNL     1       7.907  25.110  52.189  1.00  0.00    -0.084 Cl
HETATM   17  C   UNL     1       8.060  22.541  52.928  1.00  0.00     0.024 A 
HETATM   18  C   UNL     1       8.025  21.478  53.830  1.00  0.00     0.002 A 
HETATM   19  C   UNL     1       7.772  21.720  55.176  1.00  0.00     0.001 A 
HETATM   20  C   UNL     1       7.552  23.026  55.620  1.00  0.00     0.009 A 
ENDBRANCH  13  14
ENDBRANCH  12  13
ENDBRANCH   7  12
BRANCH   2  21
HETATM   21  C   UNL     1       3.958  31.129  56.173  1.00  0.00    -0.026 A 
HETATM   22  C   UNL     1       2.643  31.628  56.162  1.00  0.00     0.033 A 
HETATM   23  C   UNL     1       2.127  32.230  55.016  1.00  0.00     0.034 A 
HETATM   24 CL   UNL     1       0.520  32.846  55.027  1.00  0.00    -0.084 Cl
HETATM   25  C   UNL     1       2.903  32.342  53.866  1.00  0.00     0.024 A 
HETATM   26  C   UNL     1       4.205  31.843  53.860  1.00  0.00     0.002 A 
HETATM   27  C   UNL     1       4.731  31.237  55.004  1.00  0.00     0.010 A 
ENDBRANCH   2  21
BRANCH   1  28
HETATM   28  C   UNL     1       4.831  32.728  58.606  1.00  0.00     0.293 C 
HETATM   29  O   UNL     1       3.994  32.924  59.474  1.00  0.00    -0.259 OA
BRANCH  28  30
HETATM   30  O   UNL     1       5.411  33.673  57.826  1.00  0.00    -0.318 OA
BRANCH  30  31
HETATM   31  C   UNL     1       4.517  34.657  57.282  1.00  0.00     0.174 C 
HETATM   32  C   UNL     1       4.877  34.949  55.836  1.00  0.00     0.034 C 
ENDBRANCH  30  31
ENDBRANCH  28  30
ENDBRANCH   1  28
TORSDOF 7
ENDMDL
