MODEL 1
REMARK VINA RESULT:      -8.0      0.000      0.000
REMARK  3 active torsions:
REMARK  status: ('A' for Active; 'I' for Inactive)
REMARK       I    between atoms: C_2  and  N_3 
REMARK    1  A    between atoms: N_3  and  C_4 
REMARK    2  A    between atoms: C_7  and  N_8 
REMARK       I    between atoms: N_8  and  C_9 
REMARK    3  A    between atoms: C_9  and  C_10 
ROOT
HETATM    1  C   UNL     1       7.564  29.704  58.054  1.00  0.00     0.052 A 
HETATM    2  C   UNL     1       8.728  29.040  57.686  1.00  0.00     0.148 A 
HETATM    3  N   UNL     1       8.754  27.862  57.009  1.00  0.00    -0.241 NA
HETATM    4  C   UNL     1       7.573  27.303  56.677  1.00  0.00     0.130 A 
HETATM    5  C   UNL     1       6.359  27.884  57.010  1.00  0.00     0.053 A 
HETATM    6  C   UNL     1       6.360  29.097  57.704  1.00  0.00     0.035 A 
ENDROOT
BRANCH   4   7
HETATM    7  N   UNL     1       7.710  26.109  55.970  1.00  0.00    -0.307 N 
HETATM    8  C   UNL     1       8.144  24.891  56.435  1.00  0.00     0.257 C 
HETATM    9  O   UNL     1       8.486  24.637  57.585  1.00  0.00    -0.267 OA
HETATM   10  H   UNL     1       7.370  26.207  55.024  1.00  0.00     0.170 HD
BRANCH   8  11
HETATM   11  C   UNL     1       8.161  23.785  55.430  1.00  0.00     0.032 A 
HETATM   12  C   UNL     1       8.538  22.504  55.863  1.00  0.00     0.018 A 
HETATM   13  C   UNL     1       8.564  21.432  54.967  1.00  0.00     0.025 A 
HETATM   14  C   UNL     1       8.222  21.639  53.633  1.00  0.00     0.034 A 
HETATM   15 CL   UNL     1       8.252  20.321  52.529  1.00  0.00    -0.084 Cl
HETATM   16  C   UNL     1       7.863  22.910  53.185  1.00  0.00     0.025 A 
HETATM   17  C   UNL     1       7.836  23.986  54.080  1.00  0.00     0.018 A 
ENDBRANCH   8  11
ENDBRANCH   4   7
BRANCH   1  18
HETATM   18  N   UNL     1       7.506  30.934  58.740  1.00  0.00    -0.326 N 
HETATM   19  C   UNL     1       8.061  31.217  59.974  1.00  0.00     0.218 C 
HETATM   20  C   UNL     1       7.832  32.648  60.386  1.00  0.00     0.117 C 
HETATM   21  O   UNL     1       8.684  30.439  60.687  1.00  0.00    -0.274 OA
HETATM   22  H   UNL     1       7.016  31.687  58.273  1.00  0.00     0.169 HD
ENDBRANCH   1  18
TORSDOF 3
ENDMDL
MODEL 2
REMARK VINA RESULT:      -7.9      5.179      7.732
REMARK  3 active torsions:
REMARK  status: ('A' for Active; 'I' for Inactive)
REMARK       I    between atoms: C_2  and  N_3 
REMARK    1  A    between atoms: N_3  and  C_4 
REMARK    2  A    between atoms: C_7  and  N_8 
REMARK       I    between atoms: N_8  and  C_9 
REMARK    3  A    between atoms: C_9  and  C_10 
ROOT
HETATM    1  C   UNL     1       6.605  33.804  64.080  1.00  0.00     0.052 A 
HETATM    2  C   UNL     1       5.871  33.889  62.904  1.00  0.00     0.148 A 
HETATM    3  N   UNL     1       6.137  33.166  61.783  1.00  0.00    -0.241 NA
HETATM    4  C   UNL     1       7.183  32.316  61.820  1.00  0.00     0.130 A 
HETATM    5  C   UNL     1       7.981  32.171  62.944  1.00  0.00     0.053 A 
HETATM    6  C   UNL     1       7.684  32.923  64.084  1.00  0.00     0.035 A 
ENDROOT
BRANCH   4   7
HETATM    7  N   UNL     1       7.359  31.611  60.629  1.00  0.00    -0.307 N 
HETATM    8  C   UNL     1       8.291  31.827  59.643  1.00  0.00     0.257 C 
HETATM    9  O   UNL     1       9.159  32.694  59.646  1.00  0.00    -0.267 OA
HETATM   10  H   UNL     1       6.734  30.820  60.581  1.00  0.00     0.170 HD
BRANCH   8  11
HETATM   11  C   UNL     1       8.239  30.881  58.488  1.00  0.00     0.032 A 
HETATM   12  C   UNL     1       6.986  30.599  57.921  1.00  0.00     0.018 A 
HETATM   13  C   UNL     1       6.880  29.726  56.835  1.00  0.00     0.025 A 
HETATM   14  C   UNL     1       8.026  29.127  56.316  1.00  0.00     0.034 A 
HETATM   15 CL   UNL     1       7.898  28.054  54.977  1.00  0.00    -0.084 Cl
HETATM   16  C   UNL     1       9.274  29.385  56.880  1.00  0.00     0.025 A 
HETATM   17  C   UNL     1       9.384  30.257  57.970  1.00  0.00     0.018 A 
ENDBRANCH   8  11
ENDBRANCH   4   7
BRANCH   1  18
HETATM   18  N   UNL     1       6.342  34.527  65.262  1.00  0.00    -0.326 N 
HETATM   19  C   UNL     1       5.312  34.299  66.155  1.00  0.00     0.218 C 
HETATM   20  C   UNL     1       5.358  35.244  67.329  1.00  0.00     0.117 C 
HETATM   21  O   UNL     1       4.444  33.439  66.062  1.00  0.00    -0.274 OA
HETATM   22  H   UNL     1       6.980  35.282  65.480  1.00  0.00     0.169 HD
ENDBRANCH   1  18
TORSDOF 3
ENDMDL
MODEL 3
REMARK VINA RESULT:      -7.9      1.914      2.065
REMARK  3 active torsions:
REMARK  status: ('A' for Active; 'I' for Inactive)
REMARK       I    between atoms: C_2  and  N_3 
REMARK    1  A    between atoms: N_3  and  C_4 
REMARK    2  A    between atoms: C_7  and  N_8 
REMARK       I    between atoms: N_8  and  C_9 
REMARK    3  A    between atoms: C_9  and  C_10 
ROOT
HETATM    1  C   UNL     1       6.680  29.974  57.381  1.00  0.00     0.052 A 
HETATM    2  C   UNL     1       6.194  29.540  56.155  1.00  0.00     0.148 A 
HETATM    3  N   UNL     1       6.455  28.318  55.618  1.00  0.00    -0.241 NA
HETATM    4  C   UNL     1       7.239  27.478  56.323  1.00  0.00     0.130 A 
HETATM    5  C   UNL     1       7.781  27.826  57.550  1.00  0.00     0.053 A 
HETATM    6  C   UNL     1       7.495  29.086  58.082  1.00  0.00     0.035 A 
ENDROOT
BRANCH   4   7
HETATM    7  N   UNL     1       7.430  26.248  55.694  1.00  0.00    -0.307 N 
HETATM    8  C   UNL     1       6.642  25.125  55.765  1.00  0.00     0.257 C 
HETATM    9  O   UNL     1       5.601  25.013  56.405  1.00  0.00    -0.267 OA
HETATM   10  H   UNL     1       8.227  26.278  55.075  1.00  0.00     0.170 HD
BRANCH   8  11
HETATM   11  C   UNL     1       7.103  23.960  54.952  1.00  0.00     0.032 A 
HETATM   12  C   UNL     1       7.411  22.766  55.624  1.00  0.00     0.018 A 
HETATM   13  C   UNL     1       7.841  21.643  54.913  1.00  0.00     0.025 A 
HETATM   14  C   UNL     1       7.973  21.712  53.528  1.00  0.00     0.034 A 
HETATM   15 CL   UNL     1       8.500  20.330  52.650  1.00  0.00    -0.084 Cl
HETATM   16  C   UNL     1       7.688  22.896  52.850  1.00  0.00     0.025 A 
HETATM   17  C   UNL     1       7.258  24.024  53.560  1.00  0.00     0.018 A 
ENDBRANCH   8  11
ENDBRANCH   4   7
BRANCH   1  18
HETATM   18  N   UNL     1       6.413  31.226  57.971  1.00  0.00    -0.326 N 
HETATM   19  C   UNL     1       5.202  31.653  58.484  1.00  0.00     0.218 C 
HETATM   20  C   UNL     1       5.290  33.039  59.070  1.00  0.00     0.117 C 
HETATM   21  O   UNL     1       4.153  31.020  58.498  1.00  0.00    -0.274 OA
HETATM   22  H   UNL     1       7.190  31.871  58.032  1.00  0.00     0.169 HD
ENDBRANCH   1  18
TORSDOF 3
ENDMDL
MODEL 4
REMARK VINA RESULT:      -7.9      4.494      8.873
REMARK  3 active torsions:
REMARK  status: ('A' for Active; 'I' for Inactive)
REMARK       I    between atoms: C_2  and  N_3 
REMARK    1  A    between atoms: N_3  and  C_4 
REMARK    2  A    between atoms: C_7  and  N_8 
REMARK       I    between atoms: N_8  and  C_9 
REMARK    3  A    between atoms: C_9  and  C_10 
ROOT
HETATM    1  C   UNL     1       7.525  26.700  55.625  1.00  0.00     0.052 A 
HETATM    2  C   UNL     1       7.819  26.382  56.945  1.00  0.00     0.148 A 
HETATM    3  N   UNL     1       7.842  27.284  57.962  1.00  0.00    -0.241 NA
HETATM    4  C   UNL     1       7.564  28.570  57.665  1.00  0.00     0.130 A 
HETATM    5  C   UNL     1       7.271  28.986  56.376  1.00  0.00     0.053 A 
HETATM    6  C   UNL     1       7.251  28.038  55.349  1.00  0.00     0.035 A 
ENDROOT
BRANCH   4   7
HETATM    7  N   UNL     1       7.597  29.409  58.779  1.00  0.00    -0.307 N 
HETATM    8  C   UNL     1       8.606  30.250  59.180  1.00  0.00     0.257 C 
HETATM    9  O   UNL     1       9.677  30.418  58.607  1.00  0.00    -0.267 OA
HETATM   10  H   UNL     1       6.714  29.395  59.268  1.00  0.00     0.170 HD
BRANCH   8  11
HETATM   11  C   UNL     1       8.332  31.044  60.416  1.00  0.00     0.032 A 
HETATM   12  C   UNL     1       8.852  30.573  61.632  1.00  0.00     0.018 A 
HETATM   13  C   UNL     1       8.631  31.279  62.818  1.00  0.00     0.025 A 
HETATM   14  C   UNL     1       7.883  32.454  62.793  1.00  0.00     0.034 A 
HETATM   15 CL   UNL     1       7.611  33.326  64.250  1.00  0.00    -0.084 Cl
HETATM   16  C   UNL     1       7.345  32.923  61.595  1.00  0.00     0.025 A 
HETATM   17  C   UNL     1       7.563  32.217  60.406  1.00  0.00     0.018 A 
ENDBRANCH   8  11
ENDBRANCH   4   7
BRANCH   1  18
HETATM   18  N   UNL     1       7.476  25.784  54.555  1.00  0.00    -0.326 N 
HETATM   19  C   UNL     1       6.354  25.131  54.080  1.00  0.00     0.218 C 
HETATM   20  C   UNL     1       6.666  24.250  52.897  1.00  0.00     0.117 C 
HETATM   21  O   UNL     1       5.214  25.225  54.521  1.00  0.00    -0.274 OA
HETATM   22  H   UNL     1       8.351  25.597  54.082  1.00  0.00     0.169 HD
ENDBRANCH   1  18
TORSDOF 3
ENDMDL
MODEL 5
REMARK VINA RESULT:      -7.8      4.941      9.611
REMARK  3 active torsions:
REMARK  status: ('A' for Active; 'I' for Inactive)
REMARK       I    between atoms: C_2  and  N_3 
REMARK    1  A    between atoms: N_3  and  C_4 
REMARK    2  A    between atoms: C_7  and  N_8 
REMARK       I    between atoms: N_8  and  C_9 
REMARK    3  A    between atoms: C_9  and  C_10 
ROOT
HETATM    1  C   UNL     1       7.751  28.536  56.063  1.00  0.00     0.052 A 
HETATM    2  C   UNL     1       6.592  29.060  56.621  1.00  0.00     0.148 A 
HETATM    3  N   UNL     1       6.550  29.740  57.798  1.00  0.00    -0.241 NA
HETATM    4  C   UNL     1       7.710  29.911  58.464  1.00  0.00     0.130 A 
HETATM    5  C   UNL     1       8.915  29.414  57.993  1.00  0.00     0.053 A 
HETATM    6  C   UNL     1       8.931  28.722  56.780  1.00  0.00     0.035 A 
ENDROOT
BRANCH   4   7
HETATM    7  N   UNL     1       7.561  30.634  59.648  1.00  0.00    -0.307 N 
HETATM    8  C   UNL     1       8.111  31.849  59.976  1.00  0.00     0.257 C 
HETATM    9  O   UNL     1       8.841  32.529  59.262  1.00  0.00    -0.267 OA
HETATM   10  H   UNL     1       6.903  30.183  60.267  1.00  0.00     0.170 HD
BRANCH   8  11
HETATM   11  C   UNL     1       7.743  32.381  61.323  1.00  0.00     0.032 A 
HETATM   12  C   UNL     1       6.638  33.243  61.414  1.00  0.00     0.018 A 
HETATM   13  C   UNL     1       6.246  33.764  62.649  1.00  0.00     0.025 A 
HETATM   14  C   UNL     1       6.962  33.432  63.798  1.00  0.00     0.034 A 
HETATM   15 CL   UNL     1       6.480  34.072  65.320  1.00  0.00    -0.084 Cl
HETATM   16  C   UNL     1       8.071  32.592  63.719  1.00  0.00     0.025 A 
HETATM   17  C   UNL     1       8.468  32.069  62.483  1.00  0.00     0.018 A 
ENDBRANCH   8  11
ENDBRANCH   4   7
BRANCH   1  18
HETATM   18  N   UNL     1       7.828  27.843  54.837  1.00  0.00    -0.326 N 
HETATM   19  C   UNL     1       7.359  26.569  54.580  1.00  0.00     0.218 C 
HETATM   20  C   UNL     1       7.580  26.160  53.146  1.00  0.00     0.117 C 
HETATM   21  O   UNL     1       6.811  25.819  55.380  1.00  0.00    -0.274 OA
HETATM   22  H   UNL     1       8.262  28.337  54.067  1.00  0.00     0.169 HD
ENDBRANCH   1  18
TORSDOF 3
ENDMDL
MODEL 6
REMARK VINA RESULT:      -7.8      1.723      2.246
REMARK  3 active torsions:
REMARK  status: ('A' for Active; 'I' for Inactive)
REMARK       I    between atoms: C_2  and  N_3 
REMARK    1  A    between atoms: N_3  and  C_4 
REMARK    2  A    between atoms: C_7  and  N_8 
REMARK       I    between atoms: N_8  and  C_9 
REMARK    3  A    between atoms: C_9  and  C_10 
ROOT
HETATM    1  C   UNL     1       6.475  29.605  57.783  1.00  0.00     0.052 A 
HETATM    2  C   UNL     1       5.555  28.698  57.273  1.00  0.00     0.148 A 
HETATM    3  N   UNL     1       5.890  27.535  56.653  1.00  0.00    -0.241 NA
HETATM    4  C   UNL     1       7.201  27.249  56.524  1.00  0.00     0.130 A 
HETATM    5  C   UNL     1       8.193  28.097  56.990  1.00  0.00     0.053 A 
HETATM    6  C   UNL     1       7.822  29.284  57.627  1.00  0.00     0.035 A 
ENDROOT
BRANCH   4   7
HETATM    7  N   UNL     1       7.436  26.028  55.891  1.00  0.00    -0.307 N 
HETATM    8  C   UNL     1       7.989  24.888  56.422  1.00  0.00     0.257 C 
HETATM    9  O   UNL     1       8.373  24.742  57.578  1.00  0.00    -0.267 OA
HETATM   10  H   UNL     1       7.072  26.033  54.950  1.00  0.00     0.170 HD
BRANCH   8  11
HETATM   11  C   UNL     1       8.091  23.726  55.489  1.00  0.00     0.032 A 
HETATM   12  C   UNL     1       7.803  23.941  54.132  1.00  0.00     0.018 A 
HETATM   13  C   UNL     1       7.888  22.890  53.215  1.00  0.00     0.025 A 
HETATM   14  C   UNL     1       8.254  21.619  53.652  1.00  0.00     0.034 A 
HETATM   15 CL   UNL     1       8.361  20.325  52.524  1.00  0.00    -0.084 Cl
HETATM   16  C   UNL     1       8.525  21.388  55.000  1.00  0.00     0.025 A 
HETATM   17  C   UNL     1       8.439  22.438  55.922  1.00  0.00     0.018 A 
ENDBRANCH   8  11
ENDBRANCH   4   7
BRANCH   1  18
HETATM   18  N   UNL     1       6.158  30.807  58.446  1.00  0.00    -0.326 N 
HETATM   19  C   UNL     1       5.598  31.937  57.880  1.00  0.00     0.218 C 
HETATM   20  C   UNL     1       5.362  33.025  58.896  1.00  0.00     0.117 C 
HETATM   21  O   UNL     1       5.297  32.089  56.701  1.00  0.00    -0.274 OA
HETATM   22  H   UNL     1       6.351  30.840  59.439  1.00  0.00     0.169 HD
ENDBRANCH   1  18
TORSDOF 3
ENDMDL
MODEL 7
REMARK VINA RESULT:      -7.7      5.591      6.969
REMARK  3 active torsions:
REMARK  status: ('A' for Active; 'I' for Inactive)
REMARK       I    between atoms: C_2  and  N_3 
REMARK    1  A    between atoms: N_3  and  C_4 
REMARK    2  A    between atoms: C_7  and  N_8 
REMARK       I    between atoms: N_8  and  C_9 
REMARK    3  A    between atoms: C_9  and  C_10 
ROOT
HETATM    1  C   UNL     1       4.179  28.253  50.568  1.00  0.00     0.052 A 
HETATM    2  C   UNL     1       4.488  28.168  51.919  1.00  0.00     0.148 A 
HETATM    3  N   UNL     1       5.029  27.070  52.512  1.00  0.00    -0.241 NA
HETATM    4  C   UNL     1       5.277  25.996  51.735  1.00  0.00     0.130 A 
HETATM    5  C   UNL     1       4.991  25.982  50.379  1.00  0.00     0.053 A 
HETATM    6  C   UNL     1       4.438  27.124  49.793  1.00  0.00     0.035 A 
ENDROOT
BRANCH   4   7
HETATM    7  N   UNL     1       5.847  24.933  52.435  1.00  0.00    -0.307 N 
HETATM    8  C   UNL     1       7.178  24.620  52.570  1.00  0.00     0.257 C 
HETATM    9  O   UNL     1       8.119  25.245  52.092  1.00  0.00    -0.267 OA
HETATM   10  H   UNL     1       5.142  24.408  52.932  1.00  0.00     0.170 HD
BRANCH   8  11
HETATM   11  C   UNL     1       7.476  23.420  53.408  1.00  0.00     0.032 A 
HETATM   12  C   UNL     1       7.320  23.530  54.799  1.00  0.00     0.018 A 
HETATM   13  C   UNL     1       7.579  22.436  55.630  1.00  0.00     0.025 A 
HETATM   14  C   UNL     1       8.004  21.232  55.073  1.00  0.00     0.034 A 
HETATM   15 CL   UNL     1       8.322  19.884  56.094  1.00  0.00    -0.084 Cl
HETATM   16  C   UNL     1       8.180  21.114  53.695  1.00  0.00     0.025 A 
HETATM   17  C   UNL     1       7.923  22.208  52.861  1.00  0.00     0.018 A 
ENDBRANCH   8  11
ENDBRANCH   4   7
BRANCH   1  18
HETATM   18  N   UNL     1       3.634  29.382  49.923  1.00  0.00    -0.326 N 
HETATM   19  C   UNL     1       2.293  29.678  49.771  1.00  0.00     0.218 C 
HETATM   20  C   UNL     1       2.076  30.988  49.059  1.00  0.00     0.117 C 
HETATM   21  O   UNL     1       1.349  28.998  50.159  1.00  0.00    -0.274 OA
HETATM   22  H   UNL     1       4.297  30.046  49.543  1.00  0.00     0.169 HD
ENDBRANCH   1  18
TORSDOF 3
ENDMDL
MODEL 8
REMARK VINA RESULT:      -7.6      6.427      8.440
REMARK  3 active torsions:
REMARK  status: ('A' for Active; 'I' for Inactive)
REMARK       I    between atoms: C_2  and  N_3 
REMARK    1  A    between atoms: N_3  and  C_4 
REMARK    2  A    between atoms: C_7  and  N_8 
REMARK       I    between atoms: N_8  and  C_9 
REMARK    3  A    between atoms: C_9  and  C_10 
ROOT
HETATM    1  C   UNL     1       6.935  25.282  54.152  1.00  0.00     0.052 A 
HETATM    2  C   UNL     1       5.643  25.791  54.191  1.00  0.00     0.148 A 
HETATM    3  N   UNL     1       4.878  26.022  53.091  1.00  0.00    -0.241 NA
HETATM    4  C   UNL     1       5.413  25.740  51.886  1.00  0.00     0.130 A 
HETATM    5  C   UNL     1       6.698  25.241  51.744  1.00  0.00     0.053 A 
HETATM    6  C   UNL     1       7.462  25.010  52.891  1.00  0.00     0.035 A 
ENDROOT
BRANCH   4   7
HETATM    7  N   UNL     1       4.542  25.996  50.826  1.00  0.00    -0.307 N 
HETATM    8  C   UNL     1       4.600  27.012  49.904  1.00  0.00     0.257 C 
HETATM    9  O   UNL     1       5.456  27.889  49.848  1.00  0.00    -0.267 OA
HETATM   10  H   UNL     1       3.847  25.268  50.747  1.00  0.00     0.170 HD
BRANCH   8  11
HETATM   11  C   UNL     1       3.524  27.005  48.867  1.00  0.00     0.032 A 
HETATM   12  C   UNL     1       2.525  27.988  48.945  1.00  0.00     0.018 A 
HETATM   13  C   UNL     1       1.499  28.032  47.998  1.00  0.00     0.025 A 
HETATM   14  C   UNL     1       1.464  27.088  46.974  1.00  0.00     0.034 A 
HETATM   15 CL   UNL     1       0.202  27.141  45.806  1.00  0.00    -0.084 Cl
HETATM   16  C   UNL     1       2.439  26.096  46.895  1.00  0.00     0.025 A 
HETATM   17  C   UNL     1       3.468  26.048  47.844  1.00  0.00     0.018 A 
ENDBRANCH   8  11
ENDBRANCH   4   7
BRANCH   1  18
HETATM   18  N   UNL     1       7.744  25.015  55.275  1.00  0.00    -0.326 N 
HETATM   19  C   UNL     1       7.857  23.810  55.942  1.00  0.00     0.218 C 
HETATM   20  C   UNL     1       8.843  23.880  57.079  1.00  0.00     0.117 C 
HETATM   21  O   UNL     1       7.260  22.773  55.678  1.00  0.00    -0.274 OA
HETATM   22  H   UNL     1       8.305  25.785  55.618  1.00  0.00     0.169 HD
ENDBRANCH   1  18
TORSDOF 3
ENDMDL
MODEL 9
REMARK VINA RESULT:      -7.6      5.793      7.367
REMARK  3 active torsions:
REMARK  status: ('A' for Active; 'I' for Inactive)
REMARK       I    between atoms: C_2  and  N_3 
REMARK    1  A    between atoms: N_3  and  C_4 
REMARK    2  A    between atoms: C_7  and  N_8 
REMARK       I    between atoms: N_8  and  C_9 
REMARK    3  A    between atoms: C_9  and  C_10 
ROOT
HETATM    1  C   UNL     1       4.546  28.357  49.982  1.00  0.00     0.052 A 
HETATM    2  C   UNL     1       4.513  26.999  49.692  1.00  0.00     0.148 A 
HETATM    3  N   UNL     1       5.008  26.030  50.508  1.00  0.00    -0.241 NA
HETATM    4  C   UNL     1       5.570  26.417  51.671  1.00  0.00     0.130 A 
HETATM    5  C   UNL     1       5.660  27.749  52.042  1.00  0.00     0.053 A 
HETATM    6  C   UNL     1       5.140  28.725  51.188  1.00  0.00     0.035 A 
ENDROOT
BRANCH   4   7
HETATM    7  N   UNL     1       6.029  25.349  52.440  1.00  0.00    -0.307 N 
HETATM    8  C   UNL     1       7.307  24.851  52.528  1.00  0.00     0.257 C 
HETATM    9  O   UNL     1       8.291  25.280  51.935  1.00  0.00    -0.267 OA
HETATM   10  H   UNL     1       5.294  24.985  53.029  1.00  0.00     0.170 HD
BRANCH   8  11
HETATM   11  C   UNL     1       7.489  23.702  53.465  1.00  0.00     0.032 A 
HETATM   12  C   UNL     1       7.836  22.455  52.921  1.00  0.00     0.018 A 
HETATM   13  C   UNL     1       8.024  21.347  53.752  1.00  0.00     0.025 A 
HETATM   14  C   UNL     1       7.860  21.481  55.129  1.00  0.00     0.034 A 
HETATM   15 CL   UNL     1       8.094  20.119  56.153  1.00  0.00    -0.084 Cl
HETATM   16  C   UNL     1       7.499  22.709  55.680  1.00  0.00     0.025 A 
HETATM   17  C   UNL     1       7.307  23.820  54.851  1.00  0.00     0.018 A 
ENDBRANCH   8  11
ENDBRANCH   4   7
BRANCH   1  18
HETATM   18  N   UNL     1       4.025  29.381  49.165  1.00  0.00    -0.326 N 
HETATM   19  C   UNL     1       4.323  29.604  47.834  1.00  0.00     0.218 C 
HETATM   20  C   UNL     1       3.552  30.770  47.267  1.00  0.00     0.117 C 
HETATM   21  O   UNL     1       5.102  28.958  47.143  1.00  0.00    -0.274 OA
HETATM   22  H   UNL     1       3.359  30.008  49.599  1.00  0.00     0.169 HD
ENDBRANCH   1  18
TORSDOF 3
ENDMDL
MODEL 10
REMARK VINA RESULT:      -7.4      3.977      8.563
REMARK  3 active torsions:
REMARK  status: ('A' for Active; 'I' for Inactive)
REMARK       I    between atoms: C_2  and  N_3 
REMARK    1  A    between atoms: N_3  and  C_4 
REMARK    2  A    between atoms: C_7  and  N_8 
REMARK       I    between atoms: N_8  and  C_9 
REMARK    3  A    between atoms: C_9  and  C_10 
ROOT
HETATM    1  C   UNL     1       7.489  23.630  55.624  1.00  0.00     0.052 A 
HETATM    2  C   UNL     1       6.564  24.637  55.378  1.00  0.00     0.148 A 
HETATM    3  N   UNL     1       6.519  25.815  56.055  1.00  0.00    -0.241 NA
HETATM    4  C   UNL     1       7.431  26.013  57.029  1.00  0.00     0.130 A 
HETATM    5  C   UNL     1       8.385  25.063  57.355  1.00  0.00     0.053 A 
HETATM    6  C   UNL     1       8.412  23.861  56.642  1.00  0.00     0.035 A 
ENDROOT
BRANCH   4   7
HETATM    7  N   UNL     1       7.310  27.257  57.648  1.00  0.00    -0.307 N 
HETATM    8  C   UNL     1       8.074  28.382  57.453  1.00  0.00     0.257 C 
HETATM    9  O   UNL     1       9.013  28.491  56.672  1.00  0.00    -0.267 OA
HETATM   10  H   UNL     1       6.502  27.283  58.254  1.00  0.00     0.170 HD
BRANCH   8  11
HETATM   11  C   UNL     1       7.679  29.578  58.257  1.00  0.00     0.032 A 
HETATM   12  C   UNL     1       6.532  30.287  57.868  1.00  0.00     0.018 A 
HETATM   13  C   UNL     1       6.115  31.409  58.588  1.00  0.00     0.025 A 
HETATM   14  C   UNL     1       6.847  31.831  59.696  1.00  0.00     0.034 A 
HETATM   15 CL   UNL     1       6.333  33.210  60.586  1.00  0.00    -0.084 Cl
HETATM   16  C   UNL     1       7.998  31.146  60.083  1.00  0.00     0.025 A 
HETATM   17  C   UNL     1       8.420  30.023  59.363  1.00  0.00     0.018 A 
ENDBRANCH   8  11
ENDBRANCH   4   7
BRANCH   1  18
HETATM   18  N   UNL     1       7.571  22.407  54.927  1.00  0.00    -0.326 N 
HETATM   19  C   UNL     1       7.852  22.242  53.584  1.00  0.00     0.218 C 
HETATM   20  C   UNL     1       7.894  20.788  53.186  1.00  0.00     0.117 C 
HETATM   21  O   UNL     1       8.061  23.132  52.768  1.00  0.00    -0.274 OA
HETATM   22  H   UNL     1       7.418  21.567  55.471  1.00  0.00     0.169 HD
ENDBRANCH   1  18
TORSDOF 3
ENDMDL
