MODEL 1
REMARK VINA RESULT:      -9.7      0.000      0.000
REMARK  7 active torsions:
REMARK  status: ('A' for Active; 'I' for Inactive)
REMARK    1  A    between atoms: C_2  and  O_3 
REMARK    2  A    between atoms: O_3  and  C_4 
REMARK    3  A    between atoms: C_9  and  C_10 
REMARK       I    between atoms: C_10  and  N_11 
REMARK    4  A    between atoms: N_11  and  C_12 
REMARK    5  A    between atoms: C_12  and  C_13 
REMARK    6  A    between atoms: C_14  and  C_15 
REMARK    7  A    between atoms: C_15  and  N_16 
ROOT
HETATM    1  C   UNL     1       5.921  28.258  56.037  1.00  0.00     0.276 C 
HETATM    2  N   UNL     1       6.449  28.409  57.310  1.00  0.00    -0.351 N 
HETATM    3  O   UNL     1       5.280  29.169  55.513  1.00  0.00    -0.265 OA
HETATM    4  H   UNL     1       7.077  27.680  57.627  1.00  0.00     0.163 HD
ENDROOT
BRANCH   2   5
HETATM    5  C   UNL     1       6.698  29.736  57.817  1.00  0.00     0.162 C 
BRANCH   5   6
HETATM    6  C   UNL     1       8.164  30.086  57.774  1.00  0.00    -0.033 A 
HETATM    7  C   UNL     1       8.739  31.096  58.580  1.00  0.00    -0.025 A 
HETATM    8  C   UNL     1      10.123  31.347  58.469  1.00  0.00     0.009 A 
HETATM    9  C   UNL     1      10.918  30.625  57.582  1.00  0.00     0.001 A 
HETATM   10  C   UNL     1      10.351  29.631  56.795  1.00  0.00     0.001 A 
HETATM   11  C   UNL     1       8.989  29.360  56.894  1.00  0.00     0.009 A 
BRANCH   7  12
HETATM   12  C   UNL     1       7.941  31.927  59.560  1.00  0.00     0.274 C 
BRANCH  12  13
HETATM   13  N   UNL     1       7.506  31.145  60.782  1.00  0.00    -0.067 N 
HETATM   14  H   UNL     1       7.122  30.254  60.446  1.00  0.00     0.280 HD
HETATM   15  C   UNL     1       6.465  31.855  61.606  1.00  0.00     0.235 C 
HETATM   16  C   UNL     1       7.269  32.743  62.533  1.00  0.00     0.029 C 
HETATM   17  C   UNL     1       8.613  32.047  62.711  1.00  0.00     0.029 C 
HETATM   18  C   UNL     1       8.607  30.856  61.768  1.00  0.00     0.235 C 
ENDBRANCH  12  13
ENDBRANCH   7  12
ENDBRANCH   5   6
ENDBRANCH   2   5
BRANCH   1  19
HETATM   19  C   UNL     1       6.232  27.001  55.393  1.00  0.00     0.150 A 
HETATM   20  O   UNL     1       6.865  27.082  54.183  1.00  0.00    -0.304 OA
HETATM   21  C   UNL     1       7.148  25.818  53.781  1.00  0.00     0.087 A 
HETATM   22  C   UNL     1       6.669  24.901  54.705  1.00  0.00     0.009 A 
HETATM   23  C   UNL     1       7.827  25.476  52.616  1.00  0.00     0.041 A 
HETATM   24  C   UNL     1       6.862  23.532  54.436  1.00  0.00     0.051 A 
HETATM   25  C   UNL     1       6.068  25.669  55.755  1.00  0.00    -0.009 A 
HETATM   26  C   UNL     1       7.524  23.143  53.259  1.00  0.00     0.069 A 
HETATM   27  C   UNL     1       8.013  24.108  52.373  1.00  0.00     0.039 A 
HETATM   28  C   UNL     1       5.398  25.118  56.959  1.00  0.00     0.052 C 
BRANCH  26  29
HETATM   29  O   UNL     1       7.637  21.788  53.097  1.00  0.00    -0.351 OA
BRANCH  29  30
HETATM   30  C   UNL     1       8.839  21.178  53.567  1.00  0.00     0.171 C 
HETATM   31  C   UNL     1       8.479  20.244  54.709  1.00  0.00     0.034 C 
ENDBRANCH  29  30
ENDBRANCH  26  29
ENDBRANCH   1  19
TORSDOF 7
ENDMDL
MODEL 2
REMARK VINA RESULT:      -9.4      1.393      1.994
REMARK  7 active torsions:
REMARK  status: ('A' for Active; 'I' for Inactive)
REMARK    1  A    between atoms: C_2  and  O_3 
REMARK    2  A    between atoms: O_3  and  C_4 
REMARK    3  A    between atoms: C_9  and  C_10 
REMARK       I    between atoms: C_10  and  N_11 
REMARK    4  A    between atoms: N_11  and  C_12 
REMARK    5  A    between atoms: C_12  and  C_13 
REMARK    6  A    between atoms: C_14  and  C_15 
REMARK    7  A    between atoms: C_15  and  N_16 
ROOT
HETATM    1  C   UNL     1       6.165  27.279  56.537  1.00  0.00     0.276 C 
HETATM    2  N   UNL     1       6.832  27.864  57.603  1.00  0.00    -0.351 N 
HETATM    3  O   UNL     1       5.301  27.902  55.921  1.00  0.00    -0.265 OA
HETATM    4  H   UNL     1       7.621  27.350  57.978  1.00  0.00     0.163 HD
ENDROOT
BRANCH   2   5
HETATM    5  C   UNL     1       6.906  29.302  57.684  1.00  0.00     0.162 C 
BRANCH   5   6
HETATM    6  C   UNL     1       8.332  29.791  57.677  1.00  0.00    -0.033 A 
HETATM    7  C   UNL     1       8.766  30.911  58.425  1.00  0.00    -0.025 A 
HETATM    8  C   UNL     1      10.124  31.288  58.355  1.00  0.00     0.009 A 
HETATM    9  C   UNL     1      11.028  30.584  57.562  1.00  0.00     0.001 A 
HETATM   10  C   UNL     1      10.599  29.484  56.832  1.00  0.00     0.001 A 
HETATM   11  C   UNL     1       9.265  29.088  56.893  1.00  0.00     0.009 A 
BRANCH   7  12
HETATM   12  C   UNL     1       7.843  31.728  59.301  1.00  0.00     0.274 C 
BRANCH  12  13
HETATM   13  N   UNL     1       7.505  31.042  60.607  1.00  0.00    -0.067 N 
HETATM   14  H   UNL     1       7.048  30.153  60.369  1.00  0.00     0.280 HD
HETATM   15  C   UNL     1       6.590  31.850  61.488  1.00  0.00     0.235 C 
HETATM   16  C   UNL     1       7.526  32.747  62.270  1.00  0.00     0.029 C 
HETATM   17  C   UNL     1       8.848  31.994  62.352  1.00  0.00     0.029 C 
HETATM   18  C   UNL     1       8.690  30.752  61.491  1.00  0.00     0.235 C 
ENDBRANCH  12  13
ENDBRANCH   7  12
ENDBRANCH   5   6
ENDBRANCH   2   5
BRANCH   1  19
HETATM   19  C   UNL     1       6.605  25.942  56.203  1.00  0.00     0.150 A 
HETATM   20  O   UNL     1       7.406  25.321  57.119  1.00  0.00    -0.304 OA
HETATM   21  C   UNL     1       7.642  24.062  56.676  1.00  0.00     0.087 A 
HETATM   22  C   UNL     1       7.028  23.862  55.448  1.00  0.00     0.009 A 
HETATM   23  C   UNL     1       8.384  23.096  57.349  1.00  0.00     0.041 A 
HETATM   24  C   UNL     1       7.185  22.607  54.829  1.00  0.00     0.051 A 
HETATM   25  C   UNL     1       6.355  25.087  55.135  1.00  0.00    -0.009 A 
HETATM   26  C   UNL     1       7.945  21.610  55.465  1.00  0.00     0.069 A 
HETATM   27  C   UNL     1       8.520  21.852  56.717  1.00  0.00     0.039 A 
HETATM   28  C   UNL     1       5.575  25.358  53.901  1.00  0.00     0.052 C 
BRANCH  26  29
HETATM   29  O   UNL     1       8.041  20.439  54.760  1.00  0.00    -0.351 OA
BRANCH  29  30
HETATM   30  C   UNL     1       7.650  20.477  53.388  1.00  0.00     0.171 C 
HETATM   31  C   UNL     1       8.908  20.439  52.538  1.00  0.00     0.034 C 
ENDBRANCH  29  30
ENDBRANCH  26  29
ENDBRANCH   1  19
TORSDOF 7
ENDMDL
MODEL 3
REMARK VINA RESULT:      -9.2      5.295      8.124
REMARK  7 active torsions:
REMARK  status: ('A' for Active; 'I' for Inactive)
REMARK    1  A    between atoms: C_2  and  O_3 
REMARK    2  A    between atoms: O_3  and  C_4 
REMARK    3  A    between atoms: C_9  and  C_10 
REMARK       I    between atoms: C_10  and  N_11 
REMARK    4  A    between atoms: N_11  and  C_12 
REMARK    5  A    between atoms: C_12  and  C_13 
REMARK    6  A    between atoms: C_14  and  C_15 
REMARK    7  A    between atoms: C_15  and  N_16 
ROOT
HETATM    1  C   UNL     1       5.955  26.640  51.652  1.00  0.00     0.276 C 
HETATM    2  N   UNL     1       6.563  25.395  51.582  1.00  0.00    -0.351 N 
HETATM    3  O   UNL     1       6.237  27.424  52.558  1.00  0.00    -0.265 OA
HETATM    4  H   UNL     1       6.389  24.856  50.742  1.00  0.00     0.163 HD
ENDROOT
BRANCH   2   5
HETATM    5  C   UNL     1       7.841  25.198  52.220  1.00  0.00     0.162 C 
BRANCH   5   6
HETATM    6  C   UNL     1       7.795  24.085  53.235  1.00  0.00    -0.033 A 
HETATM    7  C   UNL     1       7.568  24.307  54.613  1.00  0.00    -0.025 A 
HETATM    8  C   UNL     1       7.539  23.198  55.484  1.00  0.00     0.009 A 
HETATM    9  C   UNL     1       7.737  21.903  55.010  1.00  0.00     0.001 A 
HETATM   10  C   UNL     1       7.957  21.688  53.656  1.00  0.00     0.001 A 
HETATM   11  C   UNL     1       7.980  22.767  52.776  1.00  0.00     0.009 A 
BRANCH   7  12
HETATM   12  C   UNL     1       7.352  25.683  55.204  1.00  0.00     0.274 C 
BRANCH  12  13
HETATM   13  N   UNL     1       6.804  25.643  56.615  1.00  0.00    -0.067 N 
HETATM   14  H   UNL     1       6.626  24.657  56.839  1.00  0.00     0.280 HD
HETATM   15  C   UNL     1       5.530  26.428  56.784  1.00  0.00     0.235 C 
HETATM   16  C   UNL     1       6.001  27.839  57.070  1.00  0.00     0.029 C 
HETATM   17  C   UNL     1       7.369  27.695  57.723  1.00  0.00     0.029 C 
HETATM   18  C   UNL     1       7.721  26.218  57.662  1.00  0.00     0.235 C 
ENDBRANCH  12  13
ENDBRANCH   7  12
ENDBRANCH   5   6
ENDBRANCH   2   5
BRANCH   1  19
HETATM   19  C   UNL     1       5.040  26.933  50.571  1.00  0.00     0.150 A 
HETATM   20  O   UNL     1       4.841  25.935  49.659  1.00  0.00    -0.304 OA
HETATM   21  C   UNL     1       3.898  26.359  48.782  1.00  0.00     0.087 A 
HETATM   22  C   UNL     1       3.502  27.652  49.091  1.00  0.00     0.009 A 
HETATM   23  C   UNL     1       3.386  25.613  47.724  1.00  0.00     0.041 A 
HETATM   24  C   UNL     1       2.535  28.260  48.266  1.00  0.00     0.051 A 
HETATM   25  C   UNL     1       4.247  28.030  50.254  1.00  0.00    -0.009 A 
HETATM   26  C   UNL     1       2.008  27.548  47.174  1.00  0.00     0.069 A 
HETATM   27  C   UNL     1       2.421  26.236  46.923  1.00  0.00     0.039 A 
HETATM   28  C   UNL     1       4.175  29.345  50.941  1.00  0.00     0.052 C 
BRANCH  26  29
HETATM   29  O   UNL     1       1.090  28.248  46.436  1.00  0.00    -0.351 OA
BRANCH  29  30
HETATM   30  C   UNL     1      -0.067  27.535  46.000  1.00  0.00     0.171 C 
HETATM   31  C   UNL     1      -1.245  28.494  46.014  1.00  0.00     0.034 C 
ENDBRANCH  29  30
ENDBRANCH  26  29
ENDBRANCH   1  19
TORSDOF 7
ENDMDL
MODEL 4
REMARK VINA RESULT:      -9.1      2.072      3.291
REMARK  7 active torsions:
REMARK  status: ('A' for Active; 'I' for Inactive)
REMARK    1  A    between atoms: C_2  and  O_3 
REMARK    2  A    between atoms: O_3  and  C_4 
REMARK    3  A    between atoms: C_9  and  C_10 
REMARK       I    between atoms: C_10  and  N_11 
REMARK    4  A    between atoms: N_11  and  C_12 
REMARK    5  A    between atoms: C_12  and  C_13 
REMARK    6  A    between atoms: C_14  and  C_15 
REMARK    7  A    between atoms: C_15  and  N_16 
ROOT
HETATM    1  C   UNL     1       6.277  28.821  57.486  1.00  0.00     0.276 C 
HETATM    2  N   UNL     1       7.236  29.376  58.320  1.00  0.00    -0.351 N 
HETATM    3  O   UNL     1       5.254  29.446  57.206  1.00  0.00    -0.265 OA
HETATM    4  H   UNL     1       8.110  28.869  58.401  1.00  0.00     0.163 HD
ENDROOT
BRANCH   2   5
HETATM    5  C   UNL     1       7.311  30.809  58.453  1.00  0.00     0.162 C 
BRANCH   5   6
HETATM    6  C   UNL     1       7.795  31.221  59.820  1.00  0.00    -0.033 A 
HETATM    7  C   UNL     1       7.101  32.143  60.639  1.00  0.00    -0.025 A 
HETATM    8  C   UNL     1       7.633  32.461  61.906  1.00  0.00     0.009 A 
HETATM    9  C   UNL     1       8.823  31.890  62.351  1.00  0.00     0.001 A 
HETATM   10  C   UNL     1       9.501  30.983  61.547  1.00  0.00     0.001 A 
HETATM   11  C   UNL     1       8.988  30.647  60.297  1.00  0.00     0.009 A 
BRANCH   7  12
HETATM   12  C   UNL     1       5.809  32.809  60.221  1.00  0.00     0.274 C 
BRANCH  12  13
HETATM   13  N   UNL     1       4.579  32.025  60.629  1.00  0.00    -0.067 N 
HETATM   14  H   UNL     1       4.816  31.029  60.544  1.00  0.00     0.280 HD
HETATM   15  C   UNL     1       3.372  32.322  59.781  1.00  0.00     0.235 C 
HETATM   16  C   UNL     1       2.746  33.533  60.440  1.00  0.00     0.029 C 
HETATM   17  C   UNL     1       3.139  33.456  61.909  1.00  0.00     0.029 C 
HETATM   18  C   UNL     1       4.103  32.288  62.034  1.00  0.00     0.235 C 
ENDBRANCH  12  13
ENDBRANCH   7  12
ENDBRANCH   5   6
ENDBRANCH   2   5
BRANCH   1  19
HETATM   19  C   UNL     1       6.609  27.516  56.958  1.00  0.00     0.150 A 
HETATM   20  O   UNL     1       7.593  26.830  57.614  1.00  0.00    -0.304 OA
HETATM   21  C   UNL     1       7.703  25.609  57.033  1.00  0.00     0.087 A 
HETATM   22  C   UNL     1       6.818  25.502  55.970  1.00  0.00     0.009 A 
HETATM   23  C   UNL     1       8.567  24.597  57.440  1.00  0.00     0.041 A 
HETATM   24  C   UNL     1       6.811  24.299  55.238  1.00  0.00     0.051 A 
HETATM   25  C   UNL     1       6.108  26.745  55.916  1.00  0.00    -0.009 A 
HETATM   26  C   UNL     1       7.684  23.260  55.603  1.00  0.00     0.069 A 
HETATM   27  C   UNL     1       8.536  23.407  56.701  1.00  0.00     0.039 A 
HETATM   28  C   UNL     1       5.067  27.107  54.920  1.00  0.00     0.052 C 
BRANCH  26  29
HETATM   29  O   UNL     1       7.598  22.147  54.808  1.00  0.00    -0.351 OA
BRANCH  29  30
HETATM   30  C   UNL     1       8.631  21.963  53.839  1.00  0.00     0.171 C 
HETATM   31  C   UNL     1       8.263  20.767  52.979  1.00  0.00     0.034 C 
ENDBRANCH  29  30
ENDBRANCH  26  29
ENDBRANCH   1  19
TORSDOF 7
ENDMDL
MODEL 5
REMARK VINA RESULT:      -9.0      2.953      9.722
REMARK  7 active torsions:
REMARK  status: ('A' for Active; 'I' for Inactive)
REMARK    1  A    between atoms: C_2  and  O_3 
REMARK    2  A    between atoms: O_3  and  C_4 
REMARK    3  A    between atoms: C_9  and  C_10 
REMARK       I    between atoms: C_10  and  N_11 
REMARK    4  A    between atoms: N_11  and  C_12 
REMARK    5  A    between atoms: C_12  and  C_13 
REMARK    6  A    between atoms: C_14  and  C_15 
REMARK    7  A    between atoms: C_15  and  N_16 
ROOT
HETATM    1  C   UNL     1       8.411  29.326  57.795  1.00  0.00     0.276 C 
HETATM    2  N   UNL     1       7.518  28.297  57.535  1.00  0.00    -0.351 N 
HETATM    3  O   UNL     1       9.411  29.480  57.094  1.00  0.00    -0.265 OA
HETATM    4  H   UNL     1       6.651  28.308  58.060  1.00  0.00     0.163 HD
ENDROOT
BRANCH   2   5
HETATM    5  C   UNL     1       7.458  27.736  56.208  1.00  0.00     0.162 C 
BRANCH   5   6
HETATM    6  C   UNL     1       7.790  26.265  56.206  1.00  0.00    -0.033 A 
HETATM    7  C   UNL     1       7.645  25.444  55.063  1.00  0.00    -0.025 A 
HETATM    8  C   UNL     1       7.986  24.079  55.161  1.00  0.00     0.009 A 
HETATM    9  C   UNL     1       8.452  23.536  56.356  1.00  0.00     0.001 A 
HETATM   10  C   UNL     1       8.596  24.345  57.476  1.00  0.00     0.001 A 
HETATM   11  C   UNL     1       8.274  25.698  57.399  1.00  0.00     0.009 A 
BRANCH   7  12
HETATM   12  C   UNL     1       7.139  25.959  53.734  1.00  0.00     0.274 C 
BRANCH  12  13
HETATM   13  N   UNL     1       5.628  25.981  53.643  1.00  0.00    -0.067 N 
HETATM   14  H   UNL     1       5.269  25.839  54.595  1.00  0.00     0.280 HD
HETATM   15  C   UNL     1       5.068  24.918  52.737  1.00  0.00     0.235 C 
HETATM   16  C   UNL     1       5.101  25.549  51.361  1.00  0.00     0.029 C 
HETATM   17  C   UNL     1       4.992  27.051  51.592  1.00  0.00     0.029 C 
HETATM   18  C   UNL     1       5.049  27.260  53.096  1.00  0.00     0.235 C 
ENDBRANCH  12  13
ENDBRANCH   7  12
ENDBRANCH   5   6
ENDBRANCH   2   5
BRANCH   1  19
HETATM   19  C   UNL     1       8.036  30.195  58.889  1.00  0.00     0.150 A 
HETATM   20  O   UNL     1       8.757  30.061  60.043  1.00  0.00    -0.304 OA
HETATM   21  C   UNL     1       8.324  31.006  60.913  1.00  0.00     0.087 A 
HETATM   22  C   UNL     1       7.292  31.741  60.349  1.00  0.00     0.009 A 
HETATM   23  C   UNL     1       8.837  31.225  62.188  1.00  0.00     0.041 A 
HETATM   24  C   UNL     1       6.707  32.761  61.126  1.00  0.00     0.051 A 
HETATM   25  C   UNL     1       7.099  31.212  59.032  1.00  0.00    -0.009 A 
HETATM   26  C   UNL     1       7.182  32.999  62.427  1.00  0.00     0.069 A 
HETATM   27  C   UNL     1       8.245  32.249  62.939  1.00  0.00     0.039 A 
HETATM   28  C   UNL     1       6.081  31.670  58.053  1.00  0.00     0.052 C 
BRANCH  26  29
HETATM   29  O   UNL     1       6.525  34.002  63.091  1.00  0.00    -0.351 OA
BRANCH  29  30
HETATM   30  C   UNL     1       5.150  33.779  63.404  1.00  0.00     0.171 C 
HETATM   31  C   UNL     1       5.042  33.524  64.897  1.00  0.00     0.034 C 
ENDBRANCH  29  30
ENDBRANCH  26  29
ENDBRANCH   1  19
TORSDOF 7
ENDMDL
MODEL 6
REMARK VINA RESULT:      -8.9      1.335      2.016
REMARK  7 active torsions:
REMARK  status: ('A' for Active; 'I' for Inactive)
REMARK    1  A    between atoms: C_2  and  O_3 
REMARK    2  A    between atoms: O_3  and  C_4 
REMARK    3  A    between atoms: C_9  and  C_10 
REMARK       I    between atoms: C_10  and  N_11 
REMARK    4  A    between atoms: N_11  and  C_12 
REMARK    5  A    between atoms: C_12  and  C_13 
REMARK    6  A    between atoms: C_14  and  C_15 
REMARK    7  A    between atoms: C_15  and  N_16 
ROOT
HETATM    1  C   UNL     1       5.821  28.644  56.652  1.00  0.00     0.276 C 
HETATM    2  N   UNL     1       6.318  29.018  57.891  1.00  0.00    -0.351 N 
HETATM    3  O   UNL     1       4.967  29.329  56.087  1.00  0.00    -0.265 OA
HETATM    4  H   UNL     1       7.111  28.489  58.236  1.00  0.00     0.163 HD
ENDROOT
BRANCH   2   5
HETATM    5  C   UNL     1       6.246  30.401  58.292  1.00  0.00     0.162 C 
BRANCH   5   6
HETATM    6  C   UNL     1       7.603  30.954  58.646  1.00  0.00    -0.033 A 
HETATM    7  C   UNL     1       7.806  31.895  59.682  1.00  0.00    -0.025 A 
HETATM    8  C   UNL     1       9.116  32.350  59.940  1.00  0.00     0.009 A 
HETATM    9  C   UNL     1      10.198  31.893  59.190  1.00  0.00     0.001 A 
HETATM   10  C   UNL     1       9.996  30.966  58.175  1.00  0.00     0.001 A 
HETATM   11  C   UNL     1       8.712  30.496  57.910  1.00  0.00     0.009 A 
BRANCH   7  12
HETATM   12  C   UNL     1       6.681  32.443  60.533  1.00  0.00     0.274 C 
BRANCH  12  13
HETATM   13  N   UNL     1       6.446  31.636  61.793  1.00  0.00    -0.067 N 
HETATM   14  H   UNL     1       5.940  30.787  61.515  1.00  0.00     0.280 HD
HETATM   15  C   UNL     1       5.645  32.373  62.833  1.00  0.00     0.235 C 
HETATM   16  C   UNL     1       6.681  33.165  63.604  1.00  0.00     0.029 C 
HETATM   17  C   UNL     1       7.979  32.377  63.483  1.00  0.00     0.029 C 
HETATM   18  C   UNL     1       7.699  31.232  62.525  1.00  0.00     0.235 C 
ENDBRANCH  12  13
ENDBRANCH   7  12
ENDBRANCH   5   6
ENDBRANCH   2   5
BRANCH   1  19
HETATM   19  C   UNL     1       6.417  27.453  56.089  1.00  0.00     0.150 A 
HETATM   20  O   UNL     1       6.656  26.426  56.959  1.00  0.00    -0.304 OA
HETATM   21  C   UNL     1       7.131  25.379  56.241  1.00  0.00     0.087 A 
HETATM   22  C   UNL     1       7.242  25.725  54.902  1.00  0.00     0.009 A 
HETATM   23  C   UNL     1       7.456  24.128  56.757  1.00  0.00     0.041 A 
HETATM   24  C   UNL     1       7.740  24.756  54.009  1.00  0.00     0.051 A 
HETATM   25  C   UNL     1       6.782  27.078  54.801  1.00  0.00    -0.009 A 
HETATM   26  C   UNL     1       8.100  23.487  54.495  1.00  0.00     0.069 A 
HETATM   27  C   UNL     1       7.942  23.178  55.849  1.00  0.00     0.039 A 
HETATM   28  C   UNL     1       6.737  27.888  53.557  1.00  0.00     0.052 C 
BRANCH  26  29
HETATM   29  O   UNL     1       8.587  22.635  53.538  1.00  0.00    -0.351 OA
BRANCH  29  30
HETATM   30  C   UNL     1       7.812  21.470  53.255  1.00  0.00     0.171 C 
HETATM   31  C   UNL     1       8.764  20.355  52.861  1.00  0.00     0.034 C 
ENDBRANCH  29  30
ENDBRANCH  26  29
ENDBRANCH   1  19
TORSDOF 7
ENDMDL
MODEL 7
REMARK VINA RESULT:      -8.8      3.678     10.435
REMARK  7 active torsions:
REMARK  status: ('A' for Active; 'I' for Inactive)
REMARK    1  A    between atoms: C_2  and  O_3 
REMARK    2  A    between atoms: O_3  and  C_4 
REMARK    3  A    between atoms: C_9  and  C_10 
REMARK       I    between atoms: C_10  and  N_11 
REMARK    4  A    between atoms: N_11  and  C_12 
REMARK    5  A    between atoms: C_12  and  C_13 
REMARK    6  A    between atoms: C_14  and  C_15 
REMARK    7  A    between atoms: C_15  and  N_16 
ROOT
HETATM    1  C   UNL     1       6.528  32.166  59.864  1.00  0.00     0.276 C 
HETATM    2  N   UNL     1       7.145  30.940  59.666  1.00  0.00    -0.351 N 
HETATM    3  O   UNL     1       6.225  32.876  58.906  1.00  0.00    -0.265 OA
HETATM    4  H   UNL     1       7.244  30.348  60.483  1.00  0.00     0.163 HD
ENDROOT
BRANCH   2   5
HETATM    5  C   UNL     1       6.987  30.267  58.401  1.00  0.00     0.162 C 
BRANCH   5   6
HETATM    6  C   UNL     1       8.308  30.070  57.702  1.00  0.00    -0.033 A 
HETATM    7  C   UNL     1       8.459  29.254  56.556  1.00  0.00    -0.025 A 
HETATM    8  C   UNL     1       9.737  29.137  55.971  1.00  0.00     0.009 A 
HETATM    9  C   UNL     1      10.839  29.801  56.505  1.00  0.00     0.001 A 
HETATM   10  C   UNL     1      10.687  30.603  57.629  1.00  0.00     0.001 A 
HETATM   11  C   UNL     1       9.432  30.741  58.217  1.00  0.00     0.009 A 
BRANCH   7  12
HETATM   12  C   UNL     1       7.313  28.497  55.923  1.00  0.00     0.274 C 
BRANCH  12  13
HETATM   13  N   UNL     1       7.627  27.034  55.690  1.00  0.00    -0.067 N 
HETATM   14  H   UNL     1       8.532  26.994  55.207  1.00  0.00     0.280 HD
HETATM   15  C   UNL     1       6.590  26.325  54.860  1.00  0.00     0.235 C 
HETATM   16  C   UNL     1       5.550  25.882  55.868  1.00  0.00     0.029 C 
HETATM   17  C   UNL     1       6.295  25.711  57.186  1.00  0.00     0.029 C 
HETATM   18  C   UNL     1       7.712  26.202  56.944  1.00  0.00     0.235 C 
ENDBRANCH  12  13
ENDBRANCH   7  12
ENDBRANCH   5   6
ENDBRANCH   2   5
BRANCH   1  19
HETATM   19  C   UNL     1       6.238  32.487  61.244  1.00  0.00     0.150 A 
HETATM   20  O   UNL     1       7.318  32.688  62.059  1.00  0.00    -0.304 OA
HETATM   21  C   UNL     1       6.852  33.058  63.277  1.00  0.00     0.087 A 
HETATM   22  C   UNL     1       5.465  33.067  63.279  1.00  0.00     0.009 A 
HETATM   23  C   UNL     1       7.641  33.394  64.374  1.00  0.00     0.041 A 
HETATM   24  C   UNL     1       4.810  33.414  64.477  1.00  0.00     0.051 A 
HETATM   25  C   UNL     1       5.062  32.691  61.957  1.00  0.00    -0.009 A 
HETATM   26  C   UNL     1       5.570  33.738  65.614  1.00  0.00     0.069 A 
HETATM   27  C   UNL     1       6.966  33.743  65.552  1.00  0.00     0.039 A 
HETATM   28  C   UNL     1       3.662  32.539  61.487  1.00  0.00     0.052 C 
BRANCH  26  29
HETATM   29  O   UNL     1       4.823  34.041  66.722  1.00  0.00    -0.351 OA
BRANCH  29  30
HETATM   30  C   UNL     1       5.391  34.964  67.652  1.00  0.00     0.171 C 
HETATM   31  C   UNL     1       5.604  34.237  68.968  1.00  0.00     0.034 C 
ENDBRANCH  29  30
ENDBRANCH  26  29
ENDBRANCH   1  19
TORSDOF 7
ENDMDL
MODEL 8
REMARK VINA RESULT:      -8.8      2.823      9.839
REMARK  7 active torsions:
REMARK  status: ('A' for Active; 'I' for Inactive)
REMARK    1  A    between atoms: C_2  and  O_3 
REMARK    2  A    between atoms: O_3  and  C_4 
REMARK    3  A    between atoms: C_9  and  C_10 
REMARK       I    between atoms: C_10  and  N_11 
REMARK    4  A    between atoms: N_11  and  C_12 
REMARK    5  A    between atoms: C_12  and  C_13 
REMARK    6  A    between atoms: C_14  and  C_15 
REMARK    7  A    between atoms: C_15  and  N_16 
ROOT
HETATM    1  C   UNL     1       8.735  29.573  58.185  1.00  0.00     0.276 C 
HETATM    2  N   UNL     1       7.883  28.556  57.781  1.00  0.00    -0.351 N 
HETATM    3  O   UNL     1       9.822  29.736  57.632  1.00  0.00    -0.265 OA
HETATM    4  H   UNL     1       6.952  28.562  58.183  1.00  0.00     0.163 HD
ENDROOT
BRANCH   2   5
HETATM    5  C   UNL     1       8.003  28.024  56.447  1.00  0.00     0.162 C 
BRANCH   5   6
HETATM    6  C   UNL     1       6.691  28.068  55.705  1.00  0.00    -0.033 A 
HETATM    7  C   UNL     1       6.355  27.155  54.678  1.00  0.00    -0.025 A 
HETATM    8  C   UNL     1       5.100  27.275  54.046  1.00  0.00     0.009 A 
HETATM    9  C   UNL     1       4.202  28.275  54.413  1.00  0.00     0.001 A 
HETATM   10  C   UNL     1       4.533  29.168  55.424  1.00  0.00     0.001 A 
HETATM   11  C   UNL     1       5.763  29.061  56.068  1.00  0.00     0.009 A 
BRANCH   7  12
HETATM   12  C   UNL     1       7.280  26.048  54.221  1.00  0.00     0.274 C 
BRANCH  12  13
HETATM   13  N   UNL     1       6.638  24.678  54.279  1.00  0.00    -0.067 N 
HETATM   14  H   UNL     1       5.632  24.824  54.423  1.00  0.00     0.280 HD
HETATM   15  C   UNL     1       7.178  23.812  55.385  1.00  0.00     0.235 C 
HETATM   16  C   UNL     1       8.397  23.150  54.777  1.00  0.00     0.029 C 
HETATM   17  C   UNL     1       8.128  23.084  53.279  1.00  0.00     0.029 C 
HETATM   18  C   UNL     1       6.832  23.840  53.042  1.00  0.00     0.235 C 
ENDBRANCH  12  13
ENDBRANCH   7  12
ENDBRANCH   5   6
ENDBRANCH   2   5
BRANCH   1  19
HETATM   19  C   UNL     1       8.217  30.422  59.236  1.00  0.00     0.150 A 
HETATM   20  O   UNL     1       8.813  30.301  60.460  1.00  0.00    -0.304 OA
HETATM   21  C   UNL     1       8.258  31.226  61.282  1.00  0.00     0.087 A 
HETATM   22  C   UNL     1       7.269  31.931  60.613  1.00  0.00     0.009 A 
HETATM   23  C   UNL     1       8.624  31.451  62.606  1.00  0.00     0.041 A 
HETATM   24  C   UNL     1       6.571  32.925  61.327  1.00  0.00     0.051 A 
HETATM   25  C   UNL     1       7.236  31.407  59.281  1.00  0.00    -0.009 A 
HETATM   26  C   UNL     1       6.895  33.169  62.672  1.00  0.00     0.069 A 
HETATM   27  C   UNL     1       7.921  32.450  63.293  1.00  0.00     0.039 A 
HETATM   28  C   UNL     1       6.315  31.838  58.200  1.00  0.00     0.052 C 
BRANCH  26  29
HETATM   29  O   UNL     1       6.138  34.145  63.266  1.00  0.00    -0.351 OA
BRANCH  29  30
HETATM   30  C   UNL     1       4.862  33.755  63.774  1.00  0.00     0.171 C 
HETATM   31  C   UNL     1       4.980  33.607  65.281  1.00  0.00     0.034 C 
ENDBRANCH  29  30
ENDBRANCH  26  29
ENDBRANCH   1  19
TORSDOF 7
ENDMDL
MODEL 9
REMARK VINA RESULT:      -8.7      2.673      9.207
REMARK  7 active torsions:
REMARK  status: ('A' for Active; 'I' for Inactive)
REMARK    1  A    between atoms: C_2  and  O_3 
REMARK    2  A    between atoms: O_3  and  C_4 
REMARK    3  A    between atoms: C_9  and  C_10 
REMARK       I    between atoms: C_10  and  N_11 
REMARK    4  A    between atoms: N_11  and  C_12 
REMARK    5  A    between atoms: C_12  and  C_13 
REMARK    6  A    between atoms: C_14  and  C_15 
REMARK    7  A    between atoms: C_15  and  N_16 
ROOT
HETATM    1  C   UNL     1       6.877  28.177  55.471  1.00  0.00     0.276 C 
HETATM    2  N   UNL     1       6.545  26.868  55.789  1.00  0.00    -0.351 N 
HETATM    3  O   UNL     1       6.855  28.562  54.302  1.00  0.00    -0.265 OA
HETATM    4  H   UNL     1       6.451  26.654  56.776  1.00  0.00     0.163 HD
ENDROOT
BRANCH   2   5
HETATM    5  C   UNL     1       5.712  26.113  54.886  1.00  0.00     0.162 C 
BRANCH   5   6
HETATM    6  C   UNL     1       6.488  25.027  54.184  1.00  0.00    -0.033 A 
HETATM    7  C   UNL     1       6.849  25.098  52.818  1.00  0.00    -0.025 A 
HETATM    8  C   UNL     1       7.579  24.032  52.253  1.00  0.00     0.009 A 
HETATM    9  C   UNL     1       7.940  22.922  53.013  1.00  0.00     0.001 A 
HETATM   10  C   UNL     1       7.587  22.857  54.355  1.00  0.00     0.001 A 
HETATM   11  C   UNL     1       6.874  23.902  54.936  1.00  0.00     0.009 A 
BRANCH   7  12
HETATM   12  C   UNL     1       6.487  26.266  51.927  1.00  0.00     0.274 C 
BRANCH  12  13
HETATM   13  N   UNL     1       5.014  26.312  51.580  1.00  0.00    -0.067 N 
HETATM   14  H   UNL     1       4.550  25.592  52.146  1.00  0.00     0.280 HD
HETATM   15  C   UNL     1       4.735  26.056  50.123  1.00  0.00     0.235 C 
HETATM   16  C   UNL     1       4.871  27.418  49.475  1.00  0.00     0.029 C 
HETATM   17  C   UNL     1       4.527  28.430  50.560  1.00  0.00     0.029 C 
HETATM   18  C   UNL     1       4.347  27.637  51.844  1.00  0.00     0.235 C 
ENDBRANCH  12  13
ENDBRANCH   7  12
ENDBRANCH   5   6
ENDBRANCH   2   5
BRANCH   1  19
HETATM   19  C   UNL     1       7.183  29.021  56.605  1.00  0.00     0.150 A 
HETATM   20  O   UNL     1       8.509  29.240  56.856  1.00  0.00    -0.304 OA
HETATM   21  C   UNL     1       8.595  30.113  57.890  1.00  0.00     0.087 A 
HETATM   22  C   UNL     1       7.327  30.441  58.348  1.00  0.00     0.009 A 
HETATM   23  C   UNL     1       9.776  30.622  58.420  1.00  0.00     0.041 A 
HETATM   24  C   UNL     1       7.229  31.329  59.437  1.00  0.00     0.051 A 
HETATM   25  C   UNL     1       6.405  29.728  57.515  1.00  0.00    -0.009 A 
HETATM   26  C   UNL     1       8.400  31.848  60.016  1.00  0.00     0.069 A 
HETATM   27  C   UNL     1       9.654  31.508  59.498  1.00  0.00     0.039 A 
HETATM   28  C   UNL     1       4.926  29.748  57.642  1.00  0.00     0.052 C 
BRANCH  26  29
HETATM   29  O   UNL     1       8.179  32.686  61.077  1.00  0.00    -0.351 OA
BRANCH  29  30
HETATM   30  C   UNL     1       8.578  32.216  62.366  1.00  0.00     0.171 C 
HETATM   31  C   UNL     1       7.661  32.843  63.401  1.00  0.00     0.034 C 
ENDBRANCH  29  30
ENDBRANCH  26  29
ENDBRANCH   1  19
TORSDOF 7
ENDMDL
MODEL 10
REMARK VINA RESULT:      -8.5      1.697      2.287
REMARK  7 active torsions:
REMARK  status: ('A' for Active; 'I' for Inactive)
REMARK    1  A    between atoms: C_2  and  O_3 
REMARK    2  A    between atoms: O_3  and  C_4 
REMARK    3  A    between atoms: C_9  and  C_10 
REMARK       I    between atoms: C_10  and  N_11 
REMARK    4  A    between atoms: N_11  and  C_12 
REMARK    5  A    between atoms: C_12  and  C_13 
REMARK    6  A    between atoms: C_14  and  C_15 
REMARK    7  A    between atoms: C_15  and  N_16 
ROOT
HETATM    1  C   UNL     1       6.106  27.584  56.767  1.00  0.00     0.276 C 
HETATM    2  N   UNL     1       7.051  28.511  57.180  1.00  0.00    -0.351 N 
HETATM    3  O   UNL     1       4.905  27.798  56.931  1.00  0.00    -0.265 OA
HETATM    4  H   UNL     1       8.008  28.337  56.894  1.00  0.00     0.163 HD
ENDROOT
BRANCH   2   5
HETATM    5  C   UNL     1       6.666  29.893  57.327  1.00  0.00     0.162 C 
BRANCH   5   6
HETATM    6  C   UNL     1       7.636  30.656  58.192  1.00  0.00    -0.033 A 
HETATM    7  C   UNL     1       7.225  31.587  59.174  1.00  0.00    -0.025 A 
HETATM    8  C   UNL     1       8.210  32.248  59.937  1.00  0.00     0.009 A 
HETATM    9  C   UNL     1       9.566  32.003  59.732  1.00  0.00     0.001 A 
HETATM   10  C   UNL     1       9.966  31.086  58.769  1.00  0.00     0.001 A 
HETATM   11  C   UNL     1       9.011  30.414  58.011  1.00  0.00     0.009 A 
BRANCH   7  12
HETATM   12  C   UNL     1       5.773  31.912  59.450  1.00  0.00     0.274 C 
BRANCH  12  13
HETATM   13  N   UNL     1       5.597  33.018  60.468  1.00  0.00    -0.067 N 
HETATM   14  H   UNL     1       6.502  33.495  60.553  1.00  0.00     0.280 HD
HETATM   15  C   UNL     1       5.170  32.521  61.823  1.00  0.00     0.235 C 
HETATM   16  C   UNL     1       3.660  32.445  61.731  1.00  0.00     0.029 C 
HETATM   17  C   UNL     1       3.255  33.490  60.699  1.00  0.00     0.029 C 
HETATM   18  C   UNL     1       4.546  34.038  60.113  1.00  0.00     0.235 C 
ENDBRANCH  12  13
ENDBRANCH   7  12
ENDBRANCH   5   6
ENDBRANCH   2   5
BRANCH   1  19
HETATM   19  C   UNL     1       6.645  26.418  56.102  1.00  0.00     0.150 A 
HETATM   20  O   UNL     1       6.217  26.198  54.822  1.00  0.00    -0.304 OA
HETATM   21  C   UNL     1       6.889  25.123  54.341  1.00  0.00     0.087 A 
HETATM   22  C   UNL     1       7.733  24.610  55.314  1.00  0.00     0.009 A 
HETATM   23  C   UNL     1       6.766  24.605  53.055  1.00  0.00     0.041 A 
HETATM   24  C   UNL     1       8.499  23.473  54.989  1.00  0.00     0.051 A 
HETATM   25  C   UNL     1       7.574  25.448  56.464  1.00  0.00    -0.009 A 
HETATM   26  C   UNL     1       8.387  22.905  53.707  1.00  0.00     0.069 A 
HETATM   27  C   UNL     1       7.543  23.479  52.752  1.00  0.00     0.039 A 
HETATM   28  C   UNL     1       8.262  25.274  57.768  1.00  0.00     0.052 C 
BRANCH  26  29
HETATM   29  O   UNL     1       9.167  21.795  53.514  1.00  0.00    -0.351 OA
BRANCH  29  30
HETATM   30  C   UNL     1       8.503  20.531  53.512  1.00  0.00     0.171 C 
HETATM   31  C   UNL     1       8.569  19.962  54.919  1.00  0.00     0.034 C 
ENDBRANCH  29  30
ENDBRANCH  26  29
ENDBRANCH   1  19
TORSDOF 7
ENDMDL
