MODEL 1
REMARK VINA RESULT:      -9.4      0.000      0.000
REMARK  6 active torsions:
REMARK  status: ('A' for Active; 'I' for Inactive)
REMARK    1  A    between atoms: C_2  and  C_3 
REMARK    2  A    between atoms: C_3  and  N_4 
REMARK    3  A    between atoms: C_5  and  S_6 
REMARK    4  A    between atoms: S_6  and  C_7 
REMARK    5  A    between atoms: C_7  and  C_8 
REMARK       I    between atoms: C_8  and  N_9 
REMARK    6  A    between atoms: N_9  and  C_10 
ROOT
HETATM    1  C   UNL     1       6.154  27.981  56.543  1.00  0.00     0.231 C 
HETATM    2  N   UNL     1       5.627  26.703  56.687  1.00  0.00    -0.325 N 
HETATM    3  O   UNL     1       7.162  28.246  55.891  1.00  0.00    -0.272 OA
HETATM    4  H   UNL     1       4.618  26.707  56.798  1.00  0.00     0.169 HD
ENDROOT
BRANCH   1   5
HETATM    5  C   UNL     1       5.395  29.083  57.270  1.00  0.00     0.185 C 
BRANCH   5   6
HETATM    6  S   UNL     1       6.045  30.748  56.903  1.00  0.00    -0.083 SA
BRANCH   6   7
HETATM    7  C   UNL     1       6.751  31.149  58.437  1.00  0.00     0.170 A 
HETATM    8  N   UNL     1       7.961  30.664  58.871  1.00  0.00    -0.324 N 
HETATM    9  C   UNL     1       8.142  31.112  60.166  1.00  0.00     0.065 A 
HETATM   10  C   UNL     1       7.017  31.896  60.416  1.00  0.00     0.088 A 
HETATM   11  C   UNL     1       9.151  30.921  61.119  1.00  0.00     0.034 A 
HETATM   12  N   UNL     1       6.180  31.917  59.333  1.00  0.00    -0.222 NA
HETATM   13  C   UNL     1       6.866  32.526  61.660  1.00  0.00     0.057 A 
HETATM   14  C   UNL     1       7.863  32.338  62.620  1.00  0.00     0.036 A 
HETATM   15 CL   UNL     1       7.700  33.091  64.162  1.00  0.00    -0.084 Cl
HETATM   16  C   UNL     1       8.985  31.551  62.358  1.00  0.00     0.026 A 
BRANCH   8  17
HETATM   17  C   UNL     1       8.885  29.814  58.143  1.00  0.00     0.131 C 
BRANCH  17  18
HETATM   18  C   UNL     1      10.143  30.536  57.653  1.00  0.00     0.016 C 
HETATM   19  C   UNL     1      11.129  29.619  56.942  1.00  0.00     0.006 C 
ENDBRANCH  17  18
ENDBRANCH   8  17
ENDBRANCH   6   7
ENDBRANCH   5   6
ENDBRANCH   1   5
BRANCH   2  20
HETATM   20  C   UNL     1       6.198  25.575  56.048  1.00  0.00     0.054 A 
HETATM   21  C   UNL     1       5.946  25.222  54.689  1.00  0.00     0.040 A 
HETATM   22 BR   UNL     1       5.059  26.391  53.470  1.00  0.00    -0.049 Br
HETATM   23  C   UNL     1       6.479  24.050  54.130  1.00  0.00     0.053 A 
HETATM   24  C   UNL     1       7.275  23.283  54.945  1.00  0.00     0.064 A 
HETATM   25  C   UNL     1       7.570  23.651  56.255  1.00  0.00     0.065 A 
HETATM   26  N   UNL     1       7.928  22.085  54.678  1.00  0.00    -0.306 N 
HETATM   27  N   UNL     1       8.402  22.678  56.796  1.00  0.00    -0.306 N 
HETATM   28  C   UNL     1       7.064  24.794  56.831  1.00  0.00     0.063 A 
HETATM   29  C   UNL     1       8.632  21.691  55.826  1.00  0.00     0.325 A 
HETATM   30  H   UNL     1       8.785  22.640  57.726  1.00  0.00     0.170 HD
HETATM   31  O   UNL     1       9.310  20.688  55.956  1.00  0.00    -0.247 OA
HETATM   32  H   UNL     1       7.911  21.555  53.823  1.00  0.00     0.170 HD
ENDBRANCH   2  20
TORSDOF 6
ENDMDL
MODEL 2
REMARK VINA RESULT:      -9.3      4.173      9.440
REMARK  6 active torsions:
REMARK  status: ('A' for Active; 'I' for Inactive)
REMARK    1  A    between atoms: C_2  and  C_3 
REMARK    2  A    between atoms: C_3  and  N_4 
REMARK    3  A    between atoms: C_5  and  S_6 
REMARK    4  A    between atoms: S_6  and  C_7 
REMARK    5  A    between atoms: C_7  and  C_8 
REMARK       I    between atoms: C_8  and  N_9 
REMARK    6  A    between atoms: N_9  and  C_10 
ROOT
HETATM    1  C   UNL     1       7.253  28.516  56.488  1.00  0.00     0.231 C 
HETATM    2  N   UNL     1       7.620  29.845  56.655  1.00  0.00    -0.325 N 
HETATM    3  O   UNL     1       7.256  27.677  57.387  1.00  0.00    -0.272 OA
HETATM    4  H   UNL     1       7.123  30.470  56.028  1.00  0.00     0.169 HD
ENDROOT
BRANCH   1   5
HETATM    5  C   UNL     1       6.839  28.128  55.074  1.00  0.00     0.185 C 
BRANCH   5   6
HETATM    6  S   UNL     1       5.428  26.973  55.044  1.00  0.00    -0.083 SA
BRANCH   6   7
HETATM    7  C   UNL     1       6.262  25.474  54.772  1.00  0.00     0.170 A 
HETATM    8  N   UNL     1       6.649  25.029  53.531  1.00  0.00    -0.324 N 
HETATM    9  C   UNL     1       7.184  23.766  53.697  1.00  0.00     0.065 A 
HETATM   10  C   UNL     1       7.122  23.547  55.072  1.00  0.00     0.088 A 
HETATM   11  C   UNL     1       7.707  22.817  52.809  1.00  0.00     0.034 A 
HETATM   12  N   UNL     1       6.564  24.617  55.717  1.00  0.00    -0.222 NA
HETATM   13  C   UNL     1       7.593  22.341  55.610  1.00  0.00     0.057 A 
HETATM   14  C   UNL     1       8.111  21.385  54.734  1.00  0.00     0.036 A 
HETATM   15 CL   UNL     1       8.688  19.888  55.364  1.00  0.00    -0.084 Cl
HETATM   16  C   UNL     1       8.168  21.615  53.358  1.00  0.00     0.026 A 
BRANCH   8  17
HETATM   17  C   UNL     1       6.509  25.719  52.262  1.00  0.00     0.131 C 
BRANCH  17  18
HETATM   18  C   UNL     1       5.174  25.463  51.558  1.00  0.00     0.016 C 
HETATM   19  C   UNL     1       4.978  26.309  50.306  1.00  0.00     0.006 C 
ENDBRANCH  17  18
ENDBRANCH   8  17
ENDBRANCH   6   7
ENDBRANCH   5   6
ENDBRANCH   1   5
BRANCH   2  20
HETATM   20  C   UNL     1       8.000  30.370  57.915  1.00  0.00     0.054 A 
HETATM   21  C   UNL     1       9.344  30.393  58.392  1.00  0.00     0.040 A 
HETATM   22 BR   UNL     1      10.840  30.008  57.271  1.00  0.00    -0.049 Br
HETATM   23  C   UNL     1       9.653  30.855  59.681  1.00  0.00     0.053 A 
HETATM   24  C   UNL     1       8.604  31.309  60.442  1.00  0.00     0.064 A 
HETATM   25  C   UNL     1       7.297  31.341  59.963  1.00  0.00     0.065 A 
HETATM   26  N   UNL     1       8.599  31.814  61.737  1.00  0.00    -0.306 N 
HETATM   27  N   UNL     1       6.487  31.863  60.964  1.00  0.00    -0.306 N 
HETATM   28  C   UNL     1       6.964  30.897  58.704  1.00  0.00     0.063 A 
HETATM   29  C   UNL     1       7.283  32.159  62.080  1.00  0.00     0.325 A 
HETATM   30  H   UNL     1       5.491  32.006  60.940  1.00  0.00     0.170 HD
HETATM   31  O   UNL     1       6.905  32.625  63.139  1.00  0.00    -0.247 OA
HETATM   32  H   UNL     1       9.384  31.917  62.358  1.00  0.00     0.170 HD
ENDBRANCH   2  20
TORSDOF 6
ENDMDL
MODEL 3
REMARK VINA RESULT:      -9.3      5.930      8.827
REMARK  6 active torsions:
REMARK  status: ('A' for Active; 'I' for Inactive)
REMARK    1  A    between atoms: C_2  and  C_3 
REMARK    2  A    between atoms: C_3  and  N_4 
REMARK    3  A    between atoms: C_5  and  S_6 
REMARK    4  A    between atoms: S_6  and  C_7 
REMARK    5  A    between atoms: C_7  and  C_8 
REMARK       I    between atoms: C_8  and  N_9 
REMARK    6  A    between atoms: N_9  and  C_10 
ROOT
HETATM    1  C   UNL     1       4.936  28.251  53.208  1.00  0.00     0.231 C 
HETATM    2  N   UNL     1       5.706  28.247  52.052  1.00  0.00    -0.325 N 
HETATM    3  O   UNL     1       3.707  28.194  53.224  1.00  0.00    -0.272 OA
HETATM    4  H   UNL     1       6.614  27.816  52.188  1.00  0.00     0.169 HD
ENDROOT
BRANCH   1   5
HETATM    5  C   UNL     1       5.719  28.343  54.511  1.00  0.00     0.185 C 
BRANCH   5   6
HETATM    6  S   UNL     1       7.509  28.073  54.279  1.00  0.00    -0.083 SA
BRANCH   6   7
HETATM    7  C   UNL     1       7.560  26.338  54.278  1.00  0.00     0.170 A 
HETATM    8  N   UNL     1       7.639  25.575  55.418  1.00  0.00    -0.324 N 
HETATM    9  C   UNL     1       7.766  24.257  55.022  1.00  0.00     0.065 A 
HETATM   10  C   UNL     1       7.708  24.312  53.630  1.00  0.00     0.088 A 
HETATM   11  C   UNL     1       7.916  23.051  55.720  1.00  0.00     0.034 A 
HETATM   12  N   UNL     1       7.567  25.601  53.194  1.00  0.00    -0.222 NA
HETATM   13  C   UNL     1       7.803  23.132  52.879  1.00  0.00     0.057 A 
HETATM   14  C   UNL     1       7.959  21.924  53.563  1.00  0.00     0.036 A 
HETATM   15 CL   UNL     1       8.089  20.458  52.667  1.00  0.00    -0.084 Cl
HETATM   16  C   UNL     1       8.015  21.882  54.957  1.00  0.00     0.026 A 
BRANCH   8  17
HETATM   17  C   UNL     1       7.626  26.037  56.793  1.00  0.00     0.131 C 
BRANCH  17  18
HETATM   18  C   UNL     1       6.230  26.371  57.325  1.00  0.00     0.016 C 
HETATM   19  C   UNL     1       5.189  25.307  57.003  1.00  0.00     0.006 C 
ENDBRANCH  17  18
ENDBRANCH   8  17
ENDBRANCH   6   7
ENDBRANCH   5   6
ENDBRANCH   1   5
BRANCH   2  20
HETATM   20  C   UNL     1       5.129  28.134  50.762  1.00  0.00     0.054 A 
HETATM   21  C   UNL     1       4.847  29.250  49.919  1.00  0.00     0.040 A 
HETATM   22 BR   UNL     1       5.496  31.007  50.288  1.00  0.00    -0.049 Br
HETATM   23  C   UNL     1       4.205  29.085  48.683  1.00  0.00     0.053 A 
HETATM   24  C   UNL     1       3.891  27.800  48.315  1.00  0.00     0.064 A 
HETATM   25  C   UNL     1       4.213  26.702  49.108  1.00  0.00     0.065 A 
HETATM   26  N   UNL     1       3.258  27.332  47.170  1.00  0.00    -0.306 N 
HETATM   27  N   UNL     1       3.775  25.557  48.451  1.00  0.00    -0.306 N 
HETATM   28  C   UNL     1       4.844  26.831  50.324  1.00  0.00     0.063 A 
HETATM   29  C   UNL     1       3.173  25.934  47.242  1.00  0.00     0.325 A 
HETATM   30  H   UNL     1       3.844  24.602  48.762  1.00  0.00     0.170 HD
HETATM   31  O   UNL     1       2.674  25.191  46.416  1.00  0.00    -0.247 OA
HETATM   32  H   UNL     1       2.897  27.875  46.403  1.00  0.00     0.170 HD
ENDBRANCH   2  20
TORSDOF 6
ENDMDL
MODEL 4
REMARK VINA RESULT:      -9.0      4.111      9.498
REMARK  6 active torsions:
REMARK  status: ('A' for Active; 'I' for Inactive)
REMARK    1  A    between atoms: C_2  and  C_3 
REMARK    2  A    between atoms: C_3  and  N_4 
REMARK    3  A    between atoms: C_5  and  S_6 
REMARK    4  A    between atoms: S_6  and  C_7 
REMARK    5  A    between atoms: C_7  and  C_8 
REMARK       I    between atoms: C_8  and  N_9 
REMARK    6  A    between atoms: N_9  and  C_10 
ROOT
HETATM    1  C   UNL     1       6.701  28.854  56.819  1.00  0.00     0.231 C 
HETATM    2  N   UNL     1       7.395  30.025  57.098  1.00  0.00    -0.325 N 
HETATM    3  O   UNL     1       5.838  28.368  57.548  1.00  0.00    -0.272 OA
HETATM    4  H   UNL     1       7.664  30.529  56.260  1.00  0.00     0.169 HD
ENDROOT
BRANCH   1   5
HETATM    5  C   UNL     1       7.084  28.167  55.515  1.00  0.00     0.185 C 
BRANCH   5   6
HETATM    6  S   UNL     1       5.696  27.248  54.768  1.00  0.00    -0.083 SA
BRANCH   6   7
HETATM    7  C   UNL     1       6.417  25.676  54.609  1.00  0.00     0.170 A 
HETATM    8  N   UNL     1       6.730  25.098  53.403  1.00  0.00    -0.324 N 
HETATM    9  C   UNL     1       7.183  23.819  53.667  1.00  0.00     0.065 A 
HETATM   10  C   UNL     1       7.154  23.726  55.057  1.00  0.00     0.088 A 
HETATM   11  C   UNL     1       7.610  22.762  52.853  1.00  0.00     0.034 A 
HETATM   12  N   UNL     1       6.693  24.887  55.618  1.00  0.00    -0.222 NA
HETATM   13  C   UNL     1       7.560  22.542  55.688  1.00  0.00     0.057 A 
HETATM   14  C   UNL     1       7.982  21.479  54.887  1.00  0.00     0.036 A 
HETATM   15 CL   UNL     1       8.478  20.006  55.633  1.00  0.00    -0.084 Cl
HETATM   16  C   UNL     1       8.007  21.583  53.495  1.00  0.00     0.026 A 
BRANCH   8  17
HETATM   17  C   UNL     1       6.593  25.681  52.081  1.00  0.00     0.131 C 
BRANCH  17  18
HETATM   18  C   UNL     1       5.226  25.445  51.433  1.00  0.00     0.016 C 
HETATM   19  C   UNL     1       4.958  26.349  50.238  1.00  0.00     0.006 C 
ENDBRANCH  17  18
ENDBRANCH   8  17
ENDBRANCH   6   7
ENDBRANCH   5   6
ENDBRANCH   1   5
BRANCH   2  20
HETATM   20  C   UNL     1       7.134  30.798  58.256  1.00  0.00     0.054 A 
HETATM   21  C   UNL     1       6.114  31.793  58.332  1.00  0.00     0.040 A 
HETATM   22 BR   UNL     1       4.770  31.992  56.992  1.00  0.00    -0.049 Br
HETATM   23  C   UNL     1       5.951  32.583  59.481  1.00  0.00     0.053 A 
HETATM   24  C   UNL     1       6.797  32.328  60.531  1.00  0.00     0.064 A 
HETATM   25  C   UNL     1       7.758  31.322  60.485  1.00  0.00     0.065 A 
HETATM   26  N   UNL     1       6.877  32.941  61.777  1.00  0.00    -0.306 N 
HETATM   27  N   UNL     1       8.432  31.317  61.700  1.00  0.00    -0.306 N 
HETATM   28  C   UNL     1       7.941  30.530  59.374  1.00  0.00     0.063 A 
HETATM   29  C   UNL     1       7.897  32.324  62.517  1.00  0.00     0.325 A 
HETATM   30  H   UNL     1       9.191  30.719  61.983  1.00  0.00     0.170 HD
HETATM   31  O   UNL     1       8.250  32.607  63.647  1.00  0.00    -0.247 OA
HETATM   32  H   UNL     1       6.323  33.708  62.120  1.00  0.00     0.170 HD
ENDBRANCH   2  20
TORSDOF 6
ENDMDL
MODEL 5
REMARK VINA RESULT:      -8.9      1.578      2.505
REMARK  6 active torsions:
REMARK  status: ('A' for Active; 'I' for Inactive)
REMARK    1  A    between atoms: C_2  and  C_3 
REMARK    2  A    between atoms: C_3  and  N_4 
REMARK    3  A    between atoms: C_5  and  S_6 
REMARK    4  A    between atoms: S_6  and  C_7 
REMARK    5  A    between atoms: C_7  and  C_8 
REMARK       I    between atoms: C_8  and  N_9 
REMARK    6  A    between atoms: N_9  and  C_10 
ROOT
HETATM    1  C   UNL     1       7.666  27.340  56.571  1.00  0.00     0.231 C 
HETATM    2  N   UNL     1       7.111  26.074  56.705  1.00  0.00    -0.325 N 
HETATM    3  O   UNL     1       8.277  27.728  55.576  1.00  0.00    -0.272 OA
HETATM    4  H   UNL     1       6.281  26.071  57.288  1.00  0.00     0.169 HD
ENDROOT
BRANCH   1   5
HETATM    5  C   UNL     1       7.481  28.262  57.769  1.00  0.00     0.185 C 
BRANCH   5   6
HETATM    6  S   UNL     1       8.658  29.656  57.776  1.00  0.00    -0.083 SA
BRANCH   6   7
HETATM    7  C   UNL     1       8.084  30.538  59.156  1.00  0.00     0.170 A 
HETATM    8  N   UNL     1       7.001  31.383  59.126  1.00  0.00    -0.324 N 
HETATM    9  C   UNL     1       6.911  31.979  60.370  1.00  0.00     0.065 A 
HETATM   10  C   UNL     1       7.949  31.403  61.100  1.00  0.00     0.088 A 
HETATM   11  C   UNL     1       6.048  32.936  60.919  1.00  0.00     0.034 A 
HETATM   12  N   UNL     1       8.650  30.507  60.338  1.00  0.00    -0.222 NA
HETATM   13  C   UNL     1       8.158  31.778  62.435  1.00  0.00     0.057 A 
HETATM   14  C   UNL     1       7.307  32.736  62.992  1.00  0.00     0.036 A 
HETATM   15 CL   UNL     1       7.545  33.226  64.627  1.00  0.00    -0.084 Cl
HETATM   16  C   UNL     1       6.271  33.306  62.250  1.00  0.00     0.026 A 
BRANCH   8  17
HETATM   17  C   UNL     1       6.116  31.646  58.006  1.00  0.00     0.131 C 
BRANCH  17  18
HETATM   18  C   UNL     1       4.731  31.008  58.143  1.00  0.00     0.016 C 
HETATM   19  C   UNL     1       4.373  30.086  56.985  1.00  0.00     0.006 C 
ENDBRANCH  17  18
ENDBRANCH   8  17
ENDBRANCH   6   7
ENDBRANCH   5   6
ENDBRANCH   1   5
BRANCH   2  20
HETATM   20  C   UNL     1       7.169  25.111  55.667  1.00  0.00     0.054 A 
HETATM   21  C   UNL     1       6.339  25.144  54.507  1.00  0.00     0.040 A 
HETATM   22 BR   UNL     1       5.266  26.655  54.053  1.00  0.00    -0.049 Br
HETATM   23  C   UNL     1       6.387  24.121  53.548  1.00  0.00     0.053 A 
HETATM   24  C   UNL     1       7.290  23.110  53.767  1.00  0.00     0.064 A 
HETATM   25  C   UNL     1       8.142  23.100  54.868  1.00  0.00     0.065 A 
HETATM   26  N   UNL     1       7.558  21.976  53.008  1.00  0.00    -0.306 N 
HETATM   27  N   UNL     1       8.931  21.959  54.788  1.00  0.00    -0.306 N 
HETATM   28  C   UNL     1       8.120  24.089  55.825  1.00  0.00     0.063 A 
HETATM   29  C   UNL     1       8.576  21.244  53.635  1.00  0.00     0.325 A 
HETATM   30  H   UNL     1       9.639  21.651  55.435  1.00  0.00     0.170 HD
HETATM   31  O   UNL     1       9.059  20.193  53.254  1.00  0.00    -0.247 OA
HETATM   32  H   UNL     1       7.108  21.690  52.154  1.00  0.00     0.170 HD
ENDBRANCH   2  20
TORSDOF 6
ENDMDL
MODEL 6
REMARK VINA RESULT:      -8.7      4.527      9.174
REMARK  6 active torsions:
REMARK  status: ('A' for Active; 'I' for Inactive)
REMARK    1  A    between atoms: C_2  and  C_3 
REMARK    2  A    between atoms: C_3  and  N_4 
REMARK    3  A    between atoms: C_5  and  S_6 
REMARK    4  A    between atoms: S_6  and  C_7 
REMARK    5  A    between atoms: C_7  and  C_8 
REMARK       I    between atoms: C_8  and  N_9 
REMARK    6  A    between atoms: N_9  and  C_10 
ROOT
HETATM    1  C   UNL     1       5.013  28.998  55.103  1.00  0.00     0.231 C 
HETATM    2  N   UNL     1       5.521  30.273  55.320  1.00  0.00    -0.325 N 
HETATM    3  O   UNL     1       4.199  28.442  55.839  1.00  0.00    -0.272 OA
HETATM    4  H   UNL     1       5.749  30.755  54.457  1.00  0.00     0.169 HD
ENDROOT
BRANCH   1   5
HETATM    5  C   UNL     1       5.542  28.289  53.864  1.00  0.00     0.185 C 
BRANCH   5   6
HETATM    6  S   UNL     1       7.348  28.032  53.915  1.00  0.00    -0.083 SA
BRANCH   6   7
HETATM    7  C   UNL     1       7.411  26.298  53.976  1.00  0.00     0.170 A 
HETATM    8  N   UNL     1       7.220  25.567  55.123  1.00  0.00    -0.324 N 
HETATM    9  C   UNL     1       7.448  24.241  54.806  1.00  0.00     0.065 A 
HETATM   10  C   UNL     1       7.724  24.258  53.440  1.00  0.00     0.088 A 
HETATM   11  C   UNL     1       7.435  23.056  55.554  1.00  0.00     0.034 A 
HETATM   12  N   UNL     1       7.682  25.534  52.946  1.00  0.00    -0.222 NA
HETATM   13  C   UNL     1       8.005  23.061  52.767  1.00  0.00     0.057 A 
HETATM   14  C   UNL     1       8.001  21.874  53.504  1.00  0.00     0.036 A 
HETATM   15 CL   UNL     1       8.353  20.386  52.708  1.00  0.00    -0.084 Cl
HETATM   16  C   UNL     1       7.723  21.869  54.872  1.00  0.00     0.026 A 
BRANCH   8  17
HETATM   17  C   UNL     1       6.875  26.065  56.441  1.00  0.00     0.131 C 
BRANCH  17  18
HETATM   18  C   UNL     1       8.065  26.612  57.233  1.00  0.00     0.016 C 
HETATM   19  C   UNL     1       7.872  28.049  57.700  1.00  0.00     0.006 C 
ENDBRANCH  17  18
ENDBRANCH   8  17
ENDBRANCH   6   7
ENDBRANCH   5   6
ENDBRANCH   1   5
BRANCH   2  20
HETATM   20  C   UNL     1       5.105  31.075  56.411  1.00  0.00     0.054 A 
HETATM   21  C   UNL     1       3.980  31.952  56.368  1.00  0.00     0.040 A 
HETATM   22 BR   UNL     1       2.709  31.924  54.945  1.00  0.00    -0.049 Br
HETATM   23  C   UNL     1       3.660  32.781  57.454  1.00  0.00     0.053 A 
HETATM   24  C   UNL     1       4.462  32.682  58.564  1.00  0.00     0.064 A 
HETATM   25  C   UNL     1       5.527  31.789  58.634  1.00  0.00     0.065 A 
HETATM   26  N   UNL     1       4.396  33.367  59.772  1.00  0.00    -0.306 N 
HETATM   27  N   UNL     1       6.120  31.927  59.884  1.00  0.00    -0.306 N 
HETATM   28  C   UNL     1       5.865  30.963  57.587  1.00  0.00     0.063 A 
HETATM   29  C   UNL     1       5.429  32.911  60.605  1.00  0.00     0.325 A 
HETATM   30  H   UNL     1       6.921  31.434  60.245  1.00  0.00     0.170 HD
HETATM   31  O   UNL     1       5.678  33.294  61.733  1.00  0.00    -0.247 OA
HETATM   32  H   UNL     1       3.742  34.085  60.035  1.00  0.00     0.170 HD
ENDBRANCH   2  20
TORSDOF 6
ENDMDL
MODEL 7
REMARK VINA RESULT:      -8.7      4.529      9.330
REMARK  6 active torsions:
REMARK  status: ('A' for Active; 'I' for Inactive)
REMARK    1  A    between atoms: C_2  and  C_3 
REMARK    2  A    between atoms: C_3  and  N_4 
REMARK    3  A    between atoms: C_5  and  S_6 
REMARK    4  A    between atoms: S_6  and  C_7 
REMARK    5  A    between atoms: C_7  and  C_8 
REMARK       I    between atoms: C_8  and  N_9 
REMARK    6  A    between atoms: N_9  and  C_10 
ROOT
HETATM    1  C   UNL     1       7.774  27.392  56.977  1.00  0.00     0.231 C 
HETATM    2  N   UNL     1       7.809  28.739  56.642  1.00  0.00    -0.325 N 
HETATM    3  O   UNL     1       8.016  26.949  58.099  1.00  0.00    -0.272 OA
HETATM    4  H   UNL     1       7.152  28.976  55.906  1.00  0.00     0.169 HD
ENDROOT
BRANCH   1   5
HETATM    5  C   UNL     1       7.417  26.447  55.837  1.00  0.00     0.185 C 
BRANCH   5   6
HETATM    6  S   UNL     1       5.646  26.011  55.810  1.00  0.00    -0.083 SA
BRANCH   6   7
HETATM    7  C   UNL     1       5.245  26.450  54.179  1.00  0.00     0.170 A 
HETATM    8  N   UNL     1       5.458  25.634  53.094  1.00  0.00    -0.324 N 
HETATM    9  C   UNL     1       5.117  26.355  51.966  1.00  0.00     0.065 A 
HETATM   10  C   UNL     1       4.666  27.577  52.464  1.00  0.00     0.088 A 
HETATM   11  C   UNL     1       5.150  26.071  50.594  1.00  0.00     0.034 A 
HETATM   12  N   UNL     1       4.740  27.608  53.831  1.00  0.00    -0.222 NA
HETATM   13  C   UNL     1       4.226  28.573  51.582  1.00  0.00     0.057 A 
HETATM   14  C   UNL     1       4.261  28.303  50.212  1.00  0.00     0.036 A 
HETATM   15 CL   UNL     1       3.737  29.512  49.101  1.00  0.00    -0.084 Cl
HETATM   16  C   UNL     1       4.714  27.077  49.724  1.00  0.00     0.026 A 
BRANCH   8  17
HETATM   17  C   UNL     1       5.972  24.277  53.097  1.00  0.00     0.131 C 
BRANCH  17  18
HETATM   18  C   UNL     1       7.482  24.182  52.868  1.00  0.00     0.016 C 
HETATM   19  C   UNL     1       8.010  22.754  52.900  1.00  0.00     0.006 C 
ENDBRANCH  17  18
ENDBRANCH   8  17
ENDBRANCH   6   7
ENDBRANCH   5   6
ENDBRANCH   1   5
BRANCH   2  20
HETATM   20  C   UNL     1       8.095  29.747  57.596  1.00  0.00     0.054 A 
HETATM   21  C   UNL     1       9.414  30.189  57.913  1.00  0.00     0.040 A 
HETATM   22 BR   UNL     1      10.938  29.705  56.871  1.00  0.00    -0.049 Br
HETATM   23  C   UNL     1       9.642  31.136  58.923  1.00  0.00     0.053 A 
HETATM   24  C   UNL     1       8.535  31.635  59.564  1.00  0.00     0.064 A 
HETATM   25  C   UNL     1       7.242  31.249  59.223  1.00  0.00     0.065 A 
HETATM   26  N   UNL     1       8.448  32.565  60.593  1.00  0.00    -0.306 N 
HETATM   27  N   UNL     1       6.358  31.940  60.044  1.00  0.00    -0.306 N 
HETATM   28  C   UNL     1       6.986  30.324  58.237  1.00  0.00     0.063 A 
HETATM   29  C   UNL     1       7.095  32.763  60.908  1.00  0.00     0.325 A 
HETATM   30  H   UNL     1       5.354  31.879  60.059  1.00  0.00     0.170 HD
HETATM   31  O   UNL     1       6.647  33.504  61.763  1.00  0.00    -0.247 OA
HETATM   32  H   UNL     1       9.205  33.030  61.066  1.00  0.00     0.170 HD
ENDBRANCH   2  20
TORSDOF 6
ENDMDL
MODEL 8
REMARK VINA RESULT:      -8.6      4.237      9.413
REMARK  6 active torsions:
REMARK  status: ('A' for Active; 'I' for Inactive)
REMARK    1  A    between atoms: C_2  and  C_3 
REMARK    2  A    between atoms: C_3  and  N_4 
REMARK    3  A    between atoms: C_5  and  S_6 
REMARK    4  A    between atoms: S_6  and  C_7 
REMARK    5  A    between atoms: C_7  and  C_8 
REMARK       I    between atoms: C_8  and  N_9 
REMARK    6  A    between atoms: N_9  and  C_10 
ROOT
HETATM    1  C   UNL     1       8.145  28.620  57.370  1.00  0.00     0.231 C 
HETATM    2  N   UNL     1       8.080  30.008  57.356  1.00  0.00    -0.325 N 
HETATM    3  O   UNL     1       7.855  27.922  58.340  1.00  0.00    -0.272 OA
HETATM    4  H   UNL     1       7.865  30.380  56.437  1.00  0.00     0.169 HD
ENDROOT
BRANCH   1   5
HETATM    5  C   UNL     1       8.622  27.978  56.074  1.00  0.00     0.185 C 
BRANCH   5   6
HETATM    6  S   UNL     1       7.271  27.719  54.875  1.00  0.00    -0.083 SA
BRANCH   6   7
HETATM    7  C   UNL     1       7.382  26.001  54.652  1.00  0.00     0.170 A 
HETATM    8  N   UNL     1       7.098  25.084  55.634  1.00  0.00    -0.324 N 
HETATM    9  C   UNL     1       7.398  23.833  55.126  1.00  0.00     0.065 A 
HETATM   10  C   UNL     1       7.811  24.086  53.819  1.00  0.00     0.088 A 
HETATM   11  C   UNL     1       7.346  22.539  55.660  1.00  0.00     0.034 A 
HETATM   12  N   UNL     1       7.780  25.426  53.543  1.00  0.00    -0.222 NA
HETATM   13  C   UNL     1       8.195  23.023  52.989  1.00  0.00     0.057 A 
HETATM   14  C   UNL     1       8.154  21.729  53.513  1.00  0.00     0.036 A 
HETATM   15 CL   UNL     1       8.630  20.403  52.521  1.00  0.00    -0.084 Cl
HETATM   16  C   UNL     1       7.738  21.488  54.823  1.00  0.00     0.026 A 
BRANCH   8  17
HETATM   17  C   UNL     1       6.605  25.347  56.973  1.00  0.00     0.131 C 
BRANCH  17  18
HETATM   18  C   UNL     1       5.083  25.477  57.063  1.00  0.00     0.016 C 
HETATM   19  C   UNL     1       4.593  26.917  56.991  1.00  0.00     0.006 C 
ENDBRANCH  17  18
ENDBRANCH   8  17
ENDBRANCH   6   7
ENDBRANCH   5   6
ENDBRANCH   1   5
BRANCH   2  20
HETATM   20  C   UNL     1       7.626  30.753  58.472  1.00  0.00     0.054 A 
HETATM   21  C   UNL     1       6.463  31.578  58.454  1.00  0.00     0.040 A 
HETATM   22 BR   UNL     1       5.197  31.540  57.028  1.00  0.00    -0.049 Br
HETATM   23  C   UNL     1       6.103  32.354  59.567  1.00  0.00     0.053 A 
HETATM   24  C   UNL     1       6.907  32.255  60.676  1.00  0.00     0.064 A 
HETATM   25  C   UNL     1       8.012  31.409  60.719  1.00  0.00     0.065 A 
HETATM   26  N   UNL     1       6.809  32.895  61.906  1.00  0.00    -0.306 N 
HETATM   27  N   UNL     1       8.596  31.532  61.974  1.00  0.00    -0.306 N 
HETATM   28  C   UNL     1       8.389  30.635  59.646  1.00  0.00     0.063 A 
HETATM   29  C   UNL     1       7.860  32.459  62.726  1.00  0.00     0.325 A 
HETATM   30  H   UNL     1       9.418  31.065  62.321  1.00  0.00     0.170 HD
HETATM   31  O   UNL     1       8.089  32.815  63.867  1.00  0.00    -0.247 OA
HETATM   32  H   UNL     1       6.122  33.573  62.191  1.00  0.00     0.170 HD
ENDBRANCH   2  20
TORSDOF 6
ENDMDL
MODEL 9
REMARK VINA RESULT:      -8.6      2.975      3.651
REMARK  6 active torsions:
REMARK  status: ('A' for Active; 'I' for Inactive)
REMARK    1  A    between atoms: C_2  and  C_3 
REMARK    2  A    between atoms: C_3  and  N_4 
REMARK    3  A    between atoms: C_5  and  S_6 
REMARK    4  A    between atoms: S_6  and  C_7 
REMARK    5  A    between atoms: C_7  and  C_8 
REMARK       I    between atoms: C_8  and  N_9 
REMARK    6  A    between atoms: N_9  and  C_10 
ROOT
HETATM    1  C   UNL     1       5.435  29.390  56.685  1.00  0.00     0.231 C 
HETATM    2  N   UNL     1       4.516  28.428  56.286  1.00  0.00    -0.325 N 
HETATM    3  O   UNL     1       6.538  29.552  56.166  1.00  0.00    -0.272 OA
HETATM    4  H   UNL     1       3.555  28.720  56.435  1.00  0.00     0.169 HD
ENDROOT
BRANCH   1   5
HETATM    5  C   UNL     1       4.998  30.264  57.853  1.00  0.00     0.185 C 
BRANCH   5   6
HETATM    6  S   UNL     1       5.559  31.992  57.691  1.00  0.00    -0.083 SA
BRANCH   6   7
HETATM    7  C   UNL     1       6.197  32.259  59.283  1.00  0.00     0.170 A 
HETATM    8  N   UNL     1       7.365  31.699  59.742  1.00  0.00    -0.324 N 
HETATM    9  C   UNL     1       7.493  32.050  61.072  1.00  0.00     0.065 A 
HETATM   10  C   UNL     1       6.385  32.859  61.321  1.00  0.00     0.088 A 
HETATM   11  C   UNL     1       8.444  31.755  62.059  1.00  0.00     0.034 A 
HETATM   12  N   UNL     1       5.608  32.986  60.201  1.00  0.00    -0.222 NA
HETATM   13  C   UNL     1       6.192  33.408  62.596  1.00  0.00     0.057 A 
HETATM   14  C   UNL     1       7.129  33.116  63.589  1.00  0.00     0.036 A 
HETATM   15 CL   UNL     1       6.913  33.768  65.170  1.00  0.00    -0.084 Cl
HETATM   16  C   UNL     1       8.235  32.305  63.329  1.00  0.00     0.026 A 
BRANCH   8  17
HETATM   17  C   UNL     1       8.295  30.865  59.003  1.00  0.00     0.131 C 
BRANCH  17  18
HETATM   18  C   UNL     1       9.618  31.556  58.664  1.00  0.00     0.016 C 
HETATM   19  C   UNL     1      10.487  30.760  57.700  1.00  0.00     0.006 C 
ENDBRANCH  17  18
ENDBRANCH   8  17
ENDBRANCH   6   7
ENDBRANCH   5   6
ENDBRANCH   1   5
BRANCH   2  20
HETATM   20  C   UNL     1       4.760  27.558  55.195  1.00  0.00     0.054 A 
HETATM   21  C   UNL     1       5.381  26.280  55.324  1.00  0.00     0.040 A 
HETATM   22 BR   UNL     1       5.679  25.447  57.014  1.00  0.00    -0.049 Br
HETATM   23  C   UNL     1       5.668  25.493  54.198  1.00  0.00     0.053 A 
HETATM   24  C   UNL     1       5.293  25.999  52.978  1.00  0.00     0.064 A 
HETATM   25  C   UNL     1       4.637  27.220  52.850  1.00  0.00     0.065 A 
HETATM   26  N   UNL     1       5.447  25.460  51.706  1.00  0.00    -0.306 N 
HETATM   27  N   UNL     1       4.389  27.433  51.499  1.00  0.00    -0.306 N 
HETATM   28  C   UNL     1       4.341  28.014  53.934  1.00  0.00     0.063 A 
HETATM   29  C   UNL     1       4.892  26.346  50.771  1.00  0.00     0.325 A 
HETATM   30  H   UNL     1       3.941  28.227  51.072  1.00  0.00     0.170 HD
HETATM   31  O   UNL     1       4.855  26.200  49.563  1.00  0.00    -0.247 OA
HETATM   32  H   UNL     1       5.888  24.589  51.458  1.00  0.00     0.170 HD
ENDBRANCH   2  20
TORSDOF 6
ENDMDL
MODEL 10
REMARK VINA RESULT:      -8.5      2.474      3.911
REMARK  6 active torsions:
REMARK  status: ('A' for Active; 'I' for Inactive)
REMARK    1  A    between atoms: C_2  and  C_3 
REMARK    2  A    between atoms: C_3  and  N_4 
REMARK    3  A    between atoms: C_5  and  S_6 
REMARK    4  A    between atoms: S_6  and  C_7 
REMARK    5  A    between atoms: C_7  and  C_8 
REMARK       I    between atoms: C_8  and  N_9 
REMARK    6  A    between atoms: N_9  and  C_10 
ROOT
HETATM    1  C   UNL     1       6.790  27.195  54.048  1.00  0.00     0.231 C 
HETATM    2  N   UNL     1       6.332  26.131  54.815  1.00  0.00    -0.325 N 
HETATM    3  O   UNL     1       7.864  27.206  53.448  1.00  0.00    -0.272 OA
HETATM    4  H   UNL     1       5.320  26.058  54.817  1.00  0.00     0.169 HD
ENDROOT
BRANCH   1   5
HETATM    5  C   UNL     1       5.863  28.402  53.989  1.00  0.00     0.185 C 
BRANCH   5   6
HETATM    6  S   UNL     1       4.519  28.321  55.220  1.00  0.00    -0.083 SA
BRANCH   6   7
HETATM    7  C   UNL     1       5.182  29.331  56.467  1.00  0.00     0.170 A 
HETATM    8  N   UNL     1       4.461  30.290  57.137  1.00  0.00    -0.324 N 
HETATM    9  C   UNL     1       5.340  30.955  57.971  1.00  0.00     0.065 A 
HETATM   10  C   UNL     1       6.557  30.303  57.775  1.00  0.00     0.088 A 
HETATM   11  C   UNL     1       5.199  32.029  58.859  1.00  0.00     0.034 A 
HETATM   12  N   UNL     1       6.433  29.297  56.856  1.00  0.00    -0.222 NA
HETATM   13  C   UNL     1       7.695  30.720  58.479  1.00  0.00     0.057 A 
HETATM   14  C   UNL     1       7.568  31.794  59.363  1.00  0.00     0.036 A 
HETATM   15 CL   UNL     1       8.952  32.336  60.235  1.00  0.00    -0.084 Cl
HETATM   16  C   UNL     1       6.345  32.439  59.551  1.00  0.00     0.026 A 
BRANCH   8  17
HETATM   17  C   UNL     1       3.050  30.594  56.995  1.00  0.00     0.131 C 
BRANCH  17  18
HETATM   18  C   UNL     1       2.705  31.379  55.727  1.00  0.00     0.016 C 
HETATM   19  C   UNL     1       3.300  32.781  55.703  1.00  0.00     0.006 C 
ENDBRANCH  17  18
ENDBRANCH   8  17
ENDBRANCH   6   7
ENDBRANCH   5   6
ENDBRANCH   1   5
BRANCH   2  20
HETATM   20  C   UNL     1       7.062  24.925  54.944  1.00  0.00     0.054 A 
HETATM   21  C   UNL     1       7.953  24.649  56.024  1.00  0.00     0.040 A 
HETATM   22 BR   UNL     1       8.036  25.734  57.592  1.00  0.00    -0.049 Br
HETATM   23  C   UNL     1       8.710  23.467  56.061  1.00  0.00     0.053 A 
HETATM   24  C   UNL     1       8.526  22.583  55.026  1.00  0.00     0.064 A 
HETATM   25  C   UNL     1       7.618  22.821  53.998  1.00  0.00     0.065 A 
HETATM   26  N   UNL     1       9.129  21.353  54.791  1.00  0.00    -0.306 N 
HETATM   27  N   UNL     1       7.664  21.739  53.128  1.00  0.00    -0.306 N 
HETATM   28  C   UNL     1       6.861  23.969  53.935  1.00  0.00     0.063 A 
HETATM   29  C   UNL     1       8.605  20.815  53.605  1.00  0.00     0.325 A 
HETATM   30  H   UNL     1       7.140  21.606  52.278  1.00  0.00     0.170 HD
HETATM   31  O   UNL     1       8.908  19.754  53.091  1.00  0.00    -0.247 OA
HETATM   32  H   UNL     1       9.834  20.899  55.347  1.00  0.00     0.170 HD
ENDBRANCH   2  20
TORSDOF 6
ENDMDL
