MODEL 1
REMARK VINA RESULT:     -11.6      0.000      0.000
REMARK  7 active torsions:
REMARK  status: ('A' for Active; 'I' for Inactive)
REMARK    1  A    between atoms: C_3  and  N_4 
REMARK    2  A    between atoms: N_7  and  C_9 
REMARK    3  A    between atoms: C_9  and  C_10 
REMARK    4  A    between atoms: C_10  and  C_11 
REMARK    5  A    between atoms: C_11  and  N_12 
REMARK       I    between atoms: N_12  and  C_13 
REMARK    6  A    between atoms: C_13  and  C_14 
REMARK    7  A    between atoms: C_14  and  N_15 
ROOT
HETATM    1  N   UNL     1       7.628  30.564  59.519  1.00  0.00    -0.360 N 
HETATM    2  C   UNL     1       7.487  31.923  59.714  1.00  0.00     0.237 C 
HETATM    3  O   UNL     1       8.437  32.692  59.561  1.00  0.00    -0.272 OA
HETATM    4  H   UNL     1       6.796  29.993  59.669  1.00  0.00     0.162 HD
ENDROOT
BRANCH   1   5
HETATM    5  C   UNL     1       8.805  30.014  58.893  1.00  0.00     0.124 C 
BRANCH   5   6
HETATM    6  C   UNL     1       8.487  29.343  57.555  1.00  0.00     0.047 C 
BRANCH   6   7
HETATM    7  C   UNL     1       7.017  28.953  57.498  1.00  0.00     0.236 C 
BRANCH   7   8
HETATM    8  N   UNL     1       6.827  27.465  57.259  1.00  0.00    -0.068 N 
HETATM    9  C   UNL     1       6.089  27.155  55.948  1.00  0.00     0.254 C 
HETATM   10  C   UNL     1       6.063  25.642  55.646  1.00  0.00     0.150 C 
HETATM   11  N   UNL     1       7.446  25.133  55.648  1.00  0.00    -0.377 N 
HETATM   12  C   UNL     1       8.098  25.262  56.961  1.00  0.00     0.150 C 
HETATM   13  C   UNL     1       8.198  26.759  57.321  1.00  0.00     0.254 C 
HETATM   14  H   UNL     1       6.259  27.086  58.028  1.00  0.00     0.280 HD
BRANCH  11  15
HETATM   15  C   UNL     1       7.618  23.938  54.935  1.00  0.00     0.037 A 
HETATM   16  C   UNL     1       7.752  23.967  53.524  1.00  0.00    -0.035 A 
HETATM   17  C   UNL     1       7.733  25.253  52.738  1.00  0.00     0.050 C 
HETATM   18  C   UNL     1       7.903  22.767  52.804  1.00  0.00     0.011 A 
HETATM   19  C   UNL     1       7.964  21.543  53.463  1.00  0.00     0.024 A 
HETATM   20  C   UNL     1       7.860  21.511  54.847  1.00  0.00     0.036 A 
HETATM   21  C   UNL     1       7.685  22.690  55.576  1.00  0.00     0.053 A 
HETATM   22 CL   UNL     1       7.943  20.005  55.674  1.00  0.00    -0.084 Cl
ENDBRANCH  11  15
ENDBRANCH   7   8
ENDBRANCH   6   7
ENDBRANCH   5   6
ENDBRANCH   1   5
BRANCH   2  23
HETATM   23  C   UNL     1       6.145  32.378  60.282  1.00  0.00     0.257 C 
BRANCH  23  24
HETATM   24  N   UNL     1       6.177  32.596  61.725  1.00  0.00    -0.224 N 
HETATM   25  N   UNL     1       7.449  32.678  62.322  1.00  0.00    -0.180 NA
HETATM   26  C   UNL     1       7.548  33.030  63.576  1.00  0.00     0.153 A 
HETATM   27  C   UNL     1       6.378  33.302  64.360  1.00  0.00     0.028 A 
HETATM   28  C   UNL     1       5.143  33.165  63.776  1.00  0.00     0.116 A 
HETATM   29  C   UNL     1       6.186  33.729  65.699  1.00  0.00     0.005 A 
HETATM   30  N   UNL     1       4.191  33.469  64.707  1.00  0.00    -0.350 N 
HETATM   31  C   UNL     1       4.959  32.793  62.406  1.00  0.00     0.291 A 
HETATM   32  H   UNL     1       3.192  33.463  64.543  1.00  0.00     0.166 HD
HETATM   33  C   UNL     1       4.803  33.826  65.892  1.00  0.00     0.044 A 
HETATM   34  C   UNL     1       4.238  34.233  67.107  1.00  0.00     0.030 A 
HETATM   35  C   UNL     1       5.111  34.557  68.151  1.00  0.00     0.002 A 
HETATM   36  C   UNL     1       6.491  34.472  67.987  1.00  0.00     0.001 A 
HETATM   37  C   UNL     1       7.042  34.058  66.768  1.00  0.00     0.014 A 
HETATM   38  O   UNL     1       3.856  32.656  61.890  1.00  0.00    -0.264 OA
ENDBRANCH  23  24
ENDBRANCH   2  23
TORSDOF 7
ENDMDL
MODEL 2
REMARK VINA RESULT:     -11.4      2.969      5.043
REMARK  7 active torsions:
REMARK  status: ('A' for Active; 'I' for Inactive)
REMARK    1  A    between atoms: C_3  and  N_4 
REMARK    2  A    between atoms: N_7  and  C_9 
REMARK    3  A    between atoms: C_9  and  C_10 
REMARK    4  A    between atoms: C_10  and  C_11 
REMARK    5  A    between atoms: C_11  and  N_12 
REMARK       I    between atoms: N_12  and  C_13 
REMARK    6  A    between atoms: C_13  and  C_14 
REMARK    7  A    between atoms: C_14  and  N_15 
ROOT
HETATM    1  N   UNL     1       5.001  29.912  54.687  1.00  0.00    -0.360 N 
HETATM    2  C   UNL     1       5.456  29.044  55.660  1.00  0.00     0.237 C 
HETATM    3  O   UNL     1       4.694  28.253  56.217  1.00  0.00    -0.272 OA
HETATM    4  H   UNL     1       5.692  30.538  54.276  1.00  0.00     0.162 HD
ENDROOT
BRANCH   1   5
HETATM    5  C   UNL     1       3.690  29.764  54.105  1.00  0.00     0.124 C 
BRANCH   5   6
HETATM    6  C   UNL     1       3.677  28.751  52.958  1.00  0.00     0.047 C 
BRANCH   6   7
HETATM    7  C   UNL     1       5.003  28.787  52.211  1.00  0.00     0.236 C 
BRANCH   7   8
HETATM    8  N   UNL     1       5.645  27.414  52.114  1.00  0.00    -0.068 N 
HETATM    9  C   UNL     1       6.999  27.331  52.834  1.00  0.00     0.254 C 
HETATM   10  C   UNL     1       7.545  25.888  52.870  1.00  0.00     0.150 C 
HETATM   11  N   UNL     1       6.528  25.010  53.477  1.00  0.00    -0.377 N 
HETATM   12  C   UNL     1       5.288  24.945  52.688  1.00  0.00     0.150 C 
HETATM   13  C   UNL     1       4.657  26.351  52.637  1.00  0.00     0.254 C 
HETATM   14  H   UNL     1       5.812  27.207  51.121  1.00  0.00     0.280 HD
BRANCH  11  15
HETATM   15  C   UNL     1       7.043  23.818  54.007  1.00  0.00     0.037 A 
HETATM   16  C   UNL     1       7.140  23.651  55.412  1.00  0.00    -0.035 A 
HETATM   17  C   UNL     1       6.691  24.711  56.384  1.00  0.00     0.050 C 
HETATM   18  C   UNL     1       7.675  22.464  55.946  1.00  0.00     0.011 A 
HETATM   19  C   UNL     1       8.080  21.426  55.111  1.00  0.00     0.024 A 
HETATM   20  C   UNL     1       7.963  21.574  53.737  1.00  0.00     0.036 A 
HETATM   21  C   UNL     1       7.456  22.756  53.188  1.00  0.00     0.053 A 
HETATM   22 CL   UNL     1       8.451  20.295  52.696  1.00  0.00    -0.084 Cl
ENDBRANCH  11  15
ENDBRANCH   7   8
ENDBRANCH   6   7
ENDBRANCH   5   6
ENDBRANCH   1   5
BRANCH   2  23
HETATM   23  C   UNL     1       6.902  29.244  56.106  1.00  0.00     0.257 C 
BRANCH  23  24
HETATM   24  N   UNL     1       7.027  30.102  57.279  1.00  0.00    -0.224 N 
HETATM   25  N   UNL     1       6.157  31.207  57.348  1.00  0.00    -0.180 NA
HETATM   26  C   UNL     1       6.108  31.918  58.442  1.00  0.00     0.153 A 
HETATM   27  C   UNL     1       6.951  31.608  59.561  1.00  0.00     0.028 A 
HETATM   28  C   UNL     1       7.831  30.561  59.458  1.00  0.00     0.116 A 
HETATM   29  C   UNL     1       7.084  32.168  60.858  1.00  0.00     0.005 A 
HETATM   30  N   UNL     1       8.522  30.461  60.632  1.00  0.00    -0.350 N 
HETATM   31  C   UNL     1       7.933  29.733  58.295  1.00  0.00     0.291 A 
HETATM   32  H   UNL     1       9.228  29.765  60.835  1.00  0.00     0.166 HD
HETATM   33  C   UNL     1       8.079  31.429  61.511  1.00  0.00     0.044 A 
HETATM   34  C   UNL     1       8.475  31.695  62.827  1.00  0.00     0.030 A 
HETATM   35  C   UNL     1       7.832  32.741  63.497  1.00  0.00     0.002 A 
HETATM   36  C   UNL     1       6.838  33.492  62.874  1.00  0.00     0.001 A 
HETATM   37  C   UNL     1       6.456  33.219  61.556  1.00  0.00     0.014 A 
HETATM   38  O   UNL     1       8.730  28.806  58.197  1.00  0.00    -0.264 OA
ENDBRANCH  23  24
ENDBRANCH   2  23
TORSDOF 7
ENDMDL
MODEL 3
REMARK VINA RESULT:     -11.4      2.064      3.010
REMARK  7 active torsions:
REMARK  status: ('A' for Active; 'I' for Inactive)
REMARK    1  A    between atoms: C_3  and  N_4 
REMARK    2  A    between atoms: N_7  and  C_9 
REMARK    3  A    between atoms: C_9  and  C_10 
REMARK    4  A    between atoms: C_10  and  C_11 
REMARK    5  A    between atoms: C_11  and  N_12 
REMARK       I    between atoms: N_12  and  C_13 
REMARK    6  A    between atoms: C_13  and  C_14 
REMARK    7  A    between atoms: C_14  and  N_15 
ROOT
HETATM    1  N   UNL     1       6.548  30.034  58.105  1.00  0.00    -0.360 N 
HETATM    2  C   UNL     1       7.718  29.329  58.303  1.00  0.00     0.237 C 
HETATM    3  O   UNL     1       7.770  28.112  58.122  1.00  0.00    -0.272 OA
HETATM    4  H   UNL     1       6.584  31.037  58.279  1.00  0.00     0.162 HD
ENDROOT
BRANCH   1   5
HETATM    5  C   UNL     1       5.414  29.433  57.445  1.00  0.00     0.124 C 
BRANCH   5   6
HETATM    6  C   UNL     1       5.061  30.148  56.138  1.00  0.00     0.047 C 
BRANCH   6   7
HETATM    7  C   UNL     1       5.380  29.254  54.949  1.00  0.00     0.236 C 
BRANCH   7   8
HETATM    8  N   UNL     1       5.906  27.895  55.377  1.00  0.00    -0.068 N 
HETATM    9  C   UNL     1       4.952  26.742  55.029  1.00  0.00     0.254 C 
HETATM   10  C   UNL     1       5.584  25.364  55.316  1.00  0.00     0.150 C 
HETATM   11  N   UNL     1       6.868  25.271  54.597  1.00  0.00    -0.377 N 
HETATM   12  C   UNL     1       7.853  26.262  55.058  1.00  0.00     0.150 C 
HETATM   13  C   UNL     1       7.307  27.676  54.770  1.00  0.00     0.254 C 
HETATM   14  H   UNL     1       6.019  27.902  56.399  1.00  0.00     0.280 HD
BRANCH  11  15
HETATM   15  C   UNL     1       7.302  23.958  54.368  1.00  0.00     0.037 A 
HETATM   16  C   UNL     1       7.708  23.561  53.069  1.00  0.00    -0.035 A 
HETATM   17  C   UNL     1       7.709  24.510  51.899  1.00  0.00     0.050 C 
HETATM   18  C   UNL     1       8.125  22.238  52.833  1.00  0.00     0.011 A 
HETATM   19  C   UNL     1       8.184  21.313  53.872  1.00  0.00     0.024 A 
HETATM   20  C   UNL     1       7.812  21.703  55.151  1.00  0.00     0.036 A 
HETATM   21  C   UNL     1       7.372  23.007  55.399  1.00  0.00     0.053 A 
HETATM   22 CL   UNL     1       7.889  20.572  56.444  1.00  0.00    -0.084 Cl
ENDBRANCH  11  15
ENDBRANCH   7   8
ENDBRANCH   6   7
ENDBRANCH   5   6
ENDBRANCH   1   5
BRANCH   2  23
HETATM   23  C   UNL     1       8.875  30.119  58.909  1.00  0.00     0.257 C 
BRANCH  23  24
HETATM   24  N   UNL     1       8.441  31.119  59.880  1.00  0.00    -0.224 N 
HETATM   25  N   UNL     1       7.666  32.185  59.384  1.00  0.00    -0.180 NA
HETATM   26  C   UNL     1       7.114  33.021  60.221  1.00  0.00     0.153 A 
HETATM   27  C   UNL     1       7.313  32.887  61.636  1.00  0.00     0.028 A 
HETATM   28  C   UNL     1       8.114  31.874  62.099  1.00  0.00     0.116 A 
HETATM   29  C   UNL     1       6.821  33.606  62.756  1.00  0.00     0.005 A 
HETATM   30  N   UNL     1       8.158  31.948  63.462  1.00  0.00    -0.350 N 
HETATM   31  C   UNL     1       8.743  30.916  61.242  1.00  0.00     0.291 A 
HETATM   32  H   UNL     1       8.666  31.313  64.065  1.00  0.00     0.166 HD
HETATM   33  C   UNL     1       7.368  32.995  63.892  1.00  0.00     0.044 A 
HETATM   34  C   UNL     1       7.091  33.437  65.191  1.00  0.00     0.030 A 
HETATM   35  C   UNL     1       6.227  34.528  65.335  1.00  0.00     0.002 A 
HETATM   36  C   UNL     1       5.667  35.153  64.223  1.00  0.00     0.001 A 
HETATM   37  C   UNL     1       5.957  34.705  62.929  1.00  0.00     0.014 A 
HETATM   38  O   UNL     1       9.472  30.020  61.655  1.00  0.00    -0.264 OA
ENDBRANCH  23  24
ENDBRANCH   2  23
TORSDOF 7
ENDMDL
MODEL 4
REMARK VINA RESULT:     -11.2      3.810     12.942
REMARK  7 active torsions:
REMARK  status: ('A' for Active; 'I' for Inactive)
REMARK    1  A    between atoms: C_3  and  N_4 
REMARK    2  A    between atoms: N_7  and  C_9 
REMARK    3  A    between atoms: C_9  and  C_10 
REMARK    4  A    between atoms: C_10  and  C_11 
REMARK    5  A    between atoms: C_11  and  N_12 
REMARK       I    between atoms: N_12  and  C_13 
REMARK    6  A    between atoms: C_13  and  C_14 
REMARK    7  A    between atoms: C_14  and  N_15 
ROOT
HETATM    1  N   UNL     1       8.160  29.610  58.837  1.00  0.00    -0.360 N 
HETATM    2  C   UNL     1       8.302  28.738  57.777  1.00  0.00     0.237 C 
HETATM    3  O   UNL     1       9.216  28.866  56.962  1.00  0.00    -0.272 OA
HETATM    4  H   UNL     1       7.377  29.440  59.467  1.00  0.00     0.162 HD
ENDROOT
BRANCH   1   5
HETATM    5  C   UNL     1       9.202  30.546  59.182  1.00  0.00     0.124 C 
BRANCH   5   6
HETATM    6  C   UNL     1       8.643  31.910  59.591  1.00  0.00     0.047 C 
BRANCH   6   7
HETATM    7  C   UNL     1       7.122  31.862  59.638  1.00  0.00     0.236 C 
BRANCH   7   8
HETATM    8  N   UNL     1       6.588  31.992  61.053  1.00  0.00    -0.068 N 
HETATM    9  C   UNL     1       7.579  32.667  62.013  1.00  0.00     0.254 C 
HETATM   10  C   UNL     1       6.949  32.943  63.394  1.00  0.00     0.150 C 
HETATM   11  N   UNL     1       5.719  33.733  63.206  1.00  0.00    -0.377 N 
HETATM   12  C   UNL     1       4.691  33.013  62.438  1.00  0.00     0.150 C 
HETATM   13  C   UNL     1       5.234  32.731  61.022  1.00  0.00     0.254 C 
HETATM   14  H   UNL     1       6.406  31.047  61.416  1.00  0.00     0.280 HD
BRANCH  11  15
HETATM   15  C   UNL     1       5.320  34.451  64.342  1.00  0.00     0.037 A 
HETATM   16  C   UNL     1       5.028  35.834  64.241  1.00  0.00    -0.035 A 
HETATM   17  C   UNL     1       5.114  36.584  62.936  1.00  0.00     0.050 C 
HETATM   18  C   UNL     1       4.647  36.561  65.384  1.00  0.00     0.011 A 
HETATM   19  C   UNL     1       4.513  35.931  66.618  1.00  0.00     0.024 A 
HETATM   20  C   UNL     1       4.772  34.571  66.717  1.00  0.00     0.036 A 
HETATM   21  C   UNL     1       5.175  33.838  65.597  1.00  0.00     0.053 A 
HETATM   22 CL   UNL     1       4.600  33.778  68.234  1.00  0.00    -0.084 Cl
ENDBRANCH  11  15
ENDBRANCH   7   8
ENDBRANCH   6   7
ENDBRANCH   5   6
ENDBRANCH   1   5
BRANCH   2  23
HETATM   23  C   UNL     1       7.175  27.725  57.595  1.00  0.00     0.257 C 
BRANCH  23  24
HETATM   24  N   UNL     1       7.620  26.476  56.984  1.00  0.00    -0.224 N 
HETATM   25  N   UNL     1       8.301  25.572  57.821  1.00  0.00    -0.180 NA
HETATM   26  C   UNL     1       8.582  24.376  57.380  1.00  0.00     0.153 A 
HETATM   27  C   UNL     1       8.237  23.982  56.044  1.00  0.00     0.028 A 
HETATM   28  C   UNL     1       7.621  24.894  55.224  1.00  0.00     0.116 A 
HETATM   29  C   UNL     1       8.380  22.769  55.323  1.00  0.00     0.005 A 
HETATM   30  N   UNL     1       7.396  24.301  54.014  1.00  0.00    -0.350 N 
HETATM   31  C   UNL     1       7.274  26.218  55.642  1.00  0.00     0.291 A 
HETATM   32  H   UNL     1       6.942  24.743  53.224  1.00  0.00     0.166 HD
HETATM   33  C   UNL     1       7.844  22.996  54.050  1.00  0.00     0.044 A 
HETATM   34  C   UNL     1       7.806  22.006  53.060  1.00  0.00     0.030 A 
HETATM   35  C   UNL     1       8.322  20.747  53.383  1.00  0.00     0.002 A 
HETATM   36  C   UNL     1       8.859  20.492  54.643  1.00  0.00     0.001 A 
HETATM   37  C   UNL     1       8.897  21.492  55.621  1.00  0.00     0.014 A 
HETATM   38  O   UNL     1       6.737  27.037  54.904  1.00  0.00    -0.264 OA
ENDBRANCH  23  24
ENDBRANCH   2  23
TORSDOF 7
ENDMDL
MODEL 5
REMARK VINA RESULT:     -11.2      1.940      3.334
REMARK  7 active torsions:
REMARK  status: ('A' for Active; 'I' for Inactive)
REMARK    1  A    between atoms: C_3  and  N_4 
REMARK    2  A    between atoms: N_7  and  C_9 
REMARK    3  A    between atoms: C_9  and  C_10 
REMARK    4  A    between atoms: C_10  and  C_11 
REMARK    5  A    between atoms: C_11  and  N_12 
REMARK       I    between atoms: N_12  and  C_13 
REMARK    6  A    between atoms: C_13  and  C_14 
REMARK    7  A    between atoms: C_14  and  N_15 
ROOT
HETATM    1  N   UNL     1       6.262  29.232  57.656  1.00  0.00    -0.360 N 
HETATM    2  C   UNL     1       7.606  28.980  57.845  1.00  0.00     0.237 C 
HETATM    3  O   UNL     1       8.049  27.831  57.835  1.00  0.00    -0.272 OA
HETATM    4  H   UNL     1       5.973  30.209  57.681  1.00  0.00     0.162 HD
ENDROOT
BRANCH   1   5
HETATM    5  C   UNL     1       5.365  28.201  57.193  1.00  0.00     0.124 C 
BRANCH   5   6
HETATM    6  C   UNL     1       4.568  28.638  55.962  1.00  0.00     0.047 C 
BRANCH   6   7
HETATM    7  C   UNL     1       5.496  28.796  54.766  1.00  0.00     0.236 C 
BRANCH   7   8
HETATM    8  N   UNL     1       5.933  27.458  54.198  1.00  0.00    -0.068 N 
HETATM    9  C   UNL     1       7.455  27.251  54.246  1.00  0.00     0.254 C 
HETATM   10  C   UNL     1       7.856  25.822  53.826  1.00  0.00     0.150 C 
HETATM   11  N   UNL     1       7.129  24.857  54.670  1.00  0.00    -0.377 N 
HETATM   12  C   UNL     1       5.670  24.927  54.490  1.00  0.00     0.150 C 
HETATM   13  C   UNL     1       5.183  26.324  54.927  1.00  0.00     0.254 C 
HETATM   14  H   UNL     1       5.650  27.420  53.210  1.00  0.00     0.280 HD
BRANCH  11  15
HETATM   15  C   UNL     1       7.730  23.592  54.742  1.00  0.00     0.037 A 
HETATM   16  C   UNL     1       8.405  23.193  55.924  1.00  0.00    -0.035 A 
HETATM   17  C   UNL     1       8.495  24.079  57.139  1.00  0.00     0.050 C 
HETATM   18  C   UNL     1       9.026  21.933  55.991  1.00  0.00     0.011 A 
HETATM   19  C   UNL     1       8.956  21.045  54.921  1.00  0.00     0.024 A 
HETATM   20  C   UNL     1       8.275  21.420  53.772  1.00  0.00     0.036 A 
HETATM   21  C   UNL     1       7.672  22.678  53.678  1.00  0.00     0.053 A 
HETATM   22 CL   UNL     1       8.173  20.329  52.446  1.00  0.00    -0.084 Cl
ENDBRANCH  11  15
ENDBRANCH   7   8
ENDBRANCH   6   7
ENDBRANCH   5   6
ENDBRANCH   1   5
BRANCH   2  23
HETATM   23  C   UNL     1       8.462  30.186  58.224  1.00  0.00     0.257 C 
BRANCH  23  24
HETATM   24  N   UNL     1       8.083  30.778  59.503  1.00  0.00    -0.224 N 
HETATM   25  N   UNL     1       8.764  30.308  60.642  1.00  0.00    -0.180 NA
HETATM   26  C   UNL     1       8.587  30.907  61.788  1.00  0.00     0.153 A 
HETATM   27  C   UNL     1       7.684  32.016  61.910  1.00  0.00     0.028 A 
HETATM   28  C   UNL     1       6.989  32.427  60.801  1.00  0.00     0.116 A 
HETATM   29  C   UNL     1       7.329  32.863  62.991  1.00  0.00     0.005 A 
HETATM   30  N   UNL     1       6.198  33.483  61.157  1.00  0.00    -0.350 N 
HETATM   31  C   UNL     1       7.139  31.825  59.511  1.00  0.00     0.291 A 
HETATM   32  H   UNL     1       5.587  33.990  60.529  1.00  0.00     0.166 HD
HETATM   33  C   UNL     1       6.393  33.775  62.491  1.00  0.00     0.044 A 
HETATM   34  C   UNL     1       5.821  34.779  63.283  1.00  0.00     0.030 A 
HETATM   35  C   UNL     1       6.223  34.856  64.621  1.00  0.00     0.002 A 
HETATM   36  C   UNL     1       7.154  33.963  65.145  1.00  0.00     0.001 A 
HETATM   37  C   UNL     1       7.713  32.960  64.343  1.00  0.00     0.014 A 
HETATM   38  O   UNL     1       6.505  32.183  58.524  1.00  0.00    -0.264 OA
ENDBRANCH  23  24
ENDBRANCH   2  23
TORSDOF 7
ENDMDL
MODEL 6
REMARK VINA RESULT:     -11.2      1.479      2.163
REMARK  7 active torsions:
REMARK  status: ('A' for Active; 'I' for Inactive)
REMARK    1  A    between atoms: C_3  and  N_4 
REMARK    2  A    between atoms: N_7  and  C_9 
REMARK    3  A    between atoms: C_9  and  C_10 
REMARK    4  A    between atoms: C_10  and  C_11 
REMARK    5  A    between atoms: C_11  and  N_12 
REMARK       I    between atoms: N_12  and  C_13 
REMARK    6  A    between atoms: C_13  and  C_14 
REMARK    7  A    between atoms: C_14  and  N_15 
ROOT
HETATM    1  N   UNL     1       5.196  30.691  58.530  1.00  0.00    -0.360 N 
HETATM    2  C   UNL     1       6.052  31.742  58.793  1.00  0.00     0.237 C 
HETATM    3  O   UNL     1       6.105  32.724  58.051  1.00  0.00    -0.272 OA
HETATM    4  H   UNL     1       5.213  29.913  59.188  1.00  0.00     0.162 HD
ENDROOT
BRANCH   1   5
HETATM    5  C   UNL     1       4.159  30.800  57.533  1.00  0.00     0.124 C 
BRANCH   5   6
HETATM    6  C   UNL     1       4.380  29.841  56.361  1.00  0.00     0.047 C 
BRANCH   6   7
HETATM    7  C   UNL     1       5.844  29.434  56.284  1.00  0.00     0.236 C 
BRANCH   7   8
HETATM    8  N   UNL     1       6.029  27.931  56.400  1.00  0.00    -0.068 N 
HETATM    9  C   UNL     1       5.194  27.141  55.380  1.00  0.00     0.254 C 
HETATM   10  C   UNL     1       5.531  25.636  55.404  1.00  0.00     0.150 C 
HETATM   11  N   UNL     1       6.981  25.469  55.197  1.00  0.00    -0.377 N 
HETATM   12  C   UNL     1       7.782  26.070  56.274  1.00  0.00     0.150 C 
HETATM   13  C   UNL     1       7.530  27.592  56.292  1.00  0.00     0.254 C 
HETATM   14  H   UNL     1       5.721  27.642  57.337  1.00  0.00     0.280 HD
BRANCH  11  15
HETATM   15  C   UNL     1       7.349  24.203  54.720  1.00  0.00     0.037 A 
HETATM   16  C   UNL     1       7.745  24.042  53.368  1.00  0.00    -0.035 A 
HETATM   17  C   UNL     1       7.803  25.196  52.401  1.00  0.00     0.050 C 
HETATM   18  C   UNL     1       8.095  22.768  52.882  1.00  0.00     0.011 A 
HETATM   19  C   UNL     1       8.098  21.660  53.724  1.00  0.00     0.024 A 
HETATM   20  C   UNL     1       7.737  21.817  55.055  1.00  0.00     0.036 A 
HETATM   21  C   UNL     1       7.363  23.070  55.549  1.00  0.00     0.053 A 
HETATM   22 CL   UNL     1       7.746  20.456  56.108  1.00  0.00    -0.084 Cl
ENDBRANCH  11  15
ENDBRANCH   7   8
ENDBRANCH   6   7
ENDBRANCH   5   6
ENDBRANCH   1   5
BRANCH   2  23
HETATM   23  C   UNL     1       7.025  31.533  59.950  1.00  0.00     0.257 C 
BRANCH  23  24
HETATM   24  N   UNL     1       6.605  32.197  61.180  1.00  0.00    -0.224 N 
HETATM   25  N   UNL     1       5.223  32.416  61.338  1.00  0.00    -0.180 NA
HETATM   26  C   UNL     1       4.770  32.857  62.480  1.00  0.00     0.153 A 
HETATM   27  C   UNL     1       5.664  33.153  63.563  1.00  0.00     0.028 A 
HETATM   28  C   UNL     1       7.012  32.985  63.374  1.00  0.00     0.116 A 
HETATM   29  C   UNL     1       5.458  33.598  64.895  1.00  0.00     0.005 A 
HETATM   30  N   UNL     1       7.655  33.330  64.529  1.00  0.00    -0.350 N 
HETATM   31  C   UNL     1       7.579  32.496  62.154  1.00  0.00     0.291 A 
HETATM   32  H   UNL     1       8.656  33.288  64.673  1.00  0.00     0.166 HD
HETATM   33  C   UNL     1       6.726  33.702  65.480  1.00  0.00     0.044 A 
HETATM   34  C   UNL     1       6.913  34.109  66.806  1.00  0.00     0.030 A 
HETATM   35  C   UNL     1       5.773  34.412  67.557  1.00  0.00     0.002 A 
HETATM   36  C   UNL     1       4.499  34.316  67.002  1.00  0.00     0.001 A 
HETATM   37  C   UNL     1       4.327  33.914  65.673  1.00  0.00     0.014 A 
HETATM   38  O   UNL     1       8.785  32.361  61.980  1.00  0.00    -0.264 OA
ENDBRANCH  23  24
ENDBRANCH   2  23
TORSDOF 7
ENDMDL
MODEL 7
REMARK VINA RESULT:     -10.9      3.716     12.480
REMARK  7 active torsions:
REMARK  status: ('A' for Active; 'I' for Inactive)
REMARK    1  A    between atoms: C_3  and  N_4 
REMARK    2  A    between atoms: N_7  and  C_9 
REMARK    3  A    between atoms: C_9  and  C_10 
REMARK    4  A    between atoms: C_10  and  C_11 
REMARK    5  A    between atoms: C_11  and  N_12 
REMARK       I    between atoms: N_12  and  C_13 
REMARK    6  A    between atoms: C_13  and  C_14 
REMARK    7  A    between atoms: C_14  and  N_15 
ROOT
HETATM    1  N   UNL     1       8.392  29.226  57.051  1.00  0.00    -0.360 N 
HETATM    2  C   UNL     1       8.387  29.006  55.688  1.00  0.00     0.237 C 
HETATM    3  O   UNL     1       9.343  29.335  54.984  1.00  0.00    -0.272 OA
HETATM    4  H   UNL     1       7.563  28.930  57.564  1.00  0.00     0.162 HD
ENDROOT
BRANCH   1   5
HETATM    5  C   UNL     1       9.597  29.613  57.743  1.00  0.00     0.124 C 
BRANCH   5   6
HETATM    6  C   UNL     1       9.473  30.993  58.393  1.00  0.00     0.047 C 
BRANCH   6   7
HETATM    7  C   UNL     1       9.532  30.866  59.909  1.00  0.00     0.236 C 
BRANCH   7   8
HETATM    8  N   UNL     1       8.169  31.046  60.553  1.00  0.00    -0.068 N 
HETATM    9  C   UNL     1       8.207  30.939  62.085  1.00  0.00     0.254 C 
HETATM   10  C   UNL     1       6.848  31.297  62.722  1.00  0.00     0.150 C 
HETATM   11  N   UNL     1       6.444  32.637  62.260  1.00  0.00    -0.377 N 
HETATM   12  C   UNL     1       6.228  32.697  60.806  1.00  0.00     0.150 C 
HETATM   13  C   UNL     1       7.559  32.386  60.092  1.00  0.00     0.254 C 
HETATM   14  H   UNL     1       7.550  30.300  60.209  1.00  0.00     0.280 HD
BRANCH  11  15
HETATM   15  C   UNL     1       5.519  33.277  63.097  1.00  0.00     0.037 A 
HETATM   16  C   UNL     1       5.939  33.807  64.343  1.00  0.00    -0.035 A 
HETATM   17  C   UNL     1       7.368  33.726  64.815  1.00  0.00     0.050 C 
HETATM   18  C   UNL     1       5.009  34.431  65.194  1.00  0.00     0.011 A 
HETATM   19  C   UNL     1       3.678  34.574  64.813  1.00  0.00     0.024 A 
HETATM   20  C   UNL     1       3.267  34.081  63.583  1.00  0.00     0.036 A 
HETATM   21  C   UNL     1       4.172  33.436  62.735  1.00  0.00     0.053 A 
HETATM   22 CL   UNL     1       1.627  34.260  63.096  1.00  0.00    -0.084 Cl
ENDBRANCH  11  15
ENDBRANCH   7   8
ENDBRANCH   6   7
ENDBRANCH   5   6
ENDBRANCH   1   5
BRANCH   2  23
HETATM   23  C   UNL     1       7.075  28.490  55.103  1.00  0.00     0.257 C 
BRANCH  23  24
HETATM   24  N   UNL     1       7.120  27.073  54.758  1.00  0.00    -0.224 N 
HETATM   25  N   UNL     1       7.296  26.759  53.397  1.00  0.00    -0.180 NA
HETATM   26  C   UNL     1       7.505  25.519  53.046  1.00  0.00     0.153 A 
HETATM   27  C   UNL     1       7.523  24.469  54.023  1.00  0.00     0.028 A 
HETATM   28  C   UNL     1       7.296  24.785  55.339  1.00  0.00     0.116 A 
HETATM   29  C   UNL     1       7.757  23.072  53.940  1.00  0.00     0.005 A 
HETATM   30  N   UNL     1       7.358  23.635  56.074  1.00  0.00    -0.350 N 
HETATM   31  C   UNL     1       7.071  26.122  55.798  1.00  0.00     0.291 A 
HETATM   32  H   UNL     1       7.240  23.579  57.078  1.00  0.00     0.166 HD
HETATM   33  C   UNL     1       7.646  22.572  55.243  1.00  0.00     0.044 A 
HETATM   34  C   UNL     1       7.826  21.217  55.548  1.00  0.00     0.030 A 
HETATM   35  C   UNL     1       8.134  20.351  54.494  1.00  0.00     0.002 A 
HETATM   36  C   UNL     1       8.253  20.821  53.188  1.00  0.00     0.001 A 
HETATM   37  C   UNL     1       8.064  22.177  52.896  1.00  0.00     0.014 A 
HETATM   38  O   UNL     1       6.853  26.401  56.972  1.00  0.00    -0.264 OA
ENDBRANCH  23  24
ENDBRANCH   2  23
TORSDOF 7
ENDMDL
MODEL 8
REMARK VINA RESULT:     -10.9      3.830     12.194
REMARK  7 active torsions:
REMARK  status: ('A' for Active; 'I' for Inactive)
REMARK    1  A    between atoms: C_3  and  N_4 
REMARK    2  A    between atoms: N_7  and  C_9 
REMARK    3  A    between atoms: C_9  and  C_10 
REMARK    4  A    between atoms: C_10  and  C_11 
REMARK    5  A    between atoms: C_11  and  N_12 
REMARK       I    between atoms: N_12  and  C_13 
REMARK    6  A    between atoms: C_13  and  C_14 
REMARK    7  A    between atoms: C_14  and  N_15 
ROOT
HETATM    1  N   UNL     1       6.049  30.120  55.703  1.00  0.00    -0.360 N 
HETATM    2  C   UNL     1       6.449  29.036  56.457  1.00  0.00     0.237 C 
HETATM    3  O   UNL     1       5.831  28.697  57.467  1.00  0.00    -0.272 OA
HETATM    4  H   UNL     1       6.614  30.339  54.884  1.00  0.00     0.162 HD
ENDROOT
BRANCH   1   5
HETATM    5  C   UNL     1       4.766  30.746  55.912  1.00  0.00     0.124 C 
BRANCH   5   6
HETATM    6  C   UNL     1       4.869  32.000  56.783  1.00  0.00     0.047 C 
BRANCH   6   7
HETATM    7  C   UNL     1       3.495  32.386  57.311  1.00  0.00     0.236 C 
BRANCH   7   8
HETATM    8  N   UNL     1       3.542  32.826  58.764  1.00  0.00    -0.068 N 
HETATM    9  C   UNL     1       3.661  31.650  59.746  1.00  0.00     0.254 C 
HETATM   10  C   UNL     1       3.881  32.130  61.196  1.00  0.00     0.150 C 
HETATM   11  N   UNL     1       5.059  33.015  61.230  1.00  0.00    -0.377 N 
HETATM   12  C   UNL     1       4.876  34.238  60.432  1.00  0.00     0.150 C 
HETATM   13  C   UNL     1       4.687  33.843  58.953  1.00  0.00     0.254 C 
HETATM   14  H   UNL     1       2.664  33.317  58.979  1.00  0.00     0.280 HD
BRANCH  11  15
HETATM   15  C   UNL     1       5.653  33.129  62.495  1.00  0.00     0.037 A 
HETATM   16  C   UNL     1       7.052  32.947  62.640  1.00  0.00    -0.035 A 
HETATM   17  C   UNL     1       7.952  32.646  61.470  1.00  0.00     0.050 C 
HETATM   18  C   UNL     1       7.647  33.040  63.912  1.00  0.00     0.011 A 
HETATM   19  C   UNL     1       6.886  33.349  65.035  1.00  0.00     0.024 A 
HETATM   20  C   UNL     1       5.520  33.553  64.894  1.00  0.00     0.036 A 
HETATM   21  C   UNL     1       4.908  33.441  63.643  1.00  0.00     0.053 A 
HETATM   22 CL   UNL     1       4.570  33.945  66.274  1.00  0.00    -0.084 Cl
ENDBRANCH  11  15
ENDBRANCH   7   8
ENDBRANCH   6   7
ENDBRANCH   5   6
ENDBRANCH   1   5
BRANCH   2  23
HETATM   23  C   UNL     1       7.777  28.400  56.055  1.00  0.00     0.257 C 
BRANCH  23  24
HETATM   24  N   UNL     1       7.642  27.009  55.634  1.00  0.00    -0.224 N 
HETATM   25  N   UNL     1       7.343  26.786  54.277  1.00  0.00    -0.180 NA
HETATM   26  C   UNL     1       7.367  25.569  53.805  1.00  0.00     0.153 A 
HETATM   27  C   UNL     1       7.663  24.454  54.658  1.00  0.00     0.028 A 
HETATM   28  C   UNL     1       7.901  24.683  55.989  1.00  0.00     0.116 A 
HETATM   29  C   UNL     1       7.794  23.061  54.421  1.00  0.00     0.005 A 
HETATM   30  N   UNL     1       8.152  23.484  56.594  1.00  0.00    -0.350 N 
HETATM   31  C   UNL     1       7.900  25.990  56.574  1.00  0.00     0.291 A 
HETATM   32  H   UNL     1       8.372  23.361  57.575  1.00  0.00     0.166 HD
HETATM   33  C   UNL     1       8.101  22.474  55.655  1.00  0.00     0.044 A 
HETATM   34  C   UNL     1       8.312  21.098  55.804  1.00  0.00     0.030 A 
HETATM   35  C   UNL     1       8.214  20.300  54.659  1.00  0.00     0.002 A 
HETATM   36  C   UNL     1       7.912  20.857  53.418  1.00  0.00     0.001 A 
HETATM   37  C   UNL     1       7.698  22.234  53.285  1.00  0.00     0.014 A 
HETATM   38  O   UNL     1       8.097  26.192  57.767  1.00  0.00    -0.264 OA
ENDBRANCH  23  24
ENDBRANCH   2  23
TORSDOF 7
ENDMDL
MODEL 9
REMARK VINA RESULT:     -10.9      1.953      2.687
REMARK  7 active torsions:
REMARK  status: ('A' for Active; 'I' for Inactive)
REMARK    1  A    between atoms: C_3  and  N_4 
REMARK    2  A    between atoms: N_7  and  C_9 
REMARK    3  A    between atoms: C_9  and  C_10 
REMARK    4  A    between atoms: C_10  and  C_11 
REMARK    5  A    between atoms: C_11  and  N_12 
REMARK       I    between atoms: N_12  and  C_13 
REMARK    6  A    between atoms: C_13  and  C_14 
REMARK    7  A    between atoms: C_14  and  N_15 
ROOT
HETATM    1  N   UNL     1       4.987  31.331  56.187  1.00  0.00    -0.360 N 
HETATM    2  C   UNL     1       3.851  31.414  56.968  1.00  0.00     0.237 C 
HETATM    3  O   UNL     1       2.977  30.549  56.917  1.00  0.00    -0.272 OA
HETATM    4  H   UNL     1       5.663  32.088  56.284  1.00  0.00     0.162 HD
ENDROOT
BRANCH   1   5
HETATM    5  C   UNL     1       5.319  30.123  55.473  1.00  0.00     0.124 C 
BRANCH   5   6
HETATM    6  C   UNL     1       6.586  29.460  56.016  1.00  0.00     0.047 C 
BRANCH   6   7
HETATM    7  C   UNL     1       6.292  28.771  57.341  1.00  0.00     0.236 C 
BRANCH   7   8
HETATM    8  N   UNL     1       6.475  27.266  57.258  1.00  0.00    -0.068 N 
HETATM    9  C   UNL     1       5.502  26.595  56.276  1.00  0.00     0.254 C 
HETATM   10  C   UNL     1       5.822  25.098  56.081  1.00  0.00     0.150 C 
HETATM   11  N   UNL     1       7.229  24.963  55.663  1.00  0.00    -0.377 N 
HETATM   12  C   UNL     1       8.175  25.440  56.684  1.00  0.00     0.150 C 
HETATM   13  C   UNL     1       7.944  26.948  56.910  1.00  0.00     0.254 C 
HETATM   14  H   UNL     1       6.293  26.869  58.189  1.00  0.00     0.280 HD
BRANCH  11  15
HETATM   15  C   UNL     1       7.517  23.762  54.999  1.00  0.00     0.037 A 
HETATM   16  C   UNL     1       7.706  23.756  53.594  1.00  0.00    -0.035 A 
HETATM   17  C   UNL     1       7.625  25.011  52.764  1.00  0.00     0.050 C 
HETATM   18  C   UNL     1       7.974  22.549  52.923  1.00  0.00     0.011 A 
HETATM   19  C   UNL     1       8.097  21.354  53.626  1.00  0.00     0.024 A 
HETATM   20  C   UNL     1       7.939  21.358  55.005  1.00  0.00     0.036 A 
HETATM   21  C   UNL     1       7.648  22.544  55.685  1.00  0.00     0.053 A 
HETATM   22 CL   UNL     1       8.098  19.890  55.886  1.00  0.00    -0.084 Cl
ENDBRANCH  11  15
ENDBRANCH   7   8
ENDBRANCH   6   7
ENDBRANCH   5   6
ENDBRANCH   1   5
BRANCH   2  23
HETATM   23  C   UNL     1       3.681  32.708  57.759  1.00  0.00     0.257 C 
BRANCH  23  24
HETATM   24  N   UNL     1       4.331  32.670  59.066  1.00  0.00    -0.224 N 
HETATM   25  N   UNL     1       5.707  32.373  59.078  1.00  0.00    -0.180 NA
HETATM   26  C   UNL     1       6.377  32.481  60.193  1.00  0.00     0.153 A 
HETATM   27  C   UNL     1       5.724  32.867  61.412  1.00  0.00     0.028 A 
HETATM   28  C   UNL     1       4.372  33.101  61.393  1.00  0.00     0.116 A 
HETATM   29  C   UNL     1       6.192  33.096  62.731  1.00  0.00     0.005 A 
HETATM   30  N   UNL     1       3.978  33.445  62.654  1.00  0.00    -0.350 N 
HETATM   31  C   UNL     1       3.576  33.011  60.207  1.00  0.00     0.291 A 
HETATM   32  H   UNL     1       3.032  33.684  62.924  1.00  0.00     0.166 HD
HETATM   33  C   UNL     1       5.074  33.458  63.493  1.00  0.00     0.044 A 
HETATM   34  C   UNL     1       5.159  33.770  64.855  1.00  0.00     0.030 A 
HETATM   35  C   UNL     1       6.422  33.718  65.454  1.00  0.00     0.002 A 
HETATM   36  C   UNL     1       7.552  33.364  64.720  1.00  0.00     0.001 A 
HETATM   37  C   UNL     1       7.452  33.048  63.360  1.00  0.00     0.014 A 
HETATM   38  O   UNL     1       2.366  33.206  60.193  1.00  0.00    -0.264 OA
ENDBRANCH  23  24
ENDBRANCH   2  23
TORSDOF 7
ENDMDL
MODEL 10
REMARK VINA RESULT:     -10.7      4.327     12.510
REMARK  7 active torsions:
REMARK  status: ('A' for Active; 'I' for Inactive)
REMARK    1  A    between atoms: C_3  and  N_4 
REMARK    2  A    between atoms: N_7  and  C_9 
REMARK    3  A    between atoms: C_9  and  C_10 
REMARK    4  A    between atoms: C_10  and  C_11 
REMARK    5  A    between atoms: C_11  and  N_12 
REMARK       I    between atoms: N_12  and  C_13 
REMARK    6  A    between atoms: C_13  and  C_14 
REMARK    7  A    between atoms: C_14  and  N_15 
ROOT
HETATM    1  N   UNL     1       5.214  28.879  55.035  1.00  0.00    -0.360 N 
HETATM    2  C   UNL     1       5.102  28.123  53.887  1.00  0.00     0.237 C 
HETATM    3  O   UNL     1       4.016  27.669  53.524  1.00  0.00    -0.272 OA
HETATM    4  H   UNL     1       6.147  29.216  55.270  1.00  0.00     0.162 HD
ENDROOT
BRANCH   1   5
HETATM    5  C   UNL     1       4.048  29.380  55.720  1.00  0.00     0.124 C 
BRANCH   5   6
HETATM    6  C   UNL     1       4.403  30.068  57.041  1.00  0.00     0.047 C 
BRANCH   6   7
HETATM    7  C   UNL     1       5.870  30.471  57.045  1.00  0.00     0.236 C 
BRANCH   7   8
HETATM    8  N   UNL     1       6.150  31.604  58.017  1.00  0.00    -0.068 N 
HETATM    9  C   UNL     1       4.970  31.898  58.955  1.00  0.00     0.254 C 
HETATM   10  C   UNL     1       5.341  32.929  60.042  1.00  0.00     0.150 C 
HETATM   11  N   UNL     1       6.532  32.448  60.766  1.00  0.00    -0.377 N 
HETATM   12  C   UNL     1       7.719  32.339  59.903  1.00  0.00     0.150 C 
HETATM   13  C   UNL     1       7.440  31.292  58.805  1.00  0.00     0.254 C 
HETATM   14  H   UNL     1       6.330  32.457  57.473  1.00  0.00     0.280 HD
BRANCH  11  15
HETATM   15  C   UNL     1       6.688  33.004  62.044  1.00  0.00     0.037 A 
HETATM   16  C   UNL     1       7.523  32.367  62.997  1.00  0.00    -0.035 A 
HETATM   17  C   UNL     1       8.279  31.101  62.690  1.00  0.00     0.050 C 
HETATM   18  C   UNL     1       7.664  32.911  64.287  1.00  0.00     0.011 A 
HETATM   19  C   UNL     1       7.024  34.097  64.635  1.00  0.00     0.024 A 
HETATM   20  C   UNL     1       6.226  34.739  63.697  1.00  0.00     0.036 A 
HETATM   21  C   UNL     1       6.055  34.200  62.419  1.00  0.00     0.053 A 
HETATM   22 CL   UNL     1       5.437  36.210  64.112  1.00  0.00    -0.084 Cl
ENDBRANCH  11  15
ENDBRANCH   7   8
ENDBRANCH   6   7
ENDBRANCH   5   6
ENDBRANCH   1   5
BRANCH   2  23
HETATM   23  C   UNL     1       6.415  27.756  53.200  1.00  0.00     0.257 C 
BRANCH  23  24
HETATM   24  N   UNL     1       6.983  26.501  53.683  1.00  0.00    -0.224 N 
HETATM   25  N   UNL     1       7.255  26.420  55.062  1.00  0.00    -0.180 NA
HETATM   26  C   UNL     1       7.611  25.275  55.579  1.00  0.00     0.153 A 
HETATM   27  C   UNL     1       7.760  24.108  54.757  1.00  0.00     0.028 A 
HETATM   28  C   UNL     1       7.542  24.217  53.407  1.00  0.00     0.116 A 
HETATM   29  C   UNL     1       8.089  22.758  55.042  1.00  0.00     0.005 A 
HETATM   30  N   UNL     1       7.746  22.993  52.838  1.00  0.00    -0.350 N 
HETATM   31  C   UNL     1       7.141  25.436  52.772  1.00  0.00     0.291 A 
HETATM   32  H   UNL     1       7.641  22.783  51.853  1.00  0.00     0.166 HD
HETATM   33  C   UNL     1       8.074  22.078  53.818  1.00  0.00     0.044 A 
HETATM   34  C   UNL     1       8.347  20.709  53.714  1.00  0.00     0.030 A 
HETATM   35  C   UNL     1       8.636  20.014  54.893  1.00  0.00     0.002 A 
HETATM   36  C   UNL     1       8.656  20.664  56.124  1.00  0.00     0.001 A 
HETATM   37  C   UNL     1       8.387  22.035  56.214  1.00  0.00     0.014 A 
HETATM   38  O   UNL     1       6.962  25.537  51.563  1.00  0.00    -0.264 OA
ENDBRANCH  23  24
ENDBRANCH   2  23
TORSDOF 7
ENDMDL
