MODEL 1
REMARK VINA RESULT:      -9.7      0.000      0.000
REMARK  6 active torsions:
REMARK  status: ('A' for Active; 'I' for Inactive)
REMARK    1  A    between atoms: O_2  and  C_3 
REMARK    2  A    between atoms: C_4  and  C_5 
REMARK    3  A    between atoms: N_7  and  C_8 
REMARK    4  A    between atoms: C_15  and  C_16 
REMARK       I    between atoms: C_16  and  N_17 
REMARK    5  A    between atoms: N_17  and  N_18 
REMARK       I    between atoms: N_18  and  C_19 
REMARK    6  A    between atoms: C_19  and  C_20 
ROOT
HETATM    1  C   UNL     1       6.122  26.114  52.448  1.00  0.00     0.107 A 
HETATM    2  N   UNL     1       5.311  25.850  51.413  1.00  0.00    -0.166 NA
HETATM    3  N   UNL     1       4.989  27.047  50.883  1.00  0.00    -0.244 N 
HETATM    4  C   UNL     1       5.506  28.078  51.633  1.00  0.00     0.138 A 
HETATM    5  C   UNL     1       6.257  27.520  52.655  1.00  0.00     0.082 A 
ENDROOT
BRANCH   5   6
HETATM    6  C   UNL     1       7.017  28.222  53.681  1.00  0.00     0.274 C 
HETATM    7  N   UNL     1       6.259  28.880  54.632  1.00  0.00    -0.263 N 
HETATM    8  H   UNL     1       5.247  28.824  54.693  1.00  0.00     0.190 HD
HETATM    9  O   UNL     1       8.245  28.230  53.735  1.00  0.00    -0.266 OA
BRANCH   7  10
HETATM   10  N   UNL     1       6.910  29.479  55.718  1.00  0.00    -0.262 N 
HETATM   11  C   UNL     1       6.354  29.351  56.974  1.00  0.00     0.286 C 
HETATM   12  O   UNL     1       5.277  28.779  57.145  1.00  0.00    -0.264 OA
HETATM   13  H   UNL     1       7.825  29.884  55.542  1.00  0.00     0.190 HD
BRANCH  11  14
HETATM   14  C   UNL     1       7.117  29.924  58.060  1.00  0.00     0.102 A 
HETATM   15  N   UNL     1       6.581  30.899  58.877  1.00  0.00    -0.361 N 
HETATM   16  H   UNL     1       5.642  31.268  58.770  1.00  0.00     0.165 HD
HETATM   17  C   UNL     1       7.491  31.282  59.823  1.00  0.00     0.088 A 
HETATM   18  C   UNL     1       8.636  30.547  59.627  1.00  0.00     0.019 A 
HETATM   19  C   UNL     1       8.405  29.693  58.519  1.00  0.00     0.036 A 
ENDBRANCH  11  14
ENDBRANCH   7  10
ENDBRANCH   5   6
BRANCH   1  20
HETATM   20  C   UNL     1       6.710  25.010  53.208  1.00  0.00     0.029 A 
HETATM   21  C   UNL     1       6.427  24.825  54.571  1.00  0.00     0.080 A 
HETATM   22  C   UNL     1       6.984  23.752  55.276  1.00  0.00     0.037 A 
HETATM   23  C   UNL     1       7.860  22.877  54.635  1.00  0.00     0.003 A 
HETATM   24  C   UNL     1       8.171  23.067  53.290  1.00  0.00     0.001 A 
HETATM   25  C   UNL     1       7.600  24.127  52.580  1.00  0.00     0.017 A 
BRANCH  21  26
HETATM   26  O   UNL     1       5.534  25.641  55.221  1.00  0.00    -0.355 OA
HETATM   27  C   UNL     1       5.467  25.290  56.605  1.00  0.00     0.210 C 
ENDBRANCH  21  26
ENDBRANCH   1  20
BRANCH   3  28
HETATM   28  C   UNL     1       4.209  27.132  49.694  1.00  0.00     0.058 A 
HETATM   29  C   UNL     1       4.132  26.019  48.841  1.00  0.00     0.031 A 
HETATM   30  C   UNL     1       3.389  26.083  47.662  1.00  0.00     0.002 A 
HETATM   31  C   UNL     1       2.716  27.255  47.324  1.00  0.00     0.000 A 
HETATM   32  C   UNL     1       2.785  28.365  48.165  1.00  0.00     0.002 A 
HETATM   33  C   UNL     1       3.528  28.308  49.348  1.00  0.00     0.031 A 
ENDBRANCH   3  28
TORSDOF 6
ENDMDL
MODEL 2
REMARK VINA RESULT:      -9.5      2.060      7.798
REMARK  6 active torsions:
REMARK  status: ('A' for Active; 'I' for Inactive)
REMARK    1  A    between atoms: O_2  and  C_3 
REMARK    2  A    between atoms: C_4  and  C_5 
REMARK    3  A    between atoms: N_7  and  C_8 
REMARK    4  A    between atoms: C_15  and  C_16 
REMARK       I    between atoms: C_16  and  N_17 
REMARK    5  A    between atoms: N_17  and  N_18 
REMARK       I    between atoms: N_18  and  C_19 
REMARK    6  A    between atoms: C_19  and  C_20 
ROOT
HETATM    1  C   UNL     1       7.243  25.762  54.690  1.00  0.00     0.107 A 
HETATM    2  N   UNL     1       8.031  26.410  55.560  1.00  0.00    -0.166 NA
HETATM    3  N   UNL     1       7.485  27.633  55.713  1.00  0.00    -0.244 N 
HETATM    4  C   UNL     1       6.412  27.807  54.870  1.00  0.00     0.138 A 
HETATM    5  C   UNL     1       6.211  26.615  54.192  1.00  0.00     0.082 A 
ENDROOT
BRANCH   5   6
HETATM    6  C   UNL     1       5.171  26.315  53.216  1.00  0.00     0.274 C 
HETATM    7  N   UNL     1       5.118  27.166  52.128  1.00  0.00    -0.263 N 
HETATM    8  H   UNL     1       5.795  27.901  51.946  1.00  0.00     0.190 HD
HETATM    9  O   UNL     1       4.395  25.368  53.317  1.00  0.00    -0.266 OA
BRANCH   7  10
HETATM   10  N   UNL     1       4.226  26.877  51.088  1.00  0.00    -0.262 N 
HETATM   11  C   UNL     1       4.509  27.350  49.823  1.00  0.00     0.286 C 
HETATM   12  O   UNL     1       5.488  28.065  49.609  1.00  0.00    -0.264 OA
HETATM   13  H   UNL     1       3.468  26.233  51.296  1.00  0.00     0.190 HD
BRANCH  11  14
HETATM   14  C   UNL     1       3.591  26.949  48.782  1.00  0.00     0.102 A 
HETATM   15  N   UNL     1       2.242  27.232  48.867  1.00  0.00    -0.361 N 
HETATM   16  H   UNL     1       1.820  27.726  49.645  1.00  0.00     0.165 HD
HETATM   17  C   UNL     1       1.584  26.751  47.769  1.00  0.00     0.088 A 
HETATM   18  C   UNL     1       2.512  26.148  46.953  1.00  0.00     0.019 A 
HETATM   19  C   UNL     1       3.774  26.270  47.587  1.00  0.00     0.036 A 
ENDBRANCH  11  14
ENDBRANCH   7  10
ENDBRANCH   5   6
BRANCH   1  20
HETATM   20  C   UNL     1       7.526  24.367  54.354  1.00  0.00     0.029 A 
HETATM   21  C   UNL     1       7.585  23.371  55.343  1.00  0.00     0.080 A 
HETATM   22  C   UNL     1       7.839  22.039  55.000  1.00  0.00     0.037 A 
HETATM   23  C   UNL     1       8.076  21.695  53.670  1.00  0.00     0.003 A 
HETATM   24  C   UNL     1       8.047  22.678  52.683  1.00  0.00     0.001 A 
HETATM   25  C   UNL     1       7.775  24.007  53.022  1.00  0.00     0.017 A 
BRANCH  21  26
HETATM   26  O   UNL     1       7.314  23.668  56.656  1.00  0.00    -0.355 OA
HETATM   27  C   UNL     1       8.477  23.454  57.458  1.00  0.00     0.210 C 
ENDBRANCH  21  26
ENDBRANCH   1  20
BRANCH   3  28
HETATM   28  C   UNL     1       8.021  28.558  56.655  1.00  0.00     0.058 A 
HETATM   29  C   UNL     1       9.356  28.974  56.526  1.00  0.00     0.031 A 
HETATM   30  C   UNL     1       9.908  29.866  57.447  1.00  0.00     0.002 A 
HETATM   31  C   UNL     1       9.135  30.351  58.499  1.00  0.00     0.000 A 
HETATM   32  C   UNL     1       7.808  29.946  58.633  1.00  0.00     0.002 A 
HETATM   33  C   UNL     1       7.248  29.051  57.716  1.00  0.00     0.031 A 
ENDBRANCH   3  28
TORSDOF 6
ENDMDL
MODEL 3
REMARK VINA RESULT:      -9.3      2.559      5.608
REMARK  6 active torsions:
REMARK  status: ('A' for Active; 'I' for Inactive)
REMARK    1  A    between atoms: O_2  and  C_3 
REMARK    2  A    between atoms: C_4  and  C_5 
REMARK    3  A    between atoms: N_7  and  C_8 
REMARK    4  A    between atoms: C_15  and  C_16 
REMARK       I    between atoms: C_16  and  N_17 
REMARK    5  A    between atoms: N_17  and  N_18 
REMARK       I    between atoms: N_18  and  C_19 
REMARK    6  A    between atoms: C_19  and  C_20 
ROOT
HETATM    1  C   UNL     1       6.695  25.898  55.187  1.00  0.00     0.107 A 
HETATM    2  N   UNL     1       6.735  24.814  54.399  1.00  0.00    -0.166 NA
HETATM    3  N   UNL     1       7.612  23.970  54.978  1.00  0.00    -0.244 N 
HETATM    4  C   UNL     1       8.208  24.548  56.074  1.00  0.00     0.138 A 
HETATM    5  C   UNL     1       7.638  25.797  56.255  1.00  0.00     0.082 A 
ENDROOT
BRANCH   5   6
HETATM    6  C   UNL     1       7.931  26.762  57.307  1.00  0.00     0.274 C 
HETATM    7  N   UNL     1       8.485  27.954  56.878  1.00  0.00    -0.263 N 
HETATM    8  H   UNL     1       8.608  28.206  55.902  1.00  0.00     0.190 HD
HETATM    9  O   UNL     1       7.695  26.566  58.497  1.00  0.00    -0.266 OA
BRANCH   7  10
HETATM   10  N   UNL     1       8.686  28.979  57.811  1.00  0.00    -0.262 N 
HETATM   11  C   UNL     1       7.745  29.982  57.905  1.00  0.00     0.286 C 
HETATM   12  O   UNL     1       6.773  30.024  57.150  1.00  0.00    -0.264 OA
HETATM   13  H   UNL     1       9.465  28.870  58.455  1.00  0.00     0.190 HD
BRANCH  11  14
HETATM   14  C   UNL     1       7.973  30.963  58.941  1.00  0.00     0.102 A 
HETATM   15  N   UNL     1       6.965  31.341  59.806  1.00  0.00    -0.361 N 
HETATM   16  H   UNL     1       6.025  30.964  59.771  1.00  0.00     0.165 HD
HETATM   17  C   UNL     1       7.422  32.279  60.690  1.00  0.00     0.088 A 
HETATM   18  C   UNL     1       8.745  32.518  60.403  1.00  0.00     0.019 A 
HETATM   19  C   UNL     1       9.094  31.693  59.304  1.00  0.00     0.036 A 
ENDBRANCH  11  14
ENDBRANCH   7  10
ENDBRANCH   5   6
BRANCH   1  20
HETATM   20  C   UNL     1       5.776  26.991  54.870  1.00  0.00     0.029 A 
HETATM   21  C   UNL     1       5.751  27.584  53.596  1.00  0.00     0.080 A 
HETATM   22  C   UNL     1       4.852  28.616  53.306  1.00  0.00     0.037 A 
HETATM   23  C   UNL     1       3.996  29.093  54.298  1.00  0.00     0.003 A 
HETATM   24  C   UNL     1       4.030  28.533  55.573  1.00  0.00     0.001 A 
HETATM   25  C   UNL     1       4.915  27.489  55.859  1.00  0.00     0.017 A 
BRANCH  21  26
HETATM   26  O   UNL     1       6.550  27.108  52.585  1.00  0.00    -0.355 OA
HETATM   27  C   UNL     1       5.750  26.751  51.456  1.00  0.00     0.210 C 
ENDBRANCH  21  26
ENDBRANCH   1  20
BRANCH   3  28
HETATM   28  C   UNL     1       7.825  22.664  54.449  1.00  0.00     0.058 A 
HETATM   29  C   UNL     1       8.076  21.598  55.328  1.00  0.00     0.031 A 
HETATM   30  C   UNL     1       8.305  20.314  54.832  1.00  0.00     0.002 A 
HETATM   31  C   UNL     1       8.284  20.081  53.459  1.00  0.00     0.000 A 
HETATM   32  C   UNL     1       8.032  21.133  52.579  1.00  0.00     0.002 A 
HETATM   33  C   UNL     1       7.803  22.422  53.067  1.00  0.00     0.031 A 
ENDBRANCH   3  28
TORSDOF 6
ENDMDL
MODEL 4
REMARK VINA RESULT:      -9.1      2.313      7.524
REMARK  6 active torsions:
REMARK  status: ('A' for Active; 'I' for Inactive)
REMARK    1  A    between atoms: O_2  and  C_3 
REMARK    2  A    between atoms: C_4  and  C_5 
REMARK    3  A    between atoms: N_7  and  C_8 
REMARK    4  A    between atoms: C_15  and  C_16 
REMARK       I    between atoms: C_16  and  N_17 
REMARK    5  A    between atoms: N_17  and  N_18 
REMARK       I    between atoms: N_18  and  C_19 
REMARK    6  A    between atoms: C_19  and  C_20 
ROOT
HETATM    1  C   UNL     1       7.088  25.997  55.377  1.00  0.00     0.107 A 
HETATM    2  N   UNL     1       7.505  24.806  55.830  1.00  0.00    -0.166 NA
HETATM    3  N   UNL     1       7.348  23.946  54.804  1.00  0.00    -0.244 N 
HETATM    4  C   UNL     1       6.738  24.557  53.733  1.00  0.00     0.138 A 
HETATM    5  C   UNL     1       6.558  25.892  54.055  1.00  0.00     0.082 A 
ENDROOT
BRANCH   5   6
HETATM    6  C   UNL     1       5.978  26.936  53.220  1.00  0.00     0.274 C 
HETATM    7  N   UNL     1       4.812  26.588  52.562  1.00  0.00    -0.263 N 
HETATM    8  H   UNL     1       4.321  25.709  52.701  1.00  0.00     0.190 HD
HETATM    9  O   UNL     1       6.458  28.061  53.103  1.00  0.00    -0.266 OA
BRANCH   7  10
HETATM   10  N   UNL     1       4.129  27.569  51.834  1.00  0.00    -0.262 N 
HETATM   11  C   UNL     1       4.184  27.529  50.457  1.00  0.00     0.286 C 
HETATM   12  O   UNL     1       4.867  26.692  49.865  1.00  0.00    -0.264 OA
HETATM   13  H   UNL     1       3.529  28.200  52.359  1.00  0.00     0.190 HD
BRANCH  11  14
HETATM   14  C   UNL     1       3.393  28.522  49.766  1.00  0.00     0.102 A 
HETATM   15  N   UNL     1       2.019  28.415  49.686  1.00  0.00    -0.361 N 
HETATM   16  H   UNL     1       1.490  27.653  50.096  1.00  0.00     0.165 HD
HETATM   17  C   UNL     1       1.499  29.468  48.985  1.00  0.00     0.088 A 
HETATM   18  C   UNL     1       2.544  30.276  48.603  1.00  0.00     0.019 A 
HETATM   19  C   UNL     1       3.736  29.684  49.092  1.00  0.00     0.036 A 
ENDBRANCH  11  14
ENDBRANCH   7  10
ENDBRANCH   5   6
BRANCH   1  20
HETATM   20  C   UNL     1       7.190  27.176  56.237  1.00  0.00     0.029 A 
HETATM   21  C   UNL     1       6.049  27.886  56.649  1.00  0.00     0.080 A 
HETATM   22  C   UNL     1       6.166  29.000  57.487  1.00  0.00     0.037 A 
HETATM   23  C   UNL     1       7.427  29.439  57.891  1.00  0.00     0.003 A 
HETATM   24  C   UNL     1       8.567  28.760  57.468  1.00  0.00     0.001 A 
HETATM   25  C   UNL     1       8.451  27.635  56.645  1.00  0.00     0.017 A 
BRANCH  21  26
HETATM   26  O   UNL     1       4.792  27.455  56.305  1.00  0.00    -0.355 OA
HETATM   27  C   UNL     1       3.989  28.563  55.893  1.00  0.00     0.210 C 
ENDBRANCH  21  26
ENDBRANCH   1  20
BRANCH   3  28
HETATM   28  C   UNL     1       7.791  22.596  54.909  1.00  0.00     0.058 A 
HETATM   29  C   UNL     1       7.885  21.810  53.749  1.00  0.00     0.031 A 
HETATM   30  C   UNL     1       8.299  20.480  53.830  1.00  0.00     0.002 A 
HETATM   31  C   UNL     1       8.624  19.923  55.065  1.00  0.00     0.000 A 
HETATM   32  C   UNL     1       8.536  20.697  56.221  1.00  0.00     0.002 A 
HETATM   33  C   UNL     1       8.121  22.029  56.149  1.00  0.00     0.031 A 
ENDBRANCH   3  28
TORSDOF 6
ENDMDL
MODEL 5
REMARK VINA RESULT:      -9.0      2.491      7.853
REMARK  6 active torsions:
REMARK  status: ('A' for Active; 'I' for Inactive)
REMARK    1  A    between atoms: O_2  and  C_3 
REMARK    2  A    between atoms: C_4  and  C_5 
REMARK    3  A    between atoms: N_7  and  C_8 
REMARK    4  A    between atoms: C_15  and  C_16 
REMARK       I    between atoms: C_16  and  N_17 
REMARK    5  A    between atoms: N_17  and  N_18 
REMARK       I    between atoms: N_18  and  C_19 
REMARK    6  A    between atoms: C_19  and  C_20 
ROOT
HETATM    1  C   UNL     1       6.390  26.111  54.480  1.00  0.00     0.107 A 
HETATM    2  N   UNL     1       6.829  24.953  54.996  1.00  0.00    -0.166 NA
HETATM    3  N   UNL     1       6.910  24.095  53.959  1.00  0.00    -0.244 N 
HETATM    4  C   UNL     1       6.429  24.665  52.803  1.00  0.00     0.138 A 
HETATM    5  C   UNL     1       6.088  25.977  53.090  1.00  0.00     0.082 A 
ENDROOT
BRANCH   5   6
HETATM    6  C   UNL     1       5.564  26.979  52.171  1.00  0.00     0.274 C 
HETATM    7  N   UNL     1       4.549  26.544  51.339  1.00  0.00    -0.263 N 
HETATM    8  H   UNL     1       4.115  25.627  51.401  1.00  0.00     0.190 HD
HETATM    9  O   UNL     1       5.962  28.140  52.128  1.00  0.00    -0.266 OA
BRANCH   7  10
HETATM   10  N   UNL     1       3.910  27.474  50.509  1.00  0.00    -0.262 N 
HETATM   11  C   UNL     1       3.986  27.302  49.143  1.00  0.00     0.286 C 
HETATM   12  O   UNL     1       4.649  26.392  48.645  1.00  0.00    -0.264 OA
HETATM   13  H   UNL     1       3.324  28.169  50.962  1.00  0.00     0.190 HD
BRANCH  11  14
HETATM   14  C   UNL     1       3.239  28.251  48.348  1.00  0.00     0.102 A 
HETATM   15  N   UNL     1       3.243  29.598  48.649  1.00  0.00    -0.361 N 
HETATM   16  H   UNL     1       3.756  29.999  49.426  1.00  0.00     0.165 HD
HETATM   17  C   UNL     1       2.465  30.287  47.760  1.00  0.00     0.088 A 
HETATM   18  C   UNL     1       1.947  29.382  46.864  1.00  0.00     0.019 A 
HETATM   19  C   UNL     1       2.431  28.101  47.232  1.00  0.00     0.036 A 
ENDBRANCH  11  14
ENDBRANCH   7  10
ENDBRANCH   5   6
BRANCH   1  20
HETATM   20  C   UNL     1       6.256  27.284  55.343  1.00  0.00     0.029 A 
HETATM   21  C   UNL     1       7.219  28.307  55.348  1.00  0.00     0.080 A 
HETATM   22  C   UNL     1       7.063  29.431  56.167  1.00  0.00     0.037 A 
HETATM   23  C   UNL     1       5.962  29.525  57.018  1.00  0.00     0.003 A 
HETATM   24  C   UNL     1       5.014  28.505  57.042  1.00  0.00     0.001 A 
HETATM   25  C   UNL     1       5.159  27.390  56.211  1.00  0.00     0.017 A 
BRANCH  21  26
HETATM   26  O   UNL     1       8.291  28.266  54.491  1.00  0.00    -0.355 OA
HETATM   27  C   UNL     1       9.344  29.097  54.983  1.00  0.00     0.210 C 
ENDBRANCH  21  26
ENDBRANCH   1  20
BRANCH   3  28
HETATM   28  C   UNL     1       7.441  22.786  54.137  1.00  0.00     0.058 A 
HETATM   29  C   UNL     1       7.553  22.259  55.434  1.00  0.00     0.031 A 
HETATM   30  C   UNL     1       8.087  20.985  55.635  1.00  0.00     0.002 A 
HETATM   31  C   UNL     1       8.511  20.226  54.546  1.00  0.00     0.000 A 
HETATM   32  C   UNL     1       8.401  20.740  53.255  1.00  0.00     0.002 A 
HETATM   33  C   UNL     1       7.869  22.015  53.045  1.00  0.00     0.031 A 
ENDBRANCH   3  28
TORSDOF 6
ENDMDL
MODEL 6
REMARK VINA RESULT:      -9.0      1.959      5.196
REMARK  6 active torsions:
REMARK  status: ('A' for Active; 'I' for Inactive)
REMARK    1  A    between atoms: O_2  and  C_3 
REMARK    2  A    between atoms: C_4  and  C_5 
REMARK    3  A    between atoms: N_7  and  C_8 
REMARK    4  A    between atoms: C_15  and  C_16 
REMARK       I    between atoms: C_16  and  N_17 
REMARK    5  A    between atoms: N_17  and  N_18 
REMARK       I    between atoms: N_18  and  C_19 
REMARK    6  A    between atoms: C_19  and  C_20 
ROOT
HETATM    1  C   UNL     1       6.460  26.042  53.267  1.00  0.00     0.107 A 
HETATM    2  N   UNL     1       6.569  24.734  52.991  1.00  0.00    -0.166 NA
HETATM    3  N   UNL     1       7.391  24.226  53.930  1.00  0.00    -0.244 N 
HETATM    4  C   UNL     1       7.890  25.217  54.743  1.00  0.00     0.138 A 
HETATM    5  C   UNL     1       7.307  26.412  54.357  1.00  0.00     0.082 A 
ENDROOT
BRANCH   5   6
HETATM    6  C   UNL     1       7.508  27.729  54.948  1.00  0.00     0.274 C 
HETATM    7  N   UNL     1       6.811  27.963  56.120  1.00  0.00    -0.263 N 
HETATM    8  H   UNL     1       6.263  27.260  56.606  1.00  0.00     0.190 HD
HETATM    9  O   UNL     1       8.252  28.584  54.474  1.00  0.00    -0.266 OA
BRANCH   7  10
HETATM   10  N   UNL     1       7.040  29.157  56.814  1.00  0.00    -0.262 N 
HETATM   11  C   UNL     1       7.636  29.096  58.056  1.00  0.00     0.286 C 
HETATM   12  O   UNL     1       7.911  28.019  58.584  1.00  0.00    -0.264 OA
HETATM   13  H   UNL     1       6.856  30.023  56.315  1.00  0.00     0.190 HD
BRANCH  11  14
HETATM   14  C   UNL     1       7.915  30.368  58.682  1.00  0.00     0.102 A 
HETATM   15  N   UNL     1       6.954  31.032  59.417  1.00  0.00    -0.361 N 
HETATM   16  H   UNL     1       6.014  30.680  59.561  1.00  0.00     0.165 HD
HETATM   17  C   UNL     1       7.454  32.208  59.904  1.00  0.00     0.088 A 
HETATM   18  C   UNL     1       8.759  32.316  59.486  1.00  0.00     0.019 A 
HETATM   19  C   UNL     1       9.052  31.162  58.717  1.00  0.00     0.036 A 
ENDBRANCH  11  14
ENDBRANCH   7  10
ENDBRANCH   5   6
BRANCH   1  20
HETATM   20  C   UNL     1       5.574  26.883  52.463  1.00  0.00     0.029 A 
HETATM   21  C   UNL     1       4.553  27.647  53.051  1.00  0.00     0.080 A 
HETATM   22  C   UNL     1       3.727  28.460  52.267  1.00  0.00     0.037 A 
HETATM   23  C   UNL     1       3.888  28.486  50.882  1.00  0.00     0.003 A 
HETATM   24  C   UNL     1       4.879  27.712  50.284  1.00  0.00     0.001 A 
HETATM   25  C   UNL     1       5.717  26.914  51.068  1.00  0.00     0.017 A 
BRANCH  21  26
HETATM   26  O   UNL     1       4.396  27.678  54.415  1.00  0.00    -0.355 OA
HETATM   27  C   UNL     1       3.849  28.936  54.817  1.00  0.00     0.210 C 
ENDBRANCH  21  26
ENDBRANCH   1  20
BRANCH   3  28
HETATM   28  C   UNL     1       7.648  22.826  53.992  1.00  0.00     0.058 A 
HETATM   29  C   UNL     1       7.919  22.122  52.807  1.00  0.00     0.031 A 
HETATM   30  C   UNL     1       8.156  20.748  52.842  1.00  0.00     0.002 A 
HETATM   31  C   UNL     1       8.128  20.064  54.055  1.00  0.00     0.000 A 
HETATM   32  C   UNL     1       7.862  20.754  55.237  1.00  0.00     0.002 A 
HETATM   33  C   UNL     1       7.622  22.131  55.211  1.00  0.00     0.031 A 
ENDBRANCH   3  28
TORSDOF 6
ENDMDL
MODEL 7
REMARK VINA RESULT:      -8.8      3.081      7.006
REMARK  6 active torsions:
REMARK  status: ('A' for Active; 'I' for Inactive)
REMARK    1  A    between atoms: O_2  and  C_3 
REMARK    2  A    between atoms: C_4  and  C_5 
REMARK    3  A    between atoms: N_7  and  C_8 
REMARK    4  A    between atoms: C_15  and  C_16 
REMARK       I    between atoms: C_16  and  N_17 
REMARK    5  A    between atoms: N_17  and  N_18 
REMARK       I    between atoms: N_18  and  C_19 
REMARK    6  A    between atoms: C_19  and  C_20 
ROOT
HETATM    1  C   UNL     1       6.269  25.831  54.619  1.00  0.00     0.107 A 
HETATM    2  N   UNL     1       6.844  24.733  55.133  1.00  0.00    -0.166 NA
HETATM    3  N   UNL     1       6.852  23.822  54.139  1.00  0.00    -0.244 N 
HETATM    4  C   UNL     1       6.194  24.294  53.027  1.00  0.00     0.138 A 
HETATM    5  C   UNL     1       5.806  25.598  53.288  1.00  0.00     0.082 A 
ENDROOT
BRANCH   5   6
HETATM    6  C   UNL     1       5.106  26.511  52.394  1.00  0.00     0.274 C 
HETATM    7  N   UNL     1       3.938  27.054  52.898  1.00  0.00    -0.263 N 
HETATM    8  H   UNL     1       3.612  26.918  53.851  1.00  0.00     0.190 HD
HETATM    9  O   UNL     1       5.510  26.811  51.273  1.00  0.00    -0.266 OA
BRANCH   7  10
HETATM   10  N   UNL     1       3.269  28.029  52.150  1.00  0.00    -0.262 N 
HETATM   11  C   UNL     1       3.325  29.341  52.572  1.00  0.00     0.286 C 
HETATM   12  O   UNL     1       3.896  29.655  53.617  1.00  0.00    -0.264 OA
HETATM   13  H   UNL     1       2.867  27.736  51.264  1.00  0.00     0.190 HD
BRANCH  11  14
HETATM   14  C   UNL     1       2.681  30.307  51.712  1.00  0.00     0.102 A 
HETATM   15  N   UNL     1       1.625  29.950  50.898  1.00  0.00    -0.361 N 
HETATM   16  H   UNL     1       1.242  29.012  50.853  1.00  0.00     0.165 HD
HETATM   17  C   UNL     1       1.189  31.031  50.182  1.00  0.00     0.088 A 
HETATM   18  C   UNL     1       1.967  32.109  50.531  1.00  0.00     0.019 A 
HETATM   19  C   UNL     1       2.906  31.657  51.492  1.00  0.00     0.036 A 
ENDBRANCH  11  14
ENDBRANCH   7  10
ENDBRANCH   5   6
BRANCH   1  20
HETATM   20  C   UNL     1       6.165  27.042  55.432  1.00  0.00     0.029 A 
HETATM   21  C   UNL     1       7.075  28.103  55.290  1.00  0.00     0.080 A 
HETATM   22  C   UNL     1       6.948  29.262  56.063  1.00  0.00     0.037 A 
HETATM   23  C   UNL     1       5.933  29.356  57.014  1.00  0.00     0.003 A 
HETATM   24  C   UNL     1       5.041  28.300  57.185  1.00  0.00     0.001 A 
HETATM   25  C   UNL     1       5.155  27.149  56.400  1.00  0.00     0.017 A 
BRANCH  21  26
HETATM   26  O   UNL     1       8.058  28.061  54.332  1.00  0.00    -0.355 OA
HETATM   27  C   UNL     1       9.181  28.842  54.747  1.00  0.00     0.210 C 
ENDBRANCH  21  26
ENDBRANCH   1  20
BRANCH   3  28
HETATM   28  C   UNL     1       7.487  22.559  54.314  1.00  0.00     0.058 A 
HETATM   29  C   UNL     1       7.896  21.833  53.183  1.00  0.00     0.031 A 
HETATM   30  C   UNL     1       8.504  20.585  53.328  1.00  0.00     0.002 A 
HETATM   31  C   UNL     1       8.711  20.053  54.598  1.00  0.00     0.000 A 
HETATM   32  C   UNL     1       8.312  20.768  55.726  1.00  0.00     0.002 A 
HETATM   33  C   UNL     1       7.701  22.017  55.590  1.00  0.00     0.031 A 
ENDBRANCH   3  28
TORSDOF 6
ENDMDL
MODEL 8
REMARK VINA RESULT:      -8.7      3.699      9.929
REMARK  6 active torsions:
REMARK  status: ('A' for Active; 'I' for Inactive)
REMARK    1  A    between atoms: O_2  and  C_3 
REMARK    2  A    between atoms: C_4  and  C_5 
REMARK    3  A    between atoms: N_7  and  C_8 
REMARK    4  A    between atoms: C_15  and  C_16 
REMARK       I    between atoms: C_16  and  N_17 
REMARK    5  A    between atoms: N_17  and  N_18 
REMARK       I    between atoms: N_18  and  C_19 
REMARK    6  A    between atoms: C_19  and  C_20 
ROOT
HETATM    1  C   UNL     1       7.659  31.448  59.267  1.00  0.00     0.107 A 
HETATM    2  N   UNL     1       7.903  31.737  60.554  1.00  0.00    -0.166 NA
HETATM    3  N   UNL     1       6.776  32.308  61.023  1.00  0.00    -0.244 N 
HETATM    4  C   UNL     1       5.851  32.480  60.020  1.00  0.00     0.138 A 
HETATM    5  C   UNL     1       6.376  31.928  58.863  1.00  0.00     0.082 A 
ENDROOT
BRANCH   5   6
HETATM    6  C   UNL     1       5.744  31.848  57.553  1.00  0.00     0.274 C 
HETATM    7  N   UNL     1       5.290  30.593  57.191  1.00  0.00    -0.263 N 
HETATM    8  H   UNL     1       5.299  29.785  57.807  1.00  0.00     0.190 HD
HETATM    9  O   UNL     1       5.594  32.814  56.807  1.00  0.00    -0.266 OA
BRANCH   7  10
HETATM   10  N   UNL     1       4.566  30.454  56.000  1.00  0.00    -0.262 N 
HETATM   11  C   UNL     1       5.092  29.670  54.995  1.00  0.00     0.286 C 
HETATM   12  O   UNL     1       6.201  29.146  55.102  1.00  0.00    -0.264 OA
HETATM   13  H   UNL     1       3.630  30.849  55.980  1.00  0.00     0.190 HD
BRANCH  11  14
HETATM   14  C   UNL     1       4.258  29.504  53.826  1.00  0.00     0.102 A 
HETATM   15  N   UNL     1       3.918  30.579  53.029  1.00  0.00    -0.361 N 
HETATM   16  H   UNL     1       4.224  31.529  53.208  1.00  0.00     0.165 HD
HETATM   17  C   UNL     1       3.126  30.172  51.992  1.00  0.00     0.088 A 
HETATM   18  C   UNL     1       2.945  28.814  52.108  1.00  0.00     0.019 A 
HETATM   19  C   UNL     1       3.655  28.391  53.260  1.00  0.00     0.036 A 
ENDBRANCH  11  14
ENDBRANCH   7  10
ENDBRANCH   5   6
BRANCH   1  20
HETATM   20  C   UNL     1       8.673  30.750  58.476  1.00  0.00     0.029 A 
HETATM   21  C   UNL     1       8.459  29.449  57.991  1.00  0.00     0.080 A 
HETATM   22  C   UNL     1       9.433  28.805  57.220  1.00  0.00     0.037 A 
HETATM   23  C   UNL     1      10.646  29.441  56.959  1.00  0.00     0.003 A 
HETATM   24  C   UNL     1      10.881  30.720  57.456  1.00  0.00     0.001 A 
HETATM   25  C   UNL     1       9.902  31.372  58.211  1.00  0.00     0.017 A 
BRANCH  21  26
HETATM   26  O   UNL     1       7.259  28.813  58.193  1.00  0.00    -0.355 OA
HETATM   27  C   UNL     1       7.340  27.458  57.746  1.00  0.00     0.210 C 
ENDBRANCH  21  26
ENDBRANCH   1  20
BRANCH   3  28
HETATM   28  C   UNL     1       6.653  32.654  62.400  1.00  0.00     0.058 A 
HETATM   29  C   UNL     1       5.374  32.833  62.952  1.00  0.00     0.031 A 
HETATM   30  C   UNL     1       5.229  33.189  64.294  1.00  0.00     0.002 A 
HETATM   31  C   UNL     1       6.354  33.367  65.095  1.00  0.00     0.000 A 
HETATM   32  C   UNL     1       7.627  33.189  64.556  1.00  0.00     0.002 A 
HETATM   33  C   UNL     1       7.782  32.834  63.213  1.00  0.00     0.031 A 
ENDBRANCH   3  28
TORSDOF 6
ENDMDL
MODEL 9
REMARK VINA RESULT:      -8.4      3.108      6.271
REMARK  6 active torsions:
REMARK  status: ('A' for Active; 'I' for Inactive)
REMARK    1  A    between atoms: O_2  and  C_3 
REMARK    2  A    between atoms: C_4  and  C_5 
REMARK    3  A    between atoms: N_7  and  C_8 
REMARK    4  A    between atoms: C_15  and  C_16 
REMARK       I    between atoms: C_16  and  N_17 
REMARK    5  A    between atoms: N_17  and  N_18 
REMARK       I    between atoms: N_18  and  C_19 
REMARK    6  A    between atoms: C_19  and  C_20 
ROOT
HETATM    1  C   UNL     1       5.356  26.562  51.619  1.00  0.00     0.107 A 
HETATM    2  N   UNL     1       6.169  25.510  51.799  1.00  0.00    -0.166 NA
HETATM    3  N   UNL     1       6.171  25.268  53.125  1.00  0.00    -0.244 N 
HETATM    4  C   UNL     1       5.447  26.220  53.805  1.00  0.00     0.138 A 
HETATM    5  C   UNL     1       4.892  27.076  52.868  1.00  0.00     0.082 A 
ENDROOT
BRANCH   5   6
HETATM    6  C   UNL     1       4.022  28.218  53.117  1.00  0.00     0.274 C 
HETATM    7  N   UNL     1       4.633  29.309  53.708  1.00  0.00    -0.263 N 
HETATM    8  H   UNL     1       5.631  29.376  53.886  1.00  0.00     0.190 HD
HETATM    9  O   UNL     1       2.831  28.247  52.816  1.00  0.00    -0.266 OA
BRANCH   7  10
HETATM   10  N   UNL     1       3.896  30.488  53.873  1.00  0.00    -0.262 N 
HETATM   11  C   UNL     1       3.390  30.783  55.121  1.00  0.00     0.286 C 
HETATM   12  O   UNL     1       3.520  30.006  56.067  1.00  0.00    -0.264 OA
HETATM   13  H   UNL     1       3.868  31.129  53.084  1.00  0.00     0.190 HD
BRANCH  11  14
HETATM   14  C   UNL     1       2.709  32.052  55.240  1.00  0.00     0.102 A 
HETATM   15  N   UNL     1       1.574  32.329  54.504  1.00  0.00    -0.361 N 
HETATM   16  H   UNL     1       1.156  31.677  53.850  1.00  0.00     0.165 HD
HETATM   17  C   UNL     1       1.118  33.586  54.787  1.00  0.00     0.088 A 
HETATM   18  C   UNL     1       1.960  34.140  55.721  1.00  0.00     0.019 A 
HETATM   19  C   UNL     1       2.962  33.179  56.007  1.00  0.00     0.036 A 
ENDBRANCH  11  14
ENDBRANCH   7  10
ENDBRANCH   5   6
BRANCH   1  20
HETATM   20  C   UNL     1       5.082  27.044  50.266  1.00  0.00     0.029 A 
HETATM   21  C   UNL     1       5.360  28.368  49.887  1.00  0.00     0.080 A 
HETATM   22  C   UNL     1       5.108  28.804  48.581  1.00  0.00     0.037 A 
HETATM   23  C   UNL     1       4.539  27.933  47.653  1.00  0.00     0.003 A 
HETATM   24  C   UNL     1       4.233  26.626  48.025  1.00  0.00     0.001 A 
HETATM   25  C   UNL     1       4.502  26.183  49.323  1.00  0.00     0.017 A 
BRANCH  21  26
HETATM   26  O   UNL     1       5.961  29.237  50.763  1.00  0.00    -0.355 OA
HETATM   27  C   UNL     1       5.591  30.582  50.450  1.00  0.00     0.210 C 
ENDBRANCH  21  26
ENDBRANCH   1  20
BRANCH   3  28
HETATM   28  C   UNL     1       6.863  24.143  53.659  1.00  0.00     0.058 A 
HETATM   29  C   UNL     1       7.598  23.314  52.796  1.00  0.00     0.031 A 
HETATM   30  C   UNL     1       8.269  22.196  53.294  1.00  0.00     0.002 A 
HETATM   31  C   UNL     1       8.216  21.898  54.653  1.00  0.00     0.000 A 
HETATM   32  C   UNL     1       7.492  22.717  55.518  1.00  0.00     0.002 A 
HETATM   33  C   UNL     1       6.815  23.837  55.027  1.00  0.00     0.031 A 
ENDBRANCH   3  28
TORSDOF 6
ENDMDL
MODEL 10
REMARK VINA RESULT:      -8.3      2.707      7.550
REMARK  6 active torsions:
REMARK  status: ('A' for Active; 'I' for Inactive)
REMARK    1  A    between atoms: O_2  and  C_3 
REMARK    2  A    between atoms: C_4  and  C_5 
REMARK    3  A    between atoms: N_7  and  C_8 
REMARK    4  A    between atoms: C_15  and  C_16 
REMARK       I    between atoms: C_16  and  N_17 
REMARK    5  A    between atoms: N_17  and  N_18 
REMARK       I    between atoms: N_18  and  C_19 
REMARK    6  A    between atoms: C_19  and  C_20 
ROOT
HETATM    1  C   UNL     1       5.644  27.431  54.957  1.00  0.00     0.107 A 
HETATM    2  N   UNL     1       6.225  26.279  55.324  1.00  0.00    -0.166 NA
HETATM    3  N   UNL     1       6.194  25.487  54.234  1.00  0.00    -0.244 N 
HETATM    4  C   UNL     1       5.507  26.085  53.204  1.00  0.00     0.138 A 
HETATM    5  C   UNL     1       5.138  27.353  53.624  1.00  0.00     0.082 A 
ENDROOT
BRANCH   5   6
HETATM    6  C   UNL     1       4.419  28.365  52.861  1.00  0.00     0.274 C 
HETATM    7  N   UNL     1       3.145  28.010  52.461  1.00  0.00    -0.263 N 
HETATM    8  H   UNL     1       2.680  27.150  52.739  1.00  0.00     0.190 HD
HETATM    9  O   UNL     1       4.880  29.473  52.594  1.00  0.00    -0.266 OA
BRANCH   7  10
HETATM   10  N   UNL     1       2.344  28.968  51.827  1.00  0.00    -0.262 N 
HETATM   11  C   UNL     1       2.289  28.977  50.449  1.00  0.00     0.286 C 
HETATM   12  O   UNL     1       2.971  28.206  49.774  1.00  0.00    -0.264 OA
HETATM   13  H   UNL     1       1.751  29.540  52.422  1.00  0.00     0.190 HD
BRANCH  11  14
HETATM   14  C   UNL     1       1.383  29.938  49.862  1.00  0.00     0.102 A 
HETATM   15  N   UNL     1       0.630  30.787  50.649  1.00  0.00    -0.361 N 
HETATM   16  H   UNL     1       0.663  30.791  51.662  1.00  0.00     0.165 HD
HETATM   17  C   UNL     1      -0.147  31.597  49.867  1.00  0.00     0.088 A 
HETATM   18  C   UNL     1       0.101  31.277  48.553  1.00  0.00     0.019 A 
HETATM   19  C   UNL     1       1.061  30.234  48.547  1.00  0.00     0.036 A 
ENDBRANCH  11  14
ENDBRANCH   7  10
ENDBRANCH   5   6
BRANCH   1  20
HETATM   20  C   UNL     1       5.576  28.543  55.905  1.00  0.00     0.029 A 
HETATM   21  C   UNL     1       6.730  29.236  56.307  1.00  0.00     0.080 A 
HETATM   22  C   UNL     1       6.642  30.310  57.201  1.00  0.00     0.037 A 
HETATM   23  C   UNL     1       5.406  30.675  57.730  1.00  0.00     0.003 A 
HETATM   24  C   UNL     1       4.258  29.978  57.361  1.00  0.00     0.001 A 
HETATM   25  C   UNL     1       4.342  28.917  56.454  1.00  0.00     0.017 A 
BRANCH  21  26
HETATM   26  O   UNL     1       7.956  28.930  55.771  1.00  0.00    -0.355 OA
HETATM   27  C   UNL     1       8.900  28.680  56.815  1.00  0.00     0.210 C 
ENDBRANCH  21  26
ENDBRANCH   1  20
BRANCH   3  28
HETATM   28  C   UNL     1       6.823  24.208  54.244  1.00  0.00     0.058 A 
HETATM   29  C   UNL     1       7.186  23.611  53.026  1.00  0.00     0.031 A 
HETATM   30  C   UNL     1       7.787  22.351  53.009  1.00  0.00     0.002 A 
HETATM   31  C   UNL     1       8.033  21.679  54.204  1.00  0.00     0.000 A 
HETATM   32  C   UNL     1       7.679  22.265  55.418  1.00  0.00     0.002 A 
HETATM   33  C   UNL     1       7.075  23.526  55.444  1.00  0.00     0.031 A 
ENDBRANCH   3  28
TORSDOF 6
ENDMDL
