MODEL 1
REMARK VINA RESULT:     -10.5      0.000      0.000
REMARK  7 active torsions:
REMARK  status: ('A' for Active; 'I' for Inactive)
REMARK    1  A    between atoms: C_5  and  C_6 
REMARK    2  A    between atoms: C_9  and  C_10 
REMARK       I    between atoms: C_10  and  N_11 
REMARK    3  A    between atoms: N_11  and  N_12 
REMARK       I    between atoms: N_12  and  C_13 
REMARK    4  A    between atoms: C_13  and  C_14 
REMARK    5  A    between atoms: C_14  and  N_15 
REMARK    6  A    between atoms: N_15  and  C_16 
REMARK    7  A    between atoms: C_18  and  O_19 
ROOT
HETATM    1  C   UNL     1       8.093  28.533  57.293  1.00  0.00     0.289 C 
HETATM    2  N   UNL     1       7.263  29.129  58.226  1.00  0.00    -0.262 N 
HETATM    3  O   UNL     1       9.303  28.745  57.241  1.00  0.00    -0.264 OA
HETATM    4  H   UNL     1       6.336  28.730  58.373  1.00  0.00     0.190 HD
ENDROOT
BRANCH   2   5
HETATM    5  N   UNL     1       7.860  29.821  59.292  1.00  0.00    -0.266 N 
HETATM    6  C   UNL     1       7.604  31.178  59.400  1.00  0.00     0.253 C 
HETATM    7  O   UNL     1       7.093  31.843  58.497  1.00  0.00    -0.270 OA
HETATM    8  H   UNL     1       8.008  29.266  60.133  1.00  0.00     0.190 HD
BRANCH   6   9
HETATM    9  C   UNL     1       8.051  31.795  60.731  1.00  0.00     0.224 C 
BRANCH   9  10
HETATM   10  N   UNL     1       7.218  31.265  61.811  1.00  0.00    -0.381 N 
HETATM   11  H   UNL     1       7.486  30.308  62.052  1.00  0.00     0.160 HD
BRANCH  10  12
HETATM   12  C   UNL     1       6.926  32.044  62.932  1.00  0.00     0.030 A 
HETATM   13  C   UNL     1       5.576  32.309  63.222  1.00  0.00     0.065 A 
HETATM   14  C   UNL     1       5.203  33.152  64.272  1.00  0.00     0.070 A 
HETATM   15  C   UNL     1       6.195  33.767  65.036  1.00  0.00     0.037 A 
HETATM   16  C   UNL     1       7.539  33.549  64.744  1.00  0.00     0.005 A 
HETATM   17  C   UNL     1       7.899  32.704  63.691  1.00  0.00     0.029 A 
BRANCH  14  18
HETATM   18  O   UNL     1       3.923  33.463  64.642  1.00  0.00    -0.356 OA
HETATM   19  C   UNL     1       3.769  34.475  65.630  1.00  0.00     0.210 C 
ENDBRANCH  14  18
ENDBRANCH  10  12
ENDBRANCH   9  10
ENDBRANCH   6   9
ENDBRANCH   2   5
BRANCH   1  20
HETATM   20  C   UNL     1       7.388  27.637  56.378  1.00  0.00     0.134 A 
HETATM   21  C   UNL     1       6.139  27.902  55.855  1.00  0.00     0.089 A 
HETATM   22  S   UNL     1       5.632  26.613  54.856  1.00  0.00    -0.079 SA
HETATM   23  C   UNL     1       7.093  25.758  55.197  1.00  0.00     0.108 A 
HETATM   24  N   UNL     1       7.938  26.419  55.972  1.00  0.00    -0.235 NA
BRANCH  23  25
HETATM   25  C   UNL     1       7.351  24.406  54.657  1.00  0.00    -0.000 A 
HETATM   26  C   UNL     1       7.439  23.257  55.460  1.00  0.00     0.015 A 
HETATM   27  C   UNL     1       7.716  22.002  54.902  1.00  0.00     0.007 A 
HETATM   28  C   UNL     1       7.921  21.865  53.527  1.00  0.00    -0.062 A 
HETATM   29  C   UNL     1       8.213  20.525  52.921  1.00  0.00     0.048 C 
HETATM   30  C   UNL     1       7.827  22.998  52.715  1.00  0.00     0.007 A 
HETATM   31  C   UNL     1       7.550  24.250  53.274  1.00  0.00     0.015 A 
ENDBRANCH  23  25
ENDBRANCH   1  20
TORSDOF 7
ENDMDL
MODEL 2
REMARK VINA RESULT:      -9.6      1.431      1.775
REMARK  7 active torsions:
REMARK  status: ('A' for Active; 'I' for Inactive)
REMARK    1  A    between atoms: C_5  and  C_6 
REMARK    2  A    between atoms: C_9  and  C_10 
REMARK       I    between atoms: C_10  and  N_11 
REMARK    3  A    between atoms: N_11  and  N_12 
REMARK       I    between atoms: N_12  and  C_13 
REMARK    4  A    between atoms: C_13  and  C_14 
REMARK    5  A    between atoms: C_14  and  N_15 
REMARK    6  A    between atoms: N_15  and  C_16 
REMARK    7  A    between atoms: C_18  and  O_19 
ROOT
HETATM    1  C   UNL     1       5.904  28.866  56.002  1.00  0.00     0.289 C 
HETATM    2  N   UNL     1       6.467  28.516  57.215  1.00  0.00    -0.262 N 
HETATM    3  O   UNL     1       5.244  29.891  55.841  1.00  0.00    -0.264 OA
HETATM    4  H   UNL     1       7.194  27.800  57.222  1.00  0.00     0.190 HD
ENDROOT
BRANCH   2   5
HETATM    5  N   UNL     1       6.480  29.478  58.239  1.00  0.00    -0.266 N 
HETATM    6  C   UNL     1       7.713  29.893  58.714  1.00  0.00     0.253 C 
HETATM    7  O   UNL     1       8.766  29.304  58.464  1.00  0.00    -0.270 OA
HETATM    8  H   UNL     1       5.698  30.130  58.222  1.00  0.00     0.190 HD
BRANCH   6   9
HETATM    9  C   UNL     1       7.651  31.134  59.614  1.00  0.00     0.224 C 
BRANCH   9  10
HETATM   10  N   UNL     1       8.016  30.757  60.980  1.00  0.00    -0.381 N 
HETATM   11  H   UNL     1       9.011  30.535  61.051  1.00  0.00     0.160 HD
BRANCH  10  12
HETATM   12  C   UNL     1       7.545  31.491  62.070  1.00  0.00     0.030 A 
HETATM   13  C   UNL     1       6.155  31.642  62.217  1.00  0.00     0.065 A 
HETATM   14  C   UNL     1       5.606  32.435  63.230  1.00  0.00     0.070 A 
HETATM   15  C   UNL     1       6.459  33.113  64.100  1.00  0.00     0.037 A 
HETATM   16  C   UNL     1       7.840  33.008  63.951  1.00  0.00     0.005 A 
HETATM   17  C   UNL     1       8.376  32.213  62.934  1.00  0.00     0.029 A 
BRANCH  14  18
HETATM   18  O   UNL     1       4.273  32.636  63.464  1.00  0.00    -0.356 OA
HETATM   19  C   UNL     1       3.558  33.389  62.493  1.00  0.00     0.210 C 
ENDBRANCH  14  18
ENDBRANCH  10  12
ENDBRANCH   9  10
ENDBRANCH   6   9
ENDBRANCH   2   5
BRANCH   1  20
HETATM   20  C   UNL     1       6.165  27.896  54.939  1.00  0.00     0.134 A 
HETATM   21  C   UNL     1       5.985  28.160  53.598  1.00  0.00     0.089 A 
HETATM   22  S   UNL     1       6.363  26.779  52.668  1.00  0.00    -0.079 SA
HETATM   23  C   UNL     1       6.718  25.892  54.106  1.00  0.00     0.108 A 
HETATM   24  N   UNL     1       6.613  26.602  55.218  1.00  0.00    -0.235 NA
BRANCH  23  25
HETATM   25  C   UNL     1       7.105  24.465  54.070  1.00  0.00    -0.000 A 
HETATM   26  C   UNL     1       7.106  23.637  55.203  1.00  0.00     0.015 A 
HETATM   27  C   UNL     1       7.511  22.298  55.122  1.00  0.00     0.007 A 
HETATM   28  C   UNL     1       7.932  21.755  53.906  1.00  0.00    -0.062 A 
HETATM   29  C   UNL     1       8.361  20.322  53.808  1.00  0.00     0.048 C 
HETATM   30  C   UNL     1       7.925  22.566  52.768  1.00  0.00     0.007 A 
HETATM   31  C   UNL     1       7.521  23.903  52.851  1.00  0.00     0.015 A 
ENDBRANCH  23  25
ENDBRANCH   1  20
TORSDOF 7
ENDMDL
MODEL 3
REMARK VINA RESULT:      -9.6      2.600     11.668
REMARK  7 active torsions:
REMARK  status: ('A' for Active; 'I' for Inactive)
REMARK    1  A    between atoms: C_5  and  C_6 
REMARK    2  A    between atoms: C_9  and  C_10 
REMARK       I    between atoms: C_10  and  N_11 
REMARK    3  A    between atoms: N_11  and  N_12 
REMARK       I    between atoms: N_12  and  C_13 
REMARK    4  A    between atoms: C_13  and  C_14 
REMARK    5  A    between atoms: C_14  and  N_15 
REMARK    6  A    between atoms: N_15  and  C_16 
REMARK    7  A    between atoms: C_18  and  O_19 
ROOT
HETATM    1  C   UNL     1       7.466  30.343  58.356  1.00  0.00     0.289 C 
HETATM    2  N   UNL     1       8.406  29.601  57.664  1.00  0.00    -0.262 N 
HETATM    3  O   UNL     1       6.327  30.539  57.936  1.00  0.00    -0.264 OA
HETATM    4  H   UNL     1       9.229  29.273  58.169  1.00  0.00     0.190 HD
ENDROOT
BRANCH   2   5
HETATM    5  N   UNL     1       7.973  28.857  56.554  1.00  0.00    -0.266 N 
HETATM    6  C   UNL     1       7.838  27.487  56.713  1.00  0.00     0.253 C 
HETATM    7  O   UNL     1       8.298  26.870  57.676  1.00  0.00    -0.270 OA
HETATM    8  H   UNL     1       7.352  29.356  55.921  1.00  0.00     0.190 HD
BRANCH   6   9
HETATM    9  C   UNL     1       7.098  26.794  55.562  1.00  0.00     0.224 C 
BRANCH   9  10
HETATM   10  N   UNL     1       6.931  25.376  55.881  1.00  0.00    -0.381 N 
HETATM   11  H   UNL     1       6.048  25.204  56.366  1.00  0.00     0.160 HD
BRANCH  10  12
HETATM   12  C   UNL     1       7.229  24.394  54.934  1.00  0.00     0.030 A 
HETATM   13  C   UNL     1       7.328  23.061  55.370  1.00  0.00     0.065 A 
HETATM   14  C   UNL     1       7.710  22.033  54.502  1.00  0.00     0.070 A 
HETATM   15  C   UNL     1       8.023  22.340  53.179  1.00  0.00     0.037 A 
HETATM   16  C   UNL     1       7.967  23.659  52.734  1.00  0.00     0.005 A 
HETATM   17  C   UNL     1       7.586  24.678  53.611  1.00  0.00     0.029 A 
BRANCH  14  18
HETATM   18  O   UNL     1       7.825  20.707  54.823  1.00  0.00    -0.356 OA
HETATM   19  C   UNL     1       8.368  20.403  56.102  1.00  0.00     0.210 C 
ENDBRANCH  14  18
ENDBRANCH  10  12
ENDBRANCH   9  10
ENDBRANCH   6   9
ENDBRANCH   2   5
BRANCH   1  20
HETATM   20  C   UNL     1       7.963  30.870  59.625  1.00  0.00     0.134 A 
HETATM   21  C   UNL     1       9.280  30.788  60.028  1.00  0.00     0.089 A 
HETATM   22  S   UNL     1       9.469  31.485  61.575  1.00  0.00    -0.079 SA
HETATM   23  C   UNL     1       7.780  31.834  61.638  1.00  0.00     0.108 A 
HETATM   24  N   UNL     1       7.117  31.498  60.543  1.00  0.00    -0.235 NA
BRANCH  23  25
HETATM   25  C   UNL     1       7.154  32.456  62.825  1.00  0.00    -0.000 A 
HETATM   26  C   UNL     1       7.888  32.949  63.916  1.00  0.00     0.015 A 
HETATM   27  C   UNL     1       7.245  33.503  65.031  1.00  0.00     0.007 A 
HETATM   28  C   UNL     1       5.851  33.569  65.088  1.00  0.00    -0.062 A 
HETATM   29  C   UNL     1       5.155  34.164  66.275  1.00  0.00     0.048 C 
HETATM   30  C   UNL     1       5.109  33.092  64.004  1.00  0.00     0.007 A 
HETATM   31  C   UNL     1       5.753  32.539  62.892  1.00  0.00     0.015 A 
ENDBRANCH  23  25
ENDBRANCH   1  20
TORSDOF 7
ENDMDL
MODEL 4
REMARK VINA RESULT:      -9.5      2.698      3.795
REMARK  7 active torsions:
REMARK  status: ('A' for Active; 'I' for Inactive)
REMARK    1  A    between atoms: C_5  and  C_6 
REMARK    2  A    between atoms: C_9  and  C_10 
REMARK       I    between atoms: C_10  and  N_11 
REMARK    3  A    between atoms: N_11  and  N_12 
REMARK       I    between atoms: N_12  and  C_13 
REMARK    4  A    between atoms: C_13  and  C_14 
REMARK    5  A    between atoms: C_14  and  N_15 
REMARK    6  A    between atoms: N_15  and  C_16 
REMARK    7  A    between atoms: C_18  and  O_19 
ROOT
HETATM    1  C   UNL     1       6.432  29.414  55.738  1.00  0.00     0.289 C 
HETATM    2  N   UNL     1       5.455  30.392  55.693  1.00  0.00    -0.262 N 
HETATM    3  O   UNL     1       7.466  29.531  56.393  1.00  0.00    -0.264 OA
HETATM    4  H   UNL     1       4.532  30.137  55.342  1.00  0.00     0.190 HD
ENDROOT
BRANCH   2   5
HETATM    5  N   UNL     1       5.543  31.454  56.607  1.00  0.00    -0.266 N 
HETATM    6  C   UNL     1       4.817  31.351  57.783  1.00  0.00     0.253 C 
HETATM    7  O   UNL     1       3.932  30.512  57.958  1.00  0.00    -0.270 OA
HETATM    8  H   UNL     1       6.433  31.949  56.604  1.00  0.00     0.190 HD
BRANCH   6   9
HETATM    9  C   UNL     1       5.184  32.402  58.839  1.00  0.00     0.224 C 
BRANCH   9  10
HETATM   10  N   UNL     1       5.684  31.727  60.036  1.00  0.00    -0.381 N 
HETATM   11  H   UNL     1       5.363  30.758  60.079  1.00  0.00     0.160 HD
BRANCH  10  12
HETATM   12  C   UNL     1       7.014  31.876  60.434  1.00  0.00     0.030 A 
HETATM   13  C   UNL     1       8.001  31.938  59.435  1.00  0.00     0.065 A 
HETATM   14  C   UNL     1       9.362  31.997  59.751  1.00  0.00     0.070 A 
HETATM   15  C   UNL     1       9.751  31.967  61.090  1.00  0.00     0.037 A 
HETATM   16  C   UNL     1       8.792  31.869  62.096  1.00  0.00     0.005 A 
HETATM   17  C   UNL     1       7.436  31.810  61.766  1.00  0.00     0.029 A 
BRANCH  14  18
HETATM   18  O   UNL     1      10.396  32.071  58.858  1.00  0.00    -0.356 OA
HETATM   19  C   UNL     1      10.433  31.083  57.836  1.00  0.00     0.210 C 
ENDBRANCH  14  18
ENDBRANCH  10  12
ENDBRANCH   9  10
ENDBRANCH   6   9
ENDBRANCH   2   5
BRANCH   1  20
HETATM   20  C   UNL     1       6.115  28.239  54.928  1.00  0.00     0.134 A 
HETATM   21  C   UNL     1       5.055  28.178  54.047  1.00  0.00     0.089 A 
HETATM   22  S   UNL     1       4.988  26.639  53.311  1.00  0.00    -0.079 SA
HETATM   23  C   UNL     1       6.359  26.126  54.227  1.00  0.00     0.108 A 
HETATM   24  N   UNL     1       6.873  27.067  55.002  1.00  0.00    -0.235 NA
BRANCH  23  25
HETATM   25  C   UNL     1       6.891  24.750  54.135  1.00  0.00    -0.000 A 
HETATM   26  C   UNL     1       6.981  23.881  55.234  1.00  0.00     0.015 A 
HETATM   27  C   UNL     1       7.522  22.595  55.099  1.00  0.00     0.007 A 
HETATM   28  C   UNL     1       7.994  22.149  53.864  1.00  0.00    -0.062 A 
HETATM   29  C   UNL     1       8.570  20.773  53.709  1.00  0.00     0.048 C 
HETATM   30  C   UNL     1       7.901  22.999  52.759  1.00  0.00     0.007 A 
HETATM   31  C   UNL     1       7.362  24.283  52.895  1.00  0.00     0.015 A 
ENDBRANCH  23  25
ENDBRANCH   1  20
TORSDOF 7
ENDMDL
MODEL 5
REMARK VINA RESULT:      -8.9      8.444     12.494
REMARK  7 active torsions:
REMARK  status: ('A' for Active; 'I' for Inactive)
REMARK    1  A    between atoms: C_5  and  C_6 
REMARK    2  A    between atoms: C_9  and  C_10 
REMARK       I    between atoms: C_10  and  N_11 
REMARK    3  A    between atoms: N_11  and  N_12 
REMARK       I    between atoms: N_12  and  C_13 
REMARK    4  A    between atoms: C_13  and  C_14 
REMARK    5  A    between atoms: C_14  and  N_15 
REMARK    6  A    between atoms: N_15  and  C_16 
REMARK    7  A    between atoms: C_18  and  O_19 
ROOT
HETATM    1  C   UNL     1       4.732  26.984  50.974  1.00  0.00     0.289 C 
HETATM    2  N   UNL     1       4.481  25.986  50.050  1.00  0.00    -0.262 N 
HETATM    3  O   UNL     1       4.247  28.111  50.891  1.00  0.00    -0.264 OA
HETATM    4  H   UNL     1       4.705  25.024  50.304  1.00  0.00     0.190 HD
ENDROOT
BRANCH   2   5
HETATM    5  N   UNL     1       3.457  26.198  49.112  1.00  0.00    -0.266 N 
HETATM    6  C   UNL     1       3.806  26.204  47.771  1.00  0.00     0.253 C 
HETATM    7  O   UNL     1       4.971  26.273  47.377  1.00  0.00    -0.270 OA
HETATM    8  H   UNL     1       2.540  25.857  49.395  1.00  0.00     0.190 HD
BRANCH   6   9
HETATM    9  C   UNL     1       2.609  26.155  46.813  1.00  0.00     0.224 C 
BRANCH   9  10
HETATM   10  N   UNL     1       1.454  26.786  47.452  1.00  0.00    -0.381 N 
HETATM   11  H   UNL     1       1.557  26.809  48.468  1.00  0.00     0.160 HD
BRANCH  10  12
HETATM   12  C   UNL     1       0.912  27.965  46.935  1.00  0.00     0.030 A 
HETATM   13  C   UNL     1      -0.371  27.910  46.362  1.00  0.00     0.065 A 
HETATM   14  C   UNL     1      -0.947  29.024  45.745  1.00  0.00     0.070 A 
HETATM   15  C   UNL     1      -0.221  30.212  45.673  1.00  0.00     0.037 A 
HETATM   16  C   UNL     1       1.066  30.280  46.201  1.00  0.00     0.005 A 
HETATM   17  C   UNL     1       1.631  29.159  46.814  1.00  0.00     0.029 A 
BRANCH  14  18
HETATM   18  O   UNL     1      -2.188  29.076  45.170  1.00  0.00    -0.356 OA
HETATM   19  C   UNL     1      -3.067  30.091  45.638  1.00  0.00     0.210 C 
ENDBRANCH  14  18
ENDBRANCH  10  12
ENDBRANCH   9  10
ENDBRANCH   6   9
ENDBRANCH   2   5
BRANCH   1  20
HETATM   20  C   UNL     1       5.631  26.567  52.049  1.00  0.00     0.134 A 
HETATM   21  C   UNL     1       6.353  27.445  52.829  1.00  0.00     0.089 A 
HETATM   22  S   UNL     1       7.310  26.586  53.952  1.00  0.00    -0.079 SA
HETATM   23  C   UNL     1       6.731  25.088  53.319  1.00  0.00     0.108 A 
HETATM   24  N   UNL     1       5.833  25.219  52.357  1.00  0.00    -0.235 NA
BRANCH  23  25
HETATM   25  C   UNL     1       7.214  23.786  53.827  1.00  0.00    -0.000 A 
HETATM   26  C   UNL     1       7.232  23.447  55.190  1.00  0.00     0.015 A 
HETATM   27  C   UNL     1       7.728  22.210  55.623  1.00  0.00     0.007 A 
HETATM   28  C   UNL     1       8.228  21.284  54.704  1.00  0.00    -0.062 A 
HETATM   29  C   UNL     1       8.756  19.956  55.158  1.00  0.00     0.048 C 
HETATM   30  C   UNL     1       8.206  21.604  53.345  1.00  0.00     0.007 A 
HETATM   31  C   UNL     1       7.711  22.840  52.914  1.00  0.00     0.015 A 
ENDBRANCH  23  25
ENDBRANCH   1  20
TORSDOF 7
ENDMDL
MODEL 6
REMARK VINA RESULT:      -8.8      6.758     10.816
REMARK  7 active torsions:
REMARK  status: ('A' for Active; 'I' for Inactive)
REMARK    1  A    between atoms: C_5  and  C_6 
REMARK    2  A    between atoms: C_9  and  C_10 
REMARK       I    between atoms: C_10  and  N_11 
REMARK    3  A    between atoms: N_11  and  N_12 
REMARK       I    between atoms: N_12  and  C_13 
REMARK    4  A    between atoms: C_13  and  C_14 
REMARK    5  A    between atoms: C_14  and  N_15 
REMARK    6  A    between atoms: N_15  and  C_16 
REMARK    7  A    between atoms: C_18  and  O_19 
ROOT
HETATM    1  C   UNL     1       4.512  28.408  53.541  1.00  0.00     0.289 C 
HETATM    2  N   UNL     1       5.180  29.576  53.220  1.00  0.00    -0.262 N 
HETATM    3  O   UNL     1       3.346  28.192  53.216  1.00  0.00    -0.264 OA
HETATM    4  H   UNL     1       6.196  29.590  53.299  1.00  0.00     0.190 HD
ENDROOT
BRANCH   2   5
HETATM    5  N   UNL     1       4.579  30.446  52.294  1.00  0.00    -0.266 N 
HETATM    6  C   UNL     1       5.038  30.409  50.988  1.00  0.00     0.253 C 
HETATM    7  O   UNL     1       6.081  29.844  50.654  1.00  0.00    -0.270 OA
HETATM    8  H   UNL     1       3.602  30.661  52.481  1.00  0.00     0.190 HD
BRANCH   6   9
HETATM    9  C   UNL     1       4.152  31.169  49.992  1.00  0.00     0.224 C 
BRANCH   9  10
HETATM   10  N   UNL     1       4.266  30.547  48.673  1.00  0.00    -0.381 N 
HETATM   11  H   UNL     1       5.235  30.303  48.458  1.00  0.00     0.160 HD
BRANCH  10  12
HETATM   12  C   UNL     1       3.359  29.566  48.268  1.00  0.00     0.030 A 
HETATM   13  C   UNL     1       3.869  28.350  47.781  1.00  0.00     0.065 A 
HETATM   14  C   UNL     1       3.031  27.353  47.273  1.00  0.00     0.070 A 
HETATM   15  C   UNL     1       1.656  27.581  47.226  1.00  0.00     0.037 A 
HETATM   16  C   UNL     1       1.130  28.792  47.669  1.00  0.00     0.005 A 
HETATM   17  C   UNL     1       1.979  29.781  48.173  1.00  0.00     0.029 A 
BRANCH  14  18
HETATM   18  O   UNL     1       3.426  26.136  46.789  1.00  0.00    -0.356 OA
HETATM   19  C   UNL     1       2.986  24.989  47.504  1.00  0.00     0.210 C 
ENDBRANCH  14  18
ENDBRANCH  10  12
ENDBRANCH   9  10
ENDBRANCH   6   9
ENDBRANCH   2   5
BRANCH   1  20
HETATM   20  C   UNL     1       5.327  27.467  54.308  1.00  0.00     0.134 A 
HETATM   21  C   UNL     1       5.873  27.752  55.542  1.00  0.00     0.089 A 
HETATM   22  S   UNL     1       6.782  26.422  56.106  1.00  0.00    -0.079 SA
HETATM   23  C   UNL     1       6.424  25.547  54.662  1.00  0.00     0.108 A 
HETATM   24  N   UNL     1       5.625  26.190  53.825  1.00  0.00    -0.235 NA
BRANCH  23  25
HETATM   25  C   UNL     1       6.974  24.198  54.408  1.00  0.00    -0.000 A 
HETATM   26  C   UNL     1       7.220  23.261  55.423  1.00  0.00     0.015 A 
HETATM   27  C   UNL     1       7.771  22.006  55.133  1.00  0.00     0.007 A 
HETATM   28  C   UNL     1       8.099  21.660  53.820  1.00  0.00    -0.062 A 
HETATM   29  C   UNL     1       8.685  20.317  53.500  1.00  0.00     0.048 C 
HETATM   30  C   UNL     1       7.850  22.580  52.798  1.00  0.00     0.007 A 
HETATM   31  C   UNL     1       7.300  23.832  53.090  1.00  0.00     0.015 A 
ENDBRANCH  23  25
ENDBRANCH   1  20
TORSDOF 7
ENDMDL
MODEL 7
REMARK VINA RESULT:      -8.6      2.343      2.714
REMARK  7 active torsions:
REMARK  status: ('A' for Active; 'I' for Inactive)
REMARK    1  A    between atoms: C_5  and  C_6 
REMARK    2  A    between atoms: C_9  and  C_10 
REMARK       I    between atoms: C_10  and  N_11 
REMARK    3  A    between atoms: N_11  and  N_12 
REMARK       I    between atoms: N_12  and  C_13 
REMARK    4  A    between atoms: C_13  and  C_14 
REMARK    5  A    between atoms: C_14  and  N_15 
REMARK    6  A    between atoms: N_15  and  C_16 
REMARK    7  A    between atoms: C_18  and  O_19 
ROOT
HETATM    1  C   UNL     1       5.746  28.488  56.316  1.00  0.00     0.289 C 
HETATM    2  N   UNL     1       4.532  28.721  56.935  1.00  0.00    -0.262 N 
HETATM    3  O   UNL     1       6.762  29.132  56.571  1.00  0.00    -0.264 OA
HETATM    4  H   UNL     1       3.808  28.006  56.864  1.00  0.00     0.190 HD
ENDROOT
BRANCH   2   5
HETATM    5  N   UNL     1       4.514  29.568  58.056  1.00  0.00    -0.266 N 
HETATM    6  C   UNL     1       3.879  30.792  57.925  1.00  0.00     0.253 C 
HETATM    7  O   UNL     1       3.549  31.269  56.838  1.00  0.00    -0.270 OA
HETATM    8  H   UNL     1       4.509  29.088  58.954  1.00  0.00     0.190 HD
BRANCH   6   9
HETATM    9  C   UNL     1       3.656  31.525  59.254  1.00  0.00     0.224 C 
BRANCH   9  10
HETATM   10  N   UNL     1       4.946  31.738  59.910  1.00  0.00    -0.381 N 
HETATM   11  H   UNL     1       5.708  31.772  59.230  1.00  0.00     0.160 HD
BRANCH  10  12
HETATM   12  C   UNL     1       5.081  32.688  60.923  1.00  0.00     0.030 A 
HETATM   13  C   UNL     1       3.969  33.493  61.230  1.00  0.00     0.065 A 
HETATM   14  C   UNL     1       4.048  34.526  62.168  1.00  0.00     0.070 A 
HETATM   15  C   UNL     1       5.266  34.782  62.798  1.00  0.00     0.037 A 
HETATM   16  C   UNL     1       6.390  34.021  62.483  1.00  0.00     0.005 A 
HETATM   17  C   UNL     1       6.298  32.992  61.543  1.00  0.00     0.029 A 
BRANCH  14  18
HETATM   18  O   UNL     1       3.026  35.355  62.544  1.00  0.00    -0.356 OA
HETATM   19  C   UNL     1       3.345  36.731  62.710  1.00  0.00     0.210 C 
ENDBRANCH  14  18
ENDBRANCH  10  12
ENDBRANCH   9  10
ENDBRANCH   6   9
ENDBRANCH   2   5
BRANCH   1  20
HETATM   20  C   UNL     1       5.697  27.409  55.330  1.00  0.00     0.134 A 
HETATM   21  C   UNL     1       4.849  27.402  54.242  1.00  0.00     0.089 A 
HETATM   22  S   UNL     1       5.059  25.968  53.340  1.00  0.00    -0.079 SA
HETATM   23  C   UNL     1       6.249  25.420  54.464  1.00  0.00     0.108 A 
HETATM   24  N   UNL     1       6.516  26.282  55.432  1.00  0.00    -0.235 NA
BRANCH  23  25
HETATM   25  C   UNL     1       6.899  24.097  54.333  1.00  0.00    -0.000 A 
HETATM   26  C   UNL     1       7.244  23.527  53.098  1.00  0.00     0.015 A 
HETATM   27  C   UNL     1       7.831  22.256  53.025  1.00  0.00     0.007 A 
HETATM   28  C   UNL     1       8.080  21.521  54.186  1.00  0.00    -0.062 A 
HETATM   29  C   UNL     1       8.712  20.163  54.119  1.00  0.00     0.048 C 
HETATM   30  C   UNL     1       7.750  22.082  55.423  1.00  0.00     0.007 A 
HETATM   31  C   UNL     1       7.164  23.350  55.493  1.00  0.00     0.015 A 
ENDBRANCH  23  25
ENDBRANCH   1  20
TORSDOF 7
ENDMDL
MODEL 8
REMARK VINA RESULT:      -8.5      2.308      3.889
REMARK  7 active torsions:
REMARK  status: ('A' for Active; 'I' for Inactive)
REMARK    1  A    between atoms: C_5  and  C_6 
REMARK    2  A    between atoms: C_9  and  C_10 
REMARK       I    between atoms: C_10  and  N_11 
REMARK    3  A    between atoms: N_11  and  N_12 
REMARK       I    between atoms: N_12  and  C_13 
REMARK    4  A    between atoms: C_13  and  C_14 
REMARK    5  A    between atoms: C_14  and  N_15 
REMARK    6  A    between atoms: N_15  and  C_16 
REMARK    7  A    between atoms: C_18  and  O_19 
ROOT
HETATM    1  C   UNL     1       7.231  31.275  59.162  1.00  0.00     0.289 C 
HETATM    2  N   UNL     1       7.141  30.960  60.506  1.00  0.00    -0.262 N 
HETATM    3  O   UNL     1       6.699  32.269  58.671  1.00  0.00    -0.264 OA
HETATM    4  H   UNL     1       7.795  30.277  60.887  1.00  0.00     0.190 HD
ENDROOT
BRANCH   2   5
HETATM    5  N   UNL     1       6.616  31.929  61.377  1.00  0.00    -0.266 N 
HETATM    6  C   UNL     1       7.464  32.452  62.340  1.00  0.00     0.253 C 
HETATM    7  O   UNL     1       8.554  31.952  62.624  1.00  0.00    -0.270 OA
HETATM    8  H   UNL     1       5.884  32.512  60.977  1.00  0.00     0.190 HD
BRANCH   6   9
HETATM    9  C   UNL     1       6.910  33.691  63.055  1.00  0.00     0.224 C 
BRANCH   9  10
HETATM   10  N   UNL     1       6.668  33.368  64.461  1.00  0.00    -0.381 N 
HETATM   11  H   UNL     1       7.510  33.003  64.910  1.00  0.00     0.160 HD
BRANCH  10  12
HETATM   12  C   UNL     1       5.955  34.246  65.279  1.00  0.00     0.030 A 
HETATM   13  C   UNL     1       6.151  34.164  66.669  1.00  0.00     0.065 A 
HETATM   14  C   UNL     1       5.410  34.945  67.562  1.00  0.00     0.070 A 
HETATM   15  C   UNL     1       4.436  35.808  67.063  1.00  0.00     0.037 A 
HETATM   16  C   UNL     1       4.198  35.880  65.692  1.00  0.00     0.005 A 
HETATM   17  C   UNL     1       4.945  35.093  64.811  1.00  0.00     0.029 A 
BRANCH  14  18
HETATM   18  O   UNL     1       5.532  34.948  68.925  1.00  0.00    -0.356 OA
HETATM   19  C   UNL     1       6.234  33.857  69.508  1.00  0.00     0.210 C 
ENDBRANCH  14  18
ENDBRANCH  10  12
ENDBRANCH   9  10
ENDBRANCH   6   9
ENDBRANCH   2   5
BRANCH   1  20
HETATM   20  C   UNL     1       8.013  30.310  58.391  1.00  0.00     0.134 A 
HETATM   21  C   UNL     1       9.309  30.531  57.974  1.00  0.00     0.089 A 
HETATM   22  S   UNL     1       9.876  29.194  57.076  1.00  0.00    -0.079 SA
HETATM   23  C   UNL     1       8.353  28.404  57.267  1.00  0.00     0.108 A 
HETATM   24  N   UNL     1       7.484  29.076  58.005  1.00  0.00    -0.235 NA
BRANCH  23  25
HETATM   25  C   UNL     1       8.070  27.090  56.648  1.00  0.00    -0.000 A 
HETATM   26  C   UNL     1       7.504  26.944  55.372  1.00  0.00     0.015 A 
HETATM   27  C   UNL     1       7.228  25.676  54.843  1.00  0.00     0.007 A 
HETATM   28  C   UNL     1       7.503  24.522  55.581  1.00  0.00    -0.062 A 
HETATM   29  C   UNL     1       7.216  23.161  55.020  1.00  0.00     0.048 C 
HETATM   30  C   UNL     1       8.077  24.654  56.848  1.00  0.00     0.007 A 
HETATM   31  C   UNL     1       8.351  25.920  57.375  1.00  0.00     0.015 A 
ENDBRANCH  23  25
ENDBRANCH   1  20
TORSDOF 7
ENDMDL
MODEL 9
REMARK VINA RESULT:      -8.4      2.827     11.581
REMARK  7 active torsions:
REMARK  status: ('A' for Active; 'I' for Inactive)
REMARK    1  A    between atoms: C_5  and  C_6 
REMARK    2  A    between atoms: C_9  and  C_10 
REMARK       I    between atoms: C_10  and  N_11 
REMARK    3  A    between atoms: N_11  and  N_12 
REMARK       I    between atoms: N_12  and  C_13 
REMARK    4  A    between atoms: C_13  and  C_14 
REMARK    5  A    between atoms: C_14  and  N_15 
REMARK    6  A    between atoms: N_15  and  C_16 
REMARK    7  A    between atoms: C_18  and  O_19 
ROOT
HETATM    1  C   UNL     1       5.476  31.117  57.536  1.00  0.00     0.289 C 
HETATM    2  N   UNL     1       5.735  29.860  58.051  1.00  0.00    -0.262 N 
HETATM    3  O   UNL     1       5.484  31.361  56.331  1.00  0.00    -0.264 OA
HETATM    4  H   UNL     1       5.473  29.671  59.019  1.00  0.00     0.190 HD
ENDROOT
BRANCH   2   5
HETATM    5  N   UNL     1       5.783  28.778  57.157  1.00  0.00    -0.266 N 
HETATM    6  C   UNL     1       6.780  27.834  57.345  1.00  0.00     0.253 C 
HETATM    7  O   UNL     1       7.749  28.014  58.085  1.00  0.00    -0.270 OA
HETATM    8  H   UNL     1       4.881  28.493  56.782  1.00  0.00     0.190 HD
BRANCH   6   9
HETATM    9  C   UNL     1       6.594  26.555  56.520  1.00  0.00     0.224 C 
BRANCH   9  10
HETATM   10  N   UNL     1       7.584  26.527  55.443  1.00  0.00    -0.381 N 
HETATM   11  H   UNL     1       8.508  26.804  55.781  1.00  0.00     0.160 HD
BRANCH  10  12
HETATM   12  C   UNL     1       7.632  25.457  54.548  1.00  0.00     0.030 A 
HETATM   13  C   UNL     1       8.024  24.199  55.039  1.00  0.00     0.065 A 
HETATM   14  C   UNL     1       8.183  23.098  54.192  1.00  0.00     0.070 A 
HETATM   15  C   UNL     1       7.972  23.258  52.823  1.00  0.00     0.037 A 
HETATM   16  C   UNL     1       7.619  24.503  52.309  1.00  0.00     0.005 A 
HETATM   17  C   UNL     1       7.464  25.596  53.166  1.00  0.00     0.029 A 
BRANCH  14  18
HETATM   18  O   UNL     1       8.547  21.835  54.570  1.00  0.00    -0.356 OA
HETATM   19  C   UNL     1       7.879  20.756  53.927  1.00  0.00     0.210 C 
ENDBRANCH  14  18
ENDBRANCH  10  12
ENDBRANCH   9  10
ENDBRANCH   6   9
ENDBRANCH   2   5
BRANCH   1  20
HETATM   20  C   UNL     1       5.199  32.120  58.564  1.00  0.00     0.134 A 
HETATM   21  C   UNL     1       4.427  33.243  58.351  1.00  0.00     0.089 A 
HETATM   22  S   UNL     1       4.358  34.188  59.772  1.00  0.00    -0.079 SA
HETATM   23  C   UNL     1       5.385  33.064  60.585  1.00  0.00     0.108 A 
HETATM   24  N   UNL     1       5.720  32.012  59.856  1.00  0.00    -0.235 NA
BRANCH  23  25
HETATM   25  C   UNL     1       5.836  33.282  61.977  1.00  0.00    -0.000 A 
HETATM   26  C   UNL     1       7.132  32.982  62.424  1.00  0.00     0.015 A 
HETATM   27  C   UNL     1       7.501  33.179  63.762  1.00  0.00     0.007 A 
HETATM   28  C   UNL     1       6.580  33.673  64.688  1.00  0.00    -0.062 A 
HETATM   29  C   UNL     1       6.967  33.891  66.120  1.00  0.00     0.048 C 
HETATM   30  C   UNL     1       5.289  33.985  64.254  1.00  0.00     0.007 A 
HETATM   31  C   UNL     1       4.922  33.787  62.918  1.00  0.00     0.015 A 
ENDBRANCH  23  25
ENDBRANCH   1  20
TORSDOF 7
ENDMDL
MODEL 10
REMARK VINA RESULT:      -8.4      2.497      3.100
REMARK  7 active torsions:
REMARK  status: ('A' for Active; 'I' for Inactive)
REMARK    1  A    between atoms: C_5  and  C_6 
REMARK    2  A    between atoms: C_9  and  C_10 
REMARK       I    between atoms: C_10  and  N_11 
REMARK    3  A    between atoms: N_11  and  N_12 
REMARK       I    between atoms: N_12  and  C_13 
REMARK    4  A    between atoms: C_13  and  C_14 
REMARK    5  A    between atoms: C_14  and  N_15 
REMARK    6  A    between atoms: N_15  and  C_16 
REMARK    7  A    between atoms: C_18  and  O_19 
ROOT
HETATM    1  C   UNL     1       5.372  28.732  54.385  1.00  0.00     0.289 C 
HETATM    2  N   UNL     1       6.313  29.155  55.305  1.00  0.00    -0.262 N 
HETATM    3  O   UNL     1       4.299  29.307  54.212  1.00  0.00    -0.264 OA
HETATM    4  H   UNL     1       7.263  28.793  55.226  1.00  0.00     0.190 HD
ENDROOT
BRANCH   2   5
HETATM    5  N   UNL     1       6.136  30.416  55.898  1.00  0.00    -0.266 N 
HETATM    6  C   UNL     1       5.678  30.452  57.205  1.00  0.00     0.253 C 
HETATM    7  O   UNL     1       5.200  29.472  57.780  1.00  0.00    -0.270 OA
HETATM    8  H   UNL     1       6.770  31.139  55.565  1.00  0.00     0.190 HD
BRANCH   6   9
HETATM    9  C   UNL     1       5.782  31.832  57.867  1.00  0.00     0.224 C 
BRANCH   9  10
HETATM   10  N   UNL     1       6.026  31.662  59.300  1.00  0.00    -0.381 N 
HETATM   11  H   UNL     1       7.019  31.754  59.522  1.00  0.00     0.160 HD
BRANCH  10  12
HETATM   12  C   UNL     1       5.200  32.282  60.240  1.00  0.00     0.030 A 
HETATM   13  C   UNL     1       5.459  32.054  61.602  1.00  0.00     0.065 A 
HETATM   14  C   UNL     1       4.626  32.564  62.603  1.00  0.00     0.070 A 
HETATM   15  C   UNL     1       3.497  33.298  62.239  1.00  0.00     0.037 A 
HETATM   16  C   UNL     1       3.201  33.506  60.894  1.00  0.00     0.005 A 
HETATM   17  C   UNL     1       4.040  32.989  59.904  1.00  0.00     0.029 A 
BRANCH  14  18
HETATM   18  O   UNL     1       4.796  32.409  63.952  1.00  0.00    -0.356 OA
HETATM   19  C   UNL     1       5.648  33.345  64.602  1.00  0.00     0.210 C 
ENDBRANCH  14  18
ENDBRANCH  10  12
ENDBRANCH   9  10
ENDBRANCH   6   9
ENDBRANCH   2   5
BRANCH   1  20
HETATM   20  C   UNL     1       5.777  27.536  53.649  1.00  0.00     0.134 A 
HETATM   21  C   UNL     1       5.664  27.402  52.280  1.00  0.00     0.089 A 
HETATM   22  S   UNL     1       6.209  25.859  51.792  1.00  0.00    -0.079 SA
HETATM   23  C   UNL     1       6.539  25.441  53.434  1.00  0.00     0.108 A 
HETATM   24  N   UNL     1       6.306  26.417  54.297  1.00  0.00    -0.235 NA
BRANCH  23  25
HETATM   25  C   UNL     1       7.039  24.103  53.815  1.00  0.00    -0.000 A 
HETATM   26  C   UNL     1       7.057  23.633  55.138  1.00  0.00     0.015 A 
HETATM   27  C   UNL     1       7.569  22.367  55.450  1.00  0.00     0.007 A 
HETATM   28  C   UNL     1       8.084  21.541  54.448  1.00  0.00    -0.062 A 
HETATM   29  C   UNL     1       8.629  20.182  54.773  1.00  0.00     0.048 C 
HETATM   30  C   UNL     1       8.061  21.991  53.126  1.00  0.00     0.007 A 
HETATM   31  C   UNL     1       7.550  23.256  52.816  1.00  0.00     0.015 A 
ENDBRANCH  23  25
ENDBRANCH   1  20
TORSDOF 7
ENDMDL
