MODEL 1
REMARK VINA RESULT:      -9.2      0.000      0.000
REMARK  8 active torsions:
REMARK  status: ('A' for Active; 'I' for Inactive)
REMARK    1  A    between atoms: C_6  and  C_7 
REMARK       I    between atoms: C_7  and  N_8 
REMARK    2  A    between atoms: N_8  and  C_9 
REMARK    3  A    between atoms: C_9  and  C_10 
REMARK    4  A    between atoms: N_15  and  C_17 
REMARK    5  A    between atoms: C_17  and  C_18 
REMARK    6  A    between atoms: C_21  and  C_22 
REMARK    7  A    between atoms: C_23  and  C_24 
REMARK    8  A    between atoms: C_24  and  O_25 
ROOT
HETATM    1  C   UNL     1       6.872  24.647  56.214  1.00  0.00     0.140 C 
HETATM    2  O   UNL     1       6.304  25.502  55.194  1.00  0.00    -0.373 OA
HETATM    3  C   UNL     1       6.847  25.093  53.919  1.00  0.00     0.064 C 
HETATM    4  C   UNL     1       7.352  26.356  53.215  1.00  0.00     0.066 C 
HETATM    5  C   UNL     1       6.207  27.309  52.903  1.00  0.00     0.238 C 
HETATM    6  N   UNL     1       5.145  26.622  52.077  1.00  0.00    -0.067 N 
HETATM    7  H   UNL     1       4.366  27.291  52.038  1.00  0.00     0.280 HD
HETATM    8  C   UNL     1       4.605  25.406  52.790  1.00  0.00     0.238 C 
HETATM    9  C   UNL     1       5.725  24.427  53.114  1.00  0.00     0.066 C 
HETATM   10  C   UNL     1       7.987  24.112  54.223  1.00  0.00     0.041 C 
HETATM   11  C   UNL     1       8.262  24.337  55.692  1.00  0.00     0.036 C 
ENDROOT
BRANCH   1  12
HETATM   12  C   UNL     1       6.888  25.337  57.581  1.00  0.00     0.155 C 
BRANCH  12  13
HETATM   13  N   UNL     1       7.686  26.551  57.625  1.00  0.00    -0.353 N 
HETATM   14  C   UNL     1       7.120  27.806  57.557  1.00  0.00     0.270 C 
HETATM   15  O   UNL     1       5.925  27.954  57.317  1.00  0.00    -0.266 OA
HETATM   16  H   UNL     1       8.650  26.468  57.907  1.00  0.00     0.162 HD
BRANCH  14  17
HETATM   17  C   UNL     1       8.033  28.906  57.772  1.00  0.00     0.122 A 
HETATM   18  N   UNL     1       8.886  29.405  56.812  1.00  0.00    -0.269 N 
HETATM   19  N   UNL     1       9.660  30.419  57.246  1.00  0.00    -0.177 NA
HETATM   20  C   UNL     1       9.035  28.959  55.445  1.00  0.00     0.180 C 
HETATM   21  C   UNL     1       9.266  30.623  58.504  1.00  0.00     0.053 A 
HETATM   22  C   UNL     1       9.861  31.711  59.317  1.00  0.00     0.072 C 
HETATM   23  C   UNL     1       8.267  29.701  58.884  1.00  0.00     0.065 A 
ENDBRANCH  14  17
ENDBRANCH  12  13
ENDBRANCH   1  12
BRANCH   6  24
HETATM   24  C   UNL     1       5.498  26.361  50.626  1.00  0.00     0.273 C 
BRANCH  24  25
HETATM   25  C   UNL     1       4.403  26.733  49.664  1.00  0.00    -0.033 A 
HETATM   26  C   UNL     1       3.811  28.004  49.723  1.00  0.00     0.010 A 
HETATM   27  C   UNL     1       2.759  28.338  48.867  1.00  0.00     0.021 A 
HETATM   28  C   UNL     1       2.288  27.407  47.942  1.00  0.00     0.017 A 
HETATM   29  C   UNL     1       2.880  26.146  47.863  1.00  0.00     0.021 A 
HETATM   30  C   UNL     1       3.933  25.808  48.718  1.00  0.00     0.010 A 
BRANCH  28  31
HETATM   31  C   UNL     1       1.197  27.743  47.083  1.00  0.00    -0.064 C 
HETATM   32  C   UNL     1       0.286  28.024  46.351  1.00  0.00    -0.064 C 
BRANCH  32  33
HETATM   33  C   UNL     1      -0.823  28.377  45.449  1.00  0.00     0.114 C 
HETATM   34  C   UNL     1      -0.718  29.837  45.013  1.00  0.00     0.060 C 
HETATM   35  C   UNL     1      -0.842  27.451  44.236  1.00  0.00     0.060 C 
BRANCH  33  36
HETATM   36  O   UNL     1      -2.053  28.200  46.149  1.00  0.00    -0.378 OA
HETATM   37  H   UNL     1      -2.044  28.806  46.908  1.00  0.00     0.211 HD
ENDBRANCH  33  36
ENDBRANCH  32  33
ENDBRANCH  28  31
ENDBRANCH  24  25
ENDBRANCH   6  24
TORSDOF 8
ENDMDL
MODEL 2
REMARK VINA RESULT:      -9.1      6.097      9.408
REMARK  8 active torsions:
REMARK  status: ('A' for Active; 'I' for Inactive)
REMARK    1  A    between atoms: C_6  and  C_7 
REMARK       I    between atoms: C_7  and  N_8 
REMARK    2  A    between atoms: N_8  and  C_9 
REMARK    3  A    between atoms: C_9  and  C_10 
REMARK    4  A    between atoms: N_15  and  C_17 
REMARK    5  A    between atoms: C_17  and  C_18 
REMARK    6  A    between atoms: C_21  and  C_22 
REMARK    7  A    between atoms: C_23  and  C_24 
REMARK    8  A    between atoms: C_24  and  O_25 
ROOT
HETATM    1  C   UNL     1       4.459  33.452  59.332  1.00  0.00     0.140 C 
HETATM    2  O   UNL     1       4.156  32.134  58.817  1.00  0.00    -0.373 OA
HETATM    3  C   UNL     1       4.558  32.097  57.430  1.00  0.00     0.064 C 
HETATM    4  C   UNL     1       3.379  31.533  56.632  1.00  0.00     0.066 C 
HETATM    5  C   UNL     1       3.083  30.093  57.026  1.00  0.00     0.238 C 
HETATM    6  N   UNL     1       4.309  29.227  56.858  1.00  0.00    -0.067 N 
HETATM    7  H   UNL     1       4.052  28.323  57.274  1.00  0.00     0.280 HD
HETATM    8  C   UNL     1       5.459  29.747  57.685  1.00  0.00     0.238 C 
HETATM    9  C   UNL     1       5.786  31.187  57.312  1.00  0.00     0.066 C 
HETATM   10  C   UNL     1       4.883  33.542  57.030  1.00  0.00     0.041 C 
HETATM   11  C   UNL     1       4.259  34.362  58.136  1.00  0.00     0.036 C 
ENDROOT
BRANCH   1  12
HETATM   12  C   UNL     1       3.556  33.814  60.516  1.00  0.00     0.155 C 
BRANCH  12  13
HETATM   13  N   UNL     1       4.263  33.968  61.776  1.00  0.00    -0.353 N 
HETATM   14  C   UNL     1       4.439  32.919  62.654  1.00  0.00     0.270 C 
HETATM   15  O   UNL     1       3.886  31.838  62.474  1.00  0.00    -0.266 OA
HETATM   16  H   UNL     1       4.799  34.810  61.913  1.00  0.00     0.162 HD
BRANCH  14  17
HETATM   17  C   UNL     1       5.297  33.198  63.784  1.00  0.00     0.122 A 
HETATM   18  N   UNL     1       6.666  33.041  63.774  1.00  0.00    -0.269 N 
HETATM   19  N   UNL     1       7.256  33.343  64.947  1.00  0.00    -0.177 NA
HETATM   20  C   UNL     1       7.497  32.593  62.678  1.00  0.00     0.180 C 
HETATM   21  C   UNL     1       6.256  33.758  65.725  1.00  0.00     0.053 A 
HETATM   22  C   UNL     1       6.517  34.232  67.106  1.00  0.00     0.072 C 
HETATM   23  C   UNL     1       5.016  33.675  65.055  1.00  0.00     0.065 A 
ENDBRANCH  14  17
ENDBRANCH  12  13
ENDBRANCH   1  12
BRANCH   6  24
HETATM   24  C   UNL     1       4.695  28.895  55.431  1.00  0.00     0.273 C 
BRANCH  24  25
HETATM   25  C   UNL     1       5.273  27.515  55.268  1.00  0.00    -0.033 A 
HETATM   26  C   UNL     1       5.112  26.558  56.282  1.00  0.00     0.010 A 
HETATM   27  C   UNL     1       5.690  25.292  56.161  1.00  0.00     0.021 A 
HETATM   28  C   UNL     1       6.433  24.968  55.026  1.00  0.00     0.017 A 
HETATM   29  C   UNL     1       6.586  25.907  54.005  1.00  0.00     0.021 A 
HETATM   30  C   UNL     1       6.009  27.174  54.122  1.00  0.00     0.010 A 
BRANCH  28  31
HETATM   31  C   UNL     1       7.042  23.681  54.915  1.00  0.00    -0.064 C 
HETATM   32  C   UNL     1       7.556  22.598  54.834  1.00  0.00    -0.064 C 
BRANCH  32  33
HETATM   33  C   UNL     1       8.196  21.274  54.740  1.00  0.00     0.114 C 
HETATM   34  C   UNL     1       7.706  20.360  55.861  1.00  0.00     0.060 C 
HETATM   35  C   UNL     1       7.928  20.645  53.375  1.00  0.00     0.060 C 
BRANCH  33  36
HETATM   36  O   UNL     1       9.606  21.439  54.872  1.00  0.00    -0.378 OA
HETATM   37  H   UNL     1       9.961  20.611  55.234  1.00  0.00     0.211 HD
ENDBRANCH  33  36
ENDBRANCH  32  33
ENDBRANCH  28  31
ENDBRANCH  24  25
ENDBRANCH   6  24
TORSDOF 8
ENDMDL
MODEL 3
REMARK VINA RESULT:      -9.0      3.080      5.514
REMARK  8 active torsions:
REMARK  status: ('A' for Active; 'I' for Inactive)
REMARK    1  A    between atoms: C_6  and  C_7 
REMARK       I    between atoms: C_7  and  N_8 
REMARK    2  A    between atoms: N_8  and  C_9 
REMARK    3  A    between atoms: C_9  and  C_10 
REMARK    4  A    between atoms: N_15  and  C_17 
REMARK    5  A    between atoms: C_17  and  C_18 
REMARK    6  A    between atoms: C_21  and  C_22 
REMARK    7  A    between atoms: C_23  and  C_24 
REMARK    8  A    between atoms: C_24  and  O_25 
ROOT
HETATM    1  C   UNL     1       8.309  29.506  57.554  1.00  0.00     0.140 C 
HETATM    2  O   UNL     1       8.482  28.091  57.308  1.00  0.00    -0.373 OA
HETATM    3  C   UNL     1       7.208  27.554  56.890  1.00  0.00     0.064 C 
HETATM    4  C   UNL     1       6.941  26.307  57.738  1.00  0.00     0.066 C 
HETATM    5  C   UNL     1       7.970  25.220  57.462  1.00  0.00     0.238 C 
HETATM    6  N   UNL     1       8.004  24.874  55.992  1.00  0.00    -0.067 N 
HETATM    7  H   UNL     1       8.810  24.245  55.887  1.00  0.00     0.280 HD
HETATM    8  C   UNL     1       8.320  26.089  55.154  1.00  0.00     0.238 C 
HETATM    9  C   UNL     1       7.305  27.197  55.403  1.00  0.00     0.066 C 
HETATM   10  C   UNL     1       6.166  28.653  57.142  1.00  0.00     0.041 C 
HETATM   11  C   UNL     1       6.884  29.614  58.062  1.00  0.00     0.036 C 
ENDROOT
BRANCH   1  12
HETATM   12  C   UNL     1       9.342  30.034  58.555  1.00  0.00     0.155 C 
BRANCH  12  13
HETATM   13  N   UNL     1       8.763  30.576  59.774  1.00  0.00    -0.353 N 
HETATM   14  C   UNL     1       8.835  31.917  60.088  1.00  0.00     0.270 C 
HETATM   15  O   UNL     1       9.511  32.693  59.419  1.00  0.00    -0.266 OA
HETATM   16  H   UNL     1       8.132  29.989  60.295  1.00  0.00     0.162 HD
BRANCH  14  17
HETATM   17  C   UNL     1       8.075  32.318  61.252  1.00  0.00     0.122 A 
HETATM   18  N   UNL     1       6.738  32.650  61.228  1.00  0.00    -0.269 N 
HETATM   19  N   UNL     1       6.247  33.013  62.428  1.00  0.00    -0.177 NA
HETATM   20  C   UNL     1       5.850  32.658  60.086  1.00  0.00     0.180 C 
HETATM   21  C   UNL     1       7.273  32.863  63.267  1.00  0.00     0.053 A 
HETATM   22  C   UNL     1       7.109  33.123  64.718  1.00  0.00     0.072 C 
HETATM   23  C   UNL     1       8.436  32.447  62.584  1.00  0.00     0.065 A 
ENDBRANCH  14  17
ENDBRANCH  12  13
ENDBRANCH   1  12
BRANCH   6  24
HETATM   24  C   UNL     1       6.826  24.074  55.471  1.00  0.00     0.273 C 
BRANCH  24  25
HETATM   25  C   UNL     1       6.337  24.531  54.124  1.00  0.00    -0.033 A 
HETATM   26  C   UNL     1       7.154  24.393  52.991  1.00  0.00     0.010 A 
HETATM   27  C   UNL     1       6.726  24.862  51.747  1.00  0.00     0.021 A 
HETATM   28  C   UNL     1       5.478  25.471  51.620  1.00  0.00     0.017 A 
HETATM   29  C   UNL     1       4.651  25.598  52.736  1.00  0.00     0.021 A 
HETATM   30  C   UNL     1       5.075  25.131  53.983  1.00  0.00     0.010 A 
BRANCH  28  31
HETATM   31  C   UNL     1       5.054  25.970  50.351  1.00  0.00    -0.064 C 
HETATM   32  C   UNL     1       4.704  26.382  49.277  1.00  0.00    -0.064 C 
BRANCH  32  33
HETATM   33  C   UNL     1       4.285  26.887  47.958  1.00  0.00     0.114 C 
HETATM   34  C   UNL     1       3.228  25.971  47.343  1.00  0.00     0.060 C 
HETATM   35  C   UNL     1       3.760  28.315  48.074  1.00  0.00     0.060 C 
BRANCH  33  36
HETATM   36  O   UNL     1       5.422  26.911  47.098  1.00  0.00    -0.378 OA
HETATM   37  H   UNL     1       5.770  26.006  47.054  1.00  0.00     0.211 HD
ENDBRANCH  33  36
ENDBRANCH  32  33
ENDBRANCH  28  31
ENDBRANCH  24  25
ENDBRANCH   6  24
TORSDOF 8
ENDMDL
MODEL 4
REMARK VINA RESULT:      -8.9      1.363      2.059
REMARK  8 active torsions:
REMARK  status: ('A' for Active; 'I' for Inactive)
REMARK    1  A    between atoms: C_6  and  C_7 
REMARK       I    between atoms: C_7  and  N_8 
REMARK    2  A    between atoms: N_8  and  C_9 
REMARK    3  A    between atoms: C_9  and  C_10 
REMARK    4  A    between atoms: N_15  and  C_17 
REMARK    5  A    between atoms: C_17  and  C_18 
REMARK    6  A    between atoms: C_21  and  C_22 
REMARK    7  A    between atoms: C_23  and  C_24 
REMARK    8  A    between atoms: C_24  and  O_25 
ROOT
HETATM    1  C   UNL     1       7.161  24.137  55.888  1.00  0.00     0.140 C 
HETATM    2  O   UNL     1       6.624  25.108  54.959  1.00  0.00    -0.373 OA
HETATM    3  C   UNL     1       7.029  24.719  53.628  1.00  0.00     0.064 C 
HETATM    4  C   UNL     1       7.623  25.959  52.954  1.00  0.00     0.066 C 
HETATM    5  C   UNL     1       6.573  27.048  52.778  1.00  0.00     0.238 C 
HETATM    6  N   UNL     1       5.387  26.530  51.999  1.00  0.00    -0.067 N 
HETATM    7  H   UNL     1       4.687  27.281  52.053  1.00  0.00     0.280 HD
HETATM    8  C   UNL     1       4.764  25.339  52.688  1.00  0.00     0.238 C 
HETATM    9  C   UNL     1       5.787  24.227  52.876  1.00  0.00     0.066 C 
HETATM   10  C   UNL     1       8.069  23.603  53.795  1.00  0.00     0.041 C 
HETATM   11  C   UNL     1       8.468  23.710  55.249  1.00  0.00     0.036 C 
ENDROOT
BRANCH   1  12
HETATM   12  C   UNL     1       7.348  24.739  57.285  1.00  0.00     0.155 C 
BRANCH  12  13
HETATM   13  N   UNL     1       6.699  26.026  57.468  1.00  0.00    -0.353 N 
HETATM   14  C   UNL     1       7.404  27.211  57.474  1.00  0.00     0.270 C 
HETATM   15  O   UNL     1       8.631  27.222  57.462  1.00  0.00    -0.266 OA
HETATM   16  H   UNL     1       5.695  26.060  57.394  1.00  0.00     0.162 HD
BRANCH  14  17
HETATM   17  C   UNL     1       6.595  28.409  57.509  1.00  0.00     0.122 A 
HETATM   18  N   UNL     1       7.010  29.610  58.041  1.00  0.00    -0.269 N 
HETATM   19  N   UNL     1       6.080  30.582  57.982  1.00  0.00    -0.177 NA
HETATM   20  C   UNL     1       8.290  29.914  58.642  1.00  0.00     0.180 C 
HETATM   21  C   UNL     1       5.051  30.019  57.348  1.00  0.00     0.053 A 
HETATM   22  C   UNL     1       3.829  30.802  57.043  1.00  0.00     0.072 C 
HETATM   23  C   UNL     1       5.314  28.666  57.044  1.00  0.00     0.065 A 
ENDBRANCH  14  17
ENDBRANCH  12  13
ENDBRANCH   1  12
BRANCH   6  24
HETATM   24  C   UNL     1       5.607  26.319  50.515  1.00  0.00     0.273 C 
BRANCH  24  25
HETATM   25  C   UNL     1       4.415  26.680  49.671  1.00  0.00    -0.033 A 
HETATM   26  C   UNL     1       3.909  25.765  48.734  1.00  0.00     0.010 A 
HETATM   27  C   UNL     1       2.836  26.113  47.911  1.00  0.00     0.021 A 
HETATM   28  C   UNL     1       2.255  27.376  48.016  1.00  0.00     0.017 A 
HETATM   29  C   UNL     1       2.739  28.288  48.956  1.00  0.00     0.021 A 
HETATM   30  C   UNL     1       3.813  27.944  49.781  1.00  0.00     0.010 A 
BRANCH  28  31
HETATM   31  C   UNL     1       1.172  27.737  47.158  1.00  0.00    -0.064 C 
HETATM   32  C   UNL     1       0.264  28.032  46.428  1.00  0.00    -0.064 C 
BRANCH  32  33
HETATM   33  C   UNL     1      -0.843  28.392  45.525  1.00  0.00     0.114 C 
HETATM   34  C   UNL     1      -0.761  29.868  45.138  1.00  0.00     0.060 C 
HETATM   35  C   UNL     1      -0.830  27.507  44.282  1.00  0.00     0.060 C 
BRANCH  33  36
HETATM   36  O   UNL     1      -2.077  28.168  46.203  1.00  0.00    -0.378 OA
HETATM   37  H   UNL     1      -2.370  27.269  45.980  1.00  0.00     0.211 HD
ENDBRANCH  33  36
ENDBRANCH  32  33
ENDBRANCH  28  31
ENDBRANCH  24  25
ENDBRANCH   6  24
TORSDOF 8
ENDMDL
MODEL 5
REMARK VINA RESULT:      -8.6      7.738     12.209
REMARK  8 active torsions:
REMARK  status: ('A' for Active; 'I' for Inactive)
REMARK    1  A    between atoms: C_6  and  C_7 
REMARK       I    between atoms: C_7  and  N_8 
REMARK    2  A    between atoms: N_8  and  C_9 
REMARK    3  A    between atoms: C_9  and  C_10 
REMARK    4  A    between atoms: N_15  and  C_17 
REMARK    5  A    between atoms: C_17  and  C_18 
REMARK    6  A    between atoms: C_21  and  C_22 
REMARK    7  A    between atoms: C_23  and  C_24 
REMARK    8  A    between atoms: C_24  and  O_25 
ROOT
HETATM    1  C   UNL     1       5.959  34.362  64.974  1.00  0.00     0.140 C 
HETATM    2  O   UNL     1       5.735  33.375  63.940  1.00  0.00    -0.373 OA
HETATM    3  C   UNL     1       5.972  34.009  62.663  1.00  0.00     0.064 C 
HETATM    4  C   UNL     1       4.772  33.689  61.768  1.00  0.00     0.066 C 
HETATM    5  C   UNL     1       4.674  32.195  61.489  1.00  0.00     0.238 C 
HETATM    6  N   UNL     1       5.954  31.678  60.877  1.00  0.00    -0.067 N 
HETATM    7  H   UNL     1       5.843  30.656  60.856  1.00  0.00     0.280 HD
HETATM    8  C   UNL     1       7.134  31.943  61.781  1.00  0.00     0.238 C 
HETATM    9  C   UNL     1       7.265  33.431  62.077  1.00  0.00     0.066 C 
HETATM   10  C   UNL     1       6.098  35.513  62.938  1.00  0.00     0.041 C 
HETATM   11  C   UNL     1       5.528  35.666  64.330  1.00  0.00     0.036 C 
ENDROOT
BRANCH   1  12
HETATM   12  C   UNL     1       5.168  34.035  66.245  1.00  0.00     0.155 C 
BRANCH  12  13
HETATM   13  N   UNL     1       5.999  33.763  67.407  1.00  0.00    -0.353 N 
HETATM   14  C   UNL     1       5.619  34.123  68.682  1.00  0.00     0.270 C 
HETATM   15  O   UNL     1       4.623  34.814  68.880  1.00  0.00    -0.266 OA
HETATM   16  H   UNL     1       6.772  33.128  67.292  1.00  0.00     0.162 HD
BRANCH  14  17
HETATM   17  C   UNL     1       6.480  33.642  69.740  1.00  0.00     0.122 A 
HETATM   18  N   UNL     1       7.598  34.308  70.193  1.00  0.00    -0.269 N 
HETATM   19  N   UNL     1       8.258  33.660  71.172  1.00  0.00    -0.177 NA
HETATM   20  C   UNL     1       8.118  35.577  69.732  1.00  0.00     0.180 C 
HETATM   21  C   UNL     1       7.524  32.570  71.402  1.00  0.00     0.053 A 
HETATM   22  C   UNL     1       7.907  31.610  72.466  1.00  0.00     0.072 C 
HETATM   23  C   UNL     1       6.416  32.504  70.530  1.00  0.00     0.065 A 
ENDBRANCH  14  17
ENDBRANCH  12  13
ENDBRANCH   1  12
BRANCH   6  24
HETATM   24  C   UNL     1       6.203  32.065  59.433  1.00  0.00     0.273 C 
BRANCH  24  25
HETATM   25  C   UNL     1       6.327  30.886  58.506  1.00  0.00    -0.033 A 
HETATM   26  C   UNL     1       5.243  30.504  57.700  1.00  0.00     0.010 A 
HETATM   27  C   UNL     1       5.333  29.380  56.876  1.00  0.00     0.021 A 
HETATM   28  C   UNL     1       6.507  28.627  56.846  1.00  0.00     0.017 A 
HETATM   29  C   UNL     1       7.596  29.007  57.631  1.00  0.00     0.021 A 
HETATM   30  C   UNL     1       7.510  30.131  58.457  1.00  0.00     0.010 A 
BRANCH  28  31
HETATM   31  C   UNL     1       6.588  27.465  56.020  1.00  0.00    -0.064 C 
HETATM   32  C   UNL     1       6.663  26.481  55.333  1.00  0.00    -0.064 C 
BRANCH  32  33
HETATM   33  C   UNL     1       6.765  25.275  54.494  1.00  0.00     0.114 C 
HETATM   34  C   UNL     1       7.679  25.530  53.296  1.00  0.00     0.060 C 
HETATM   35  C   UNL     1       7.270  24.092  55.315  1.00  0.00     0.060 C 
BRANCH  33  36
HETATM   36  O   UNL     1       5.465  24.944  54.011  1.00  0.00    -0.378 OA
HETATM   37  H   UNL     1       5.578  24.288  53.304  1.00  0.00     0.211 HD
ENDBRANCH  33  36
ENDBRANCH  32  33
ENDBRANCH  28  31
ENDBRANCH  24  25
ENDBRANCH   6  24
TORSDOF 8
ENDMDL
MODEL 6
REMARK VINA RESULT:      -8.5      3.161      5.634
REMARK  8 active torsions:
REMARK  status: ('A' for Active; 'I' for Inactive)
REMARK    1  A    between atoms: C_6  and  C_7 
REMARK       I    between atoms: C_7  and  N_8 
REMARK    2  A    between atoms: N_8  and  C_9 
REMARK    3  A    between atoms: C_9  and  C_10 
REMARK    4  A    between atoms: N_15  and  C_17 
REMARK    5  A    between atoms: C_17  and  C_18 
REMARK    6  A    between atoms: C_21  and  C_22 
REMARK    7  A    between atoms: C_23  and  C_24 
REMARK    8  A    between atoms: C_24  and  O_25 
ROOT
HETATM    1  C   UNL     1       6.138  30.301  57.267  1.00  0.00     0.140 C 
HETATM    2  O   UNL     1       6.033  28.872  57.469  1.00  0.00    -0.373 OA
HETATM    3  C   UNL     1       6.410  28.221  56.235  1.00  0.00     0.064 C 
HETATM    4  C   UNL     1       5.318  27.198  55.910  1.00  0.00     0.066 C 
HETATM    5  C   UNL     1       5.254  26.103  56.966  1.00  0.00     0.238 C 
HETATM    6  N   UNL     1       6.596  25.426  57.119  1.00  0.00    -0.067 N 
HETATM    7  H   UNL     1       6.489  24.811  57.935  1.00  0.00     0.280 HD
HETATM    8  C   UNL     1       7.667  26.422  57.493  1.00  0.00     0.238 C 
HETATM    9  C   UNL     1       7.761  27.531  56.454  1.00  0.00     0.066 C 
HETATM   10  C   UNL     1       6.501  29.321  55.170  1.00  0.00     0.041 C 
HETATM   11  C   UNL     1       5.779  30.487  55.806  1.00  0.00     0.036 C 
ENDROOT
BRANCH   1  12
HETATM   12  C   UNL     1       5.212  31.072  58.213  1.00  0.00     0.155 C 
BRANCH  12  13
HETATM   13  N   UNL     1       5.756  31.270  59.546  1.00  0.00    -0.353 N 
HETATM   14  C   UNL     1       6.917  31.980  59.769  1.00  0.00     0.270 C 
HETATM   15  O   UNL     1       7.619  32.361  58.837  1.00  0.00    -0.266 OA
HETATM   16  H   UNL     1       5.165  31.048  60.331  1.00  0.00     0.162 HD
BRANCH  14  17
HETATM   17  C   UNL     1       7.236  32.219  61.159  1.00  0.00     0.122 A 
HETATM   18  N   UNL     1       8.220  31.551  61.854  1.00  0.00    -0.269 N 
HETATM   19  N   UNL     1       8.324  31.925  63.144  1.00  0.00    -0.177 NA
HETATM   20  C   UNL     1       9.108  30.522  61.360  1.00  0.00     0.180 C 
HETATM   21  C   UNL     1       7.423  32.899  63.281  1.00  0.00     0.053 A 
HETATM   22  C   UNL     1       7.269  33.611  64.573  1.00  0.00     0.072 C 
HETATM   23  C   UNL     1       6.711  33.111  62.081  1.00  0.00     0.065 A 
ENDBRANCH  14  17
ENDBRANCH  12  13
ENDBRANCH   1  12
BRANCH   6  24
HETATM   24  C   UNL     1       7.003  24.498  55.992  1.00  0.00     0.273 C 
BRANCH  24  25
HETATM   25  C   UNL     1       6.522  24.947  54.639  1.00  0.00    -0.033 A 
HETATM   26  C   UNL     1       5.228  24.622  54.205  1.00  0.00     0.010 A 
HETATM   27  C   UNL     1       4.793  24.990  52.930  1.00  0.00     0.021 A 
HETATM   28  C   UNL     1       5.646  25.688  52.075  1.00  0.00     0.017 A 
HETATM   29  C   UNL     1       6.929  26.030  52.502  1.00  0.00     0.021 A 
HETATM   30  C   UNL     1       7.368  25.663  53.777  1.00  0.00     0.010 A 
BRANCH  28  31
HETATM   31  C   UNL     1       5.207  26.043  50.763  1.00  0.00    -0.064 C 
HETATM   32  C   UNL     1       4.839  26.330  49.655  1.00  0.00    -0.064 C 
BRANCH  32  33
HETATM   33  C   UNL     1       4.399  26.678  48.294  1.00  0.00     0.114 C 
HETATM   34  C   UNL     1       3.261  25.762  47.847  1.00  0.00     0.060 C 
HETATM   35  C   UNL     1       3.971  28.141  48.226  1.00  0.00     0.060 C 
BRANCH  33  36
HETATM   36  O   UNL     1       5.498  26.506  47.401  1.00  0.00    -0.378 OA
HETATM   37  H   UNL     1       5.169  26.669  46.502  1.00  0.00     0.211 HD
ENDBRANCH  33  36
ENDBRANCH  32  33
ENDBRANCH  28  31
ENDBRANCH  24  25
ENDBRANCH   6  24
TORSDOF 8
ENDMDL
MODEL 7
REMARK VINA RESULT:      -8.5      6.822     14.775
REMARK  8 active torsions:
REMARK  status: ('A' for Active; 'I' for Inactive)
REMARK    1  A    between atoms: C_6  and  C_7 
REMARK       I    between atoms: C_7  and  N_8 
REMARK    2  A    between atoms: N_8  and  C_9 
REMARK    3  A    between atoms: C_9  and  C_10 
REMARK    4  A    between atoms: N_15  and  C_17 
REMARK    5  A    between atoms: C_17  and  C_18 
REMARK    6  A    between atoms: C_21  and  C_22 
REMARK    7  A    between atoms: C_23  and  C_24 
REMARK    8  A    between atoms: C_24  and  O_25 
ROOT
HETATM    1  C   UNL     1       3.503  31.690  57.094  1.00  0.00     0.140 C 
HETATM    2  O   UNL     1       3.744  31.808  58.515  1.00  0.00    -0.373 OA
HETATM    3  C   UNL     1       4.566  32.977  58.730  1.00  0.00     0.064 C 
HETATM    4  C   UNL     1       5.731  32.552  59.630  1.00  0.00     0.066 C 
HETATM    5  C   UNL     1       5.238  32.122  61.004  1.00  0.00     0.238 C 
HETATM    6  N   UNL     1       4.429  33.220  61.654  1.00  0.00    -0.067 N 
HETATM    7  H   UNL     1       4.032  32.791  62.499  1.00  0.00     0.280 HD
HETATM    8  C   UNL     1       3.249  33.605  60.796  1.00  0.00     0.238 C 
HETATM    9  C   UNL     1       3.707  34.047  59.412  1.00  0.00     0.066 C 
HETATM   10  C   UNL     1       5.048  33.433  57.347  1.00  0.00     0.041 C 
HETATM   11  C   UNL     1       4.770  32.238  56.465  1.00  0.00     0.036 C 
ENDROOT
BRANCH   1  12
HETATM   12  C   UNL     1       3.214  30.241  56.690  1.00  0.00     0.155 C 
BRANCH  12  13
HETATM   13  N   UNL     1       4.257  29.302  57.065  1.00  0.00    -0.353 N 
HETATM   14  C   UNL     1       5.156  28.797  56.148  1.00  0.00     0.270 C 
HETATM   15  O   UNL     1       5.029  29.012  54.947  1.00  0.00    -0.266 OA
HETATM   16  H   UNL     1       4.443  29.173  58.047  1.00  0.00     0.162 HD
BRANCH  14  17
HETATM   17  C   UNL     1       6.225  28.001  56.708  1.00  0.00     0.122 A 
HETATM   18  N   UNL     1       7.231  28.504  57.504  1.00  0.00    -0.269 N 
HETATM   19  N   UNL     1       8.130  27.580  57.894  1.00  0.00    -0.177 NA
HETATM   20  C   UNL     1       7.415  29.872  57.936  1.00  0.00     0.180 C 
HETATM   21  C   UNL     1       7.672  26.435  57.385  1.00  0.00     0.053 A 
HETATM   22  C   UNL     1       8.378  25.156  57.643  1.00  0.00     0.072 C 
HETATM   23  C   UNL     1       6.499  26.644  56.629  1.00  0.00     0.065 A 
ENDBRANCH  14  17
ENDBRANCH  12  13
ENDBRANCH   1  12
BRANCH   6  24
HETATM   24  C   UNL     1       5.216  34.410  62.164  1.00  0.00     0.273 C 
BRANCH  24  25
HETATM   25  C   UNL     1       5.559  34.324  63.626  1.00  0.00    -0.033 A 
HETATM   26  C   UNL     1       4.695  34.870  64.589  1.00  0.00     0.010 A 
HETATM   27  C   UNL     1       5.032  34.840  65.944  1.00  0.00     0.021 A 
HETATM   28  C   UNL     1       6.233  34.262  66.353  1.00  0.00     0.017 A 
HETATM   29  C   UNL     1       7.092  33.702  65.407  1.00  0.00     0.021 A 
HETATM   30  C   UNL     1       6.759  33.730  64.050  1.00  0.00     0.010 A 
BRANCH  28  31
HETATM   31  C   UNL     1       6.586  34.253  67.737  1.00  0.00    -0.064 C 
HETATM   32  C   UNL     1       6.877  34.235  68.903  1.00  0.00    -0.064 C 
BRANCH  32  33
HETATM   33  C   UNL     1       7.222  34.211  70.335  1.00  0.00     0.114 C 
HETATM   34  C   UNL     1       8.660  34.681  70.548  1.00  0.00     0.060 C 
HETATM   35  C   UNL     1       6.249  35.070  71.136  1.00  0.00     0.060 C 
BRANCH  33  36
HETATM   36  O   UNL     1       7.107  32.870  70.808  1.00  0.00    -0.378 OA
HETATM   37  H   UNL     1       7.596  32.817  71.646  1.00  0.00     0.211 HD
ENDBRANCH  33  36
ENDBRANCH  32  33
ENDBRANCH  28  31
ENDBRANCH  24  25
ENDBRANCH   6  24
TORSDOF 8
ENDMDL
MODEL 8
REMARK VINA RESULT:      -8.4      5.910      9.429
REMARK  8 active torsions:
REMARK  status: ('A' for Active; 'I' for Inactive)
REMARK    1  A    between atoms: C_6  and  C_7 
REMARK       I    between atoms: C_7  and  N_8 
REMARK    2  A    between atoms: N_8  and  C_9 
REMARK    3  A    between atoms: C_9  and  C_10 
REMARK    4  A    between atoms: N_15  and  C_17 
REMARK    5  A    between atoms: C_17  and  C_18 
REMARK    6  A    between atoms: C_21  and  C_22 
REMARK    7  A    between atoms: C_23  and  C_24 
REMARK    8  A    between atoms: C_24  and  O_25 
ROOT
HETATM    1  C   UNL     1       4.967  32.764  59.482  1.00  0.00     0.140 C 
HETATM    2  O   UNL     1       5.521  32.053  58.350  1.00  0.00    -0.373 OA
HETATM    3  C   UNL     1       4.514  31.138  57.864  1.00  0.00     0.064 C 
HETATM    4  C   UNL     1       5.180  29.767  57.716  1.00  0.00     0.066 C 
HETATM    5  C   UNL     1       6.274  29.796  56.658  1.00  0.00     0.238 C 
HETATM    6  N   UNL     1       5.728  30.273  55.333  1.00  0.00    -0.067 N 
HETATM    7  H   UNL     1       6.554  30.389  54.733  1.00  0.00     0.280 HD
HETATM    8  C   UNL     1       5.118  31.648  55.461  1.00  0.00     0.238 C 
HETATM    9  C   UNL     1       4.014  31.654  56.510  1.00  0.00     0.066 C 
HETATM   10  C   UNL     1       3.395  31.122  58.913  1.00  0.00     0.041 C 
HETATM   11  C   UNL     1       4.041  31.750  60.126  1.00  0.00     0.036 C 
ENDROOT
BRANCH   1  12
HETATM   12  C   UNL     1       6.065  33.257  60.429  1.00  0.00     0.155 C 
BRANCH  12  13
HETATM   13  N   UNL     1       5.663  33.314  61.825  1.00  0.00    -0.353 N 
HETATM   14  C   UNL     1       5.409  34.506  62.469  1.00  0.00     0.270 C 
HETATM   15  O   UNL     1       5.645  35.584  61.931  1.00  0.00    -0.266 OA
HETATM   16  H   UNL     1       5.378  32.454  62.266  1.00  0.00     0.162 HD
BRANCH  14  17
HETATM   17  C   UNL     1       4.868  34.382  63.804  1.00  0.00     0.122 A 
HETATM   18  N   UNL     1       3.527  34.242  64.087  1.00  0.00    -0.269 N 
HETATM   19  N   UNL     1       3.254  34.165  65.404  1.00  0.00    -0.177 NA
HETATM   20  C   UNL     1       2.428  34.181  63.149  1.00  0.00     0.180 C 
HETATM   21  C   UNL     1       4.450  34.202  65.994  1.00  0.00     0.053 A 
HETATM   22  C   UNL     1       4.571  34.091  67.468  1.00  0.00     0.072 C 
HETATM   23  C   UNL     1       5.485  34.351  65.046  1.00  0.00     0.065 A 
ENDBRANCH  14  17
ENDBRANCH  12  13
ENDBRANCH   1  12
BRANCH   6  24
HETATM   24  C   UNL     1       4.848  29.291  54.586  1.00  0.00     0.273 C 
BRANCH  24  25
HETATM   25  C   UNL     1       5.415  27.899  54.525  1.00  0.00    -0.033 A 
HETATM   26  C   UNL     1       4.978  26.918  55.429  1.00  0.00     0.010 A 
HETATM   27  C   UNL     1       5.538  25.638  55.413  1.00  0.00     0.021 A 
HETATM   28  C   UNL     1       6.538  25.324  54.493  1.00  0.00     0.017 A 
HETATM   29  C   UNL     1       6.969  26.286  53.580  1.00  0.00     0.021 A 
HETATM   30  C   UNL     1       6.412  27.568  53.593  1.00  0.00     0.010 A 
BRANCH  28  31
HETATM   31  C   UNL     1       7.124  24.021  54.494  1.00  0.00    -0.064 C 
HETATM   32  C   UNL     1       7.629  22.930  54.492  1.00  0.00    -0.064 C 
BRANCH  32  33
HETATM   33  C   UNL     1       8.250  21.595  54.478  1.00  0.00     0.114 C 
HETATM   34  C   UNL     1       7.699  20.734  55.613  1.00  0.00     0.060 C 
HETATM   35  C   UNL     1       8.031  20.915  53.130  1.00  0.00     0.060 C 
BRANCH  33  36
HETATM   36  O   UNL     1       9.656  21.746  54.664  1.00  0.00    -0.378 OA
HETATM   37  H   UNL     1       9.898  21.242  55.459  1.00  0.00     0.211 HD
ENDBRANCH  33  36
ENDBRANCH  32  33
ENDBRANCH  28  31
ENDBRANCH  24  25
ENDBRANCH   6  24
TORSDOF 8
ENDMDL
MODEL 9
REMARK VINA RESULT:      -8.4      5.820      9.519
REMARK  8 active torsions:
REMARK  status: ('A' for Active; 'I' for Inactive)
REMARK    1  A    between atoms: C_6  and  C_7 
REMARK       I    between atoms: C_7  and  N_8 
REMARK    2  A    between atoms: N_8  and  C_9 
REMARK    3  A    between atoms: C_9  and  C_10 
REMARK    4  A    between atoms: N_15  and  C_17 
REMARK    5  A    between atoms: C_17  and  C_18 
REMARK    6  A    between atoms: C_21  and  C_22 
REMARK    7  A    between atoms: C_23  and  C_24 
REMARK    8  A    between atoms: C_24  and  O_25 
ROOT
HETATM    1  C   UNL     1       4.384  31.960  59.697  1.00  0.00     0.140 C 
HETATM    2  O   UNL     1       3.947  31.258  58.510  1.00  0.00    -0.373 OA
HETATM    3  C   UNL     1       5.039  31.263  57.564  1.00  0.00     0.064 C 
HETATM    4  C   UNL     1       4.474  31.735  56.221  1.00  0.00     0.066 C 
HETATM    5  C   UNL     1       3.447  30.750  55.678  1.00  0.00     0.238 C 
HETATM    6  N   UNL     1       4.041  29.367  55.556  1.00  0.00    -0.067 N 
HETATM    7  H   UNL     1       3.247  28.758  55.320  1.00  0.00     0.280 HD
HETATM    8  C   UNL     1       4.552  28.875  56.889  1.00  0.00     0.238 C 
HETATM    9  C   UNL     1       5.586  29.836  57.460  1.00  0.00     0.066 C 
HETATM   10  C   UNL     1       6.091  32.235  58.116  1.00  0.00     0.041 C 
HETATM   11  C   UNL     1       5.332  33.016  59.164  1.00  0.00     0.036 C 
ENDROOT
BRANCH   1  12
HETATM   12  C   UNL     1       3.200  32.555  60.467  1.00  0.00     0.155 C 
BRANCH  12  13
HETATM   13  N   UNL     1       3.583  33.419  61.570  1.00  0.00    -0.353 N 
HETATM   14  C   UNL     1       2.681  34.246  62.205  1.00  0.00     0.270 C 
HETATM   15  O   UNL     1       1.540  34.392  61.777  1.00  0.00    -0.266 OA
HETATM   16  H   UNL     1       4.481  33.261  62.000  1.00  0.00     0.162 HD
BRANCH  14  17
HETATM   17  C   UNL     1       3.184  34.920  63.381  1.00  0.00     0.122 A 
HETATM   18  N   UNL     1       3.627  36.225  63.396  1.00  0.00    -0.269 N 
HETATM   19  N   UNL     1       4.071  36.635  64.600  1.00  0.00    -0.177 NA
HETATM   20  C   UNL     1       3.671  37.156  62.291  1.00  0.00     0.180 C 
HETATM   21  C   UNL     1       3.864  35.591  65.404  1.00  0.00     0.053 A 
HETATM   22  C   UNL     1       4.186  35.672  66.849  1.00  0.00     0.072 C 
HETATM   23  C   UNL     1       3.327  34.495  64.693  1.00  0.00     0.065 A 
ENDBRANCH  14  17
ENDBRANCH  12  13
ENDBRANCH   1  12
BRANCH   6  24
HETATM   24  C   UNL     1       5.027  29.166  54.423  1.00  0.00     0.273 C 
BRANCH  24  25
HETATM   25  C   UNL     1       5.611  27.781  54.370  1.00  0.00    -0.033 A 
HETATM   26  C   UNL     1       4.848  26.710  53.877  1.00  0.00     0.010 A 
HETATM   27  C   UNL     1       5.365  25.413  53.874  1.00  0.00     0.021 A 
HETATM   28  C   UNL     1       6.649  25.170  54.361  1.00  0.00     0.017 A 
HETATM   29  C   UNL     1       7.422  26.229  54.838  1.00  0.00     0.021 A 
HETATM   30  C   UNL     1       6.909  27.529  54.843  1.00  0.00     0.010 A 
BRANCH  28  31
HETATM   31  C   UNL     1       7.167  23.839  54.377  1.00  0.00    -0.064 C 
HETATM   32  C   UNL     1       7.603  22.720  54.403  1.00  0.00    -0.064 C 
BRANCH  32  33
HETATM   33  C   UNL     1       8.147  21.352  54.441  1.00  0.00     0.114 C 
HETATM   34  C   UNL     1       7.599  20.588  55.645  1.00  0.00     0.060 C 
HETATM   35  C   UNL     1       7.831  20.613  53.144  1.00  0.00     0.060 C 
BRANCH  33  36
HETATM   36  O   UNL     1       9.567  21.429  54.560  1.00  0.00    -0.378 OA
HETATM   37  H   UNL     1       9.797  21.140  55.459  1.00  0.00     0.211 HD
ENDBRANCH  33  36
ENDBRANCH  32  33
ENDBRANCH  28  31
ENDBRANCH  24  25
ENDBRANCH   6  24
TORSDOF 8
ENDMDL
MODEL 10
REMARK VINA RESULT:      -8.2      9.130     13.419
REMARK  8 active torsions:
REMARK  status: ('A' for Active; 'I' for Inactive)
REMARK    1  A    between atoms: C_6  and  C_7 
REMARK       I    between atoms: C_7  and  N_8 
REMARK    2  A    between atoms: N_8  and  C_9 
REMARK    3  A    between atoms: C_9  and  C_10 
REMARK    4  A    between atoms: N_15  and  C_17 
REMARK    5  A    between atoms: C_17  and  C_18 
REMARK    6  A    between atoms: C_21  and  C_22 
REMARK    7  A    between atoms: C_23  and  C_24 
REMARK    8  A    between atoms: C_24  and  O_25 
ROOT
HETATM    1  C   UNL     1       5.103  34.963  66.341  1.00  0.00     0.140 C 
HETATM    2  O   UNL     1       5.274  34.065  65.220  1.00  0.00    -0.373 OA
HETATM    3  C   UNL     1       4.708  34.700  64.052  1.00  0.00     0.064 C 
HETATM    4  C   UNL     1       3.784  33.679  63.382  1.00  0.00     0.066 C 
HETATM    5  C   UNL     1       4.567  32.476  62.874  1.00  0.00     0.238 C 
HETATM    6  N   UNL     1       5.664  32.908  61.930  1.00  0.00    -0.067 N 
HETATM    7  H   UNL     1       6.213  32.058  61.755  1.00  0.00     0.280 HD
HETATM    8  C   UNL     1       6.609  33.875  62.602  1.00  0.00     0.238 C 
HETATM    9  C   UNL     1       5.859  35.095  63.119  1.00  0.00     0.066 C 
HETATM   10  C   UNL     1       3.937  35.929  64.552  1.00  0.00     0.041 C 
HETATM   11  C   UNL     1       3.800  35.678  66.036  1.00  0.00     0.036 C 
ENDROOT
BRANCH   1  12
HETATM   12  C   UNL     1       5.070  34.203  67.671  1.00  0.00     0.155 C 
BRANCH  12  13
HETATM   13  N   UNL     1       5.517  34.985  68.812  1.00  0.00    -0.353 N 
HETATM   14  C   UNL     1       6.098  34.405  69.919  1.00  0.00     0.270 C 
HETATM   15  O   UNL     1       6.141  33.185  70.050  1.00  0.00    -0.266 OA
HETATM   16  H   UNL     1       5.577  35.985  68.701  1.00  0.00     0.162 HD
BRANCH  14  17
HETATM   17  C   UNL     1       6.629  35.332  70.894  1.00  0.00     0.122 A 
HETATM   18  N   UNL     1       6.198  35.413  72.200  1.00  0.00    -0.269 N 
HETATM   19  N   UNL     1       6.822  36.365  72.920  1.00  0.00    -0.177 NA
HETATM   20  C   UNL     1       5.176  34.618  72.845  1.00  0.00     0.180 C 
HETATM   21  C   UNL     1       7.719  36.883  72.080  1.00  0.00     0.053 A 
HETATM   22  C   UNL     1       8.650  37.947  72.528  1.00  0.00     0.072 C 
HETATM   23  C   UNL     1       7.631  36.285  70.804  1.00  0.00     0.065 A 
ENDBRANCH  14  17
ENDBRANCH  12  13
ENDBRANCH   1  12
BRANCH   6  24
HETATM   24  C   UNL     1       5.215  33.363  60.555  1.00  0.00     0.273 C 
BRANCH  24  25
HETATM   25  C   UNL     1       5.416  32.327  59.483  1.00  0.00    -0.033 A 
HETATM   26  C   UNL     1       6.696  31.809  59.231  1.00  0.00     0.010 A 
HETATM   27  C   UNL     1       6.899  30.887  58.202  1.00  0.00     0.021 A 
HETATM   28  C   UNL     1       5.826  30.470  57.416  1.00  0.00     0.017 A 
HETATM   29  C   UNL     1       4.546  30.966  57.667  1.00  0.00     0.021 A 
HETATM   30  C   UNL     1       4.339  31.889  58.695  1.00  0.00     0.010 A 
BRANCH  28  31
HETATM   31  C   UNL     1       6.040  29.543  56.350  1.00  0.00    -0.064 C 
HETATM   32  C   UNL     1       6.221  28.773  55.445  1.00  0.00    -0.064 C 
BRANCH  32  33
HETATM   33  C   UNL     1       6.436  27.835  54.330  1.00  0.00     0.114 C 
HETATM   34  C   UNL     1       7.525  26.823  54.682  1.00  0.00     0.060 C 
HETATM   35  C   UNL     1       5.134  27.123  53.970  1.00  0.00     0.060 C 
BRANCH  33  36
HETATM   36  O   UNL     1       6.856  28.575  53.186  1.00  0.00    -0.378 OA
HETATM   37  H   UNL     1       6.881  29.512  53.441  1.00  0.00     0.211 HD
ENDBRANCH  33  36
ENDBRANCH  32  33
ENDBRANCH  28  31
ENDBRANCH  24  25
ENDBRANCH   6  24
TORSDOF 8
ENDMDL
