MODEL 1
REMARK VINA RESULT:      -8.9      0.000      0.000
REMARK  7 active torsions:
REMARK  status: ('A' for Active; 'I' for Inactive)
REMARK    1  A    between atoms: C_2  and  C_3 
REMARK    2  A    between atoms: C_3  and  N_4 
REMARK    3  A    between atoms: C_7  and  C_8 
REMARK    4  A    between atoms: C_8  and  N_9 
REMARK       I    between atoms: N_9  and  C_10 
REMARK       I    between atoms: C_10  and  N_11 
REMARK    5  A    between atoms: N_11  and  C_12 
REMARK    6  A    between atoms: C_15  and  N_16 
REMARK       I    between atoms: N_16  and  C_17 
REMARK    7  A    between atoms: C_17  and  C_18 
ROOT
HETATM    1  N   UNL     1       8.045  28.569  57.780  1.00  0.00    -0.342 N 
HETATM    2  C   UNL     1       9.181  29.297  57.580  1.00  0.00     0.320 C 
HETATM    3  N   UNL     1       9.327  30.436  58.312  1.00  0.00    -0.309 N 
HETATM    4  O   UNL     1      10.044  28.973  56.768  1.00  0.00    -0.247 OA
HETATM    5  H   UNL     1       7.287  29.153  58.116  1.00  0.00     0.164 HD
HETATM    6  H   UNL     1      10.053  31.035  57.931  1.00  0.00     0.170 HD
ENDROOT
BRANCH   3   7
HETATM    7  C   UNL     1       8.637  30.929  59.434  1.00  0.00     0.036 A 
HETATM    8  C   UNL     1       7.501  31.736  59.357  1.00  0.00     0.032 A 
HETATM    9  C   UNL     1       6.905  32.244  60.518  1.00  0.00     0.032 A 
HETATM   10  C   UNL     1       7.428  31.944  61.775  1.00  0.00     0.035 A 
HETATM   11  C   UNL     1       8.518  31.073  61.855  1.00  0.00     0.032 A 
HETATM   12  C   UNL     1       9.110  30.559  60.695  1.00  0.00     0.032 A 
BRANCH  10  13
HETATM   13  N   UNL     1       6.943  32.485  62.977  1.00  0.00    -0.321 N 
HETATM   14  C   UNL     1       5.683  32.346  63.535  1.00  0.00     0.279 C 
HETATM   15  O   UNL     1       4.792  31.622  63.100  1.00  0.00    -0.265 OA
HETATM   16  H   UNL     1       7.554  33.120  63.483  1.00  0.00     0.169 HD
BRANCH  14  17
HETATM   17  C   UNL     1       5.500  33.180  64.710  1.00  0.00     0.142 A 
HETATM   18  O   UNL     1       4.229  33.442  65.157  1.00  0.00    -0.317 OA
HETATM   19  C   UNL     1       4.347  34.206  66.273  1.00  0.00     0.143 A 
HETATM   20  C   UNL     1       5.670  34.449  66.555  1.00  0.00     0.027 A 
HETATM   21  C   UNL     1       6.415  33.791  65.546  1.00  0.00     0.045 A 
ENDBRANCH  14  17
ENDBRANCH  10  13
ENDBRANCH   3   7
BRANCH   1  22
HETATM   22  C   UNL     1       7.604  27.473  56.932  1.00  0.00     0.130 C 
BRANCH  22  23
HETATM   23  C   UNL     1       7.291  26.126  57.602  1.00  0.00     0.031 C 
HETATM   24  C   UNL     1       6.207  25.312  56.907  1.00  0.00     0.241 C 
HETATM   25  N   UNL     1       6.941  24.327  56.000  1.00  0.00    -0.071 N 
HETATM   26  H   UNL     1       6.689  23.393  56.351  1.00  0.00     0.279 HD
HETATM   27  C   UNL     1       8.421  24.516  56.233  1.00  0.00     0.235 C 
HETATM   28  C   UNL     1       8.495  25.189  57.589  1.00  0.00     0.035 C 
BRANCH  25  29
HETATM   29  C   UNL     1       6.500  24.412  54.564  1.00  0.00     0.234 C 
BRANCH  29  30
HETATM   30  C   UNL     1       7.338  23.517  53.653  1.00  0.00     0.023 C 
HETATM   31  C   UNL     1       7.796  24.206  52.375  1.00  0.00     0.007 C 
ENDBRANCH  29  30
ENDBRANCH  25  29
ENDBRANCH  22  23
ENDBRANCH   1  22
TORSDOF 7
ENDMDL
MODEL 2
REMARK VINA RESULT:      -8.9      3.349      5.595
REMARK  7 active torsions:
REMARK  status: ('A' for Active; 'I' for Inactive)
REMARK    1  A    between atoms: C_2  and  C_3 
REMARK    2  A    between atoms: C_3  and  N_4 
REMARK    3  A    between atoms: C_7  and  C_8 
REMARK    4  A    between atoms: C_8  and  N_9 
REMARK       I    between atoms: N_9  and  C_10 
REMARK       I    between atoms: C_10  and  N_11 
REMARK    5  A    between atoms: N_11  and  C_12 
REMARK    6  A    between atoms: C_15  and  N_16 
REMARK       I    between atoms: N_16  and  C_17 
REMARK    7  A    between atoms: C_17  and  C_18 
ROOT
HETATM    1  N   UNL     1       6.782  25.028  53.650  1.00  0.00    -0.342 N 
HETATM    2  C   UNL     1       6.508  26.086  52.835  1.00  0.00     0.320 C 
HETATM    3  N   UNL     1       6.331  27.300  53.428  1.00  0.00    -0.309 N 
HETATM    4  O   UNL     1       6.400  25.976  51.616  1.00  0.00    -0.247 OA
HETATM    5  H   UNL     1       6.418  25.178  54.584  1.00  0.00     0.164 HD
HETATM    6  H   UNL     1       5.890  27.963  52.799  1.00  0.00     0.170 HD
ENDROOT
BRANCH   3   7
HETATM    7  C   UNL     1       6.598  27.758  54.731  1.00  0.00     0.036 A 
HETATM    8  C   UNL     1       5.642  27.824  55.744  1.00  0.00     0.032 A 
HETATM    9  C   UNL     1       5.966  28.355  56.999  1.00  0.00     0.032 A 
HETATM   10  C   UNL     1       7.255  28.816  57.265  1.00  0.00     0.035 A 
HETATM   11  C   UNL     1       8.231  28.678  56.274  1.00  0.00     0.032 A 
HETATM   12  C   UNL     1       7.909  28.142  55.022  1.00  0.00     0.032 A 
BRANCH  10  13
HETATM   13  N   UNL     1       7.634  29.442  58.464  1.00  0.00    -0.321 N 
HETATM   14  C   UNL     1       7.533  30.782  58.801  1.00  0.00     0.279 C 
HETATM   15  O   UNL     1       6.990  31.646  58.119  1.00  0.00    -0.265 OA
HETATM   16  H   UNL     1       8.107  28.873  59.159  1.00  0.00     0.169 HD
BRANCH  14  17
HETATM   17  C   UNL     1       8.172  31.085  60.070  1.00  0.00     0.142 A 
HETATM   18  O   UNL     1       8.766  30.073  60.782  1.00  0.00    -0.317 OA
HETATM   19  C   UNL     1       9.306  30.631  61.896  1.00  0.00     0.143 A 
HETATM   20  C   UNL     1       9.069  31.985  61.921  1.00  0.00     0.027 A 
HETATM   21  C   UNL     1       8.334  32.278  60.747  1.00  0.00     0.045 A 
ENDBRANCH  14  17
ENDBRANCH  10  13
ENDBRANCH   3   7
BRANCH   1  22
HETATM   22  C   UNL     1       6.762  23.635  53.234  1.00  0.00     0.130 C 
BRANCH  22  23
HETATM   23  C   UNL     1       8.092  22.863  53.237  1.00  0.00     0.031 C 
HETATM   24  C   UNL     1       9.010  23.194  54.406  1.00  0.00     0.241 C 
HETATM   25  N   UNL     1       8.752  22.118  55.458  1.00  0.00    -0.071 N 
HETATM   26  H   UNL     1       9.648  21.624  55.568  1.00  0.00     0.279 HD
HETATM   27  C   UNL     1       7.763  21.140  54.870  1.00  0.00     0.235 C 
HETATM   28  C   UNL     1       7.877  21.359  53.374  1.00  0.00     0.035 C 
BRANCH  25  29
HETATM   29  C   UNL     1       8.374  22.688  56.798  1.00  0.00     0.234 C 
BRANCH  29  30
HETATM   30  C   UNL     1       8.803  24.147  56.942  1.00  0.00     0.023 C 
HETATM   31  C   UNL     1       7.655  25.091  57.272  1.00  0.00     0.007 C 
ENDBRANCH  29  30
ENDBRANCH  25  29
ENDBRANCH  22  23
ENDBRANCH   1  22
TORSDOF 7
ENDMDL
MODEL 3
REMARK VINA RESULT:      -8.3      2.965     10.716
REMARK  7 active torsions:
REMARK  status: ('A' for Active; 'I' for Inactive)
REMARK    1  A    between atoms: C_2  and  C_3 
REMARK    2  A    between atoms: C_3  and  N_4 
REMARK    3  A    between atoms: C_7  and  C_8 
REMARK    4  A    between atoms: C_8  and  N_9 
REMARK       I    between atoms: N_9  and  C_10 
REMARK       I    between atoms: C_10  and  N_11 
REMARK    5  A    between atoms: N_11  and  C_12 
REMARK    6  A    between atoms: C_15  and  N_16 
REMARK       I    between atoms: N_16  and  C_17 
REMARK    7  A    between atoms: C_17  and  C_18 
ROOT
HETATM    1  N   UNL     1       6.457  30.513  58.063  1.00  0.00    -0.342 N 
HETATM    2  C   UNL     1       5.796  31.028  56.987  1.00  0.00     0.320 C 
HETATM    3  N   UNL     1       5.823  30.303  55.834  1.00  0.00    -0.309 N 
HETATM    4  O   UNL     1       5.209  32.107  57.022  1.00  0.00    -0.247 OA
HETATM    5  H   UNL     1       7.208  29.896  57.774  1.00  0.00     0.164 HD
HETATM    6  H   UNL     1       5.536  30.860  55.035  1.00  0.00     0.170 HD
ENDROOT
BRANCH   3   7
HETATM    7  C   UNL     1       6.215  28.980  55.564  1.00  0.00     0.036 A 
HETATM    8  C   UNL     1       7.520  28.602  55.250  1.00  0.00     0.032 A 
HETATM    9  C   UNL     1       7.823  27.273  54.927  1.00  0.00     0.032 A 
HETATM   10  C   UNL     1       6.827  26.298  54.925  1.00  0.00     0.035 A 
HETATM   11  C   UNL     1       5.534  26.662  55.315  1.00  0.00     0.032 A 
HETATM   12  C   UNL     1       5.234  27.989  55.644  1.00  0.00     0.032 A 
BRANCH  10  13
HETATM   13  N   UNL     1       7.031  24.967  54.527  1.00  0.00    -0.321 N 
HETATM   14  C   UNL     1       7.288  23.862  55.323  1.00  0.00     0.279 C 
HETATM   15  O   UNL     1       7.280  23.857  56.551  1.00  0.00    -0.265 OA
HETATM   16  H   UNL     1       7.070  24.778  53.529  1.00  0.00     0.169 HD
BRANCH  14  17
HETATM   17  C   UNL     1       7.599  22.676  54.545  1.00  0.00     0.142 A 
HETATM   18  O   UNL     1       7.660  21.458  55.173  1.00  0.00    -0.317 OA
HETATM   19  C   UNL     1       7.932  20.529  54.220  1.00  0.00     0.143 A 
HETATM   20  C   UNL     1       8.053  21.125  52.987  1.00  0.00     0.027 A 
HETATM   21  C   UNL     1       7.843  22.509  53.195  1.00  0.00     0.045 A 
ENDBRANCH  14  17
ENDBRANCH  10  13
ENDBRANCH   3   7
BRANCH   1  22
HETATM   22  C   UNL     1       6.741  31.243  59.288  1.00  0.00     0.130 C 
BRANCH  22  23
HETATM   23  C   UNL     1       8.149  31.833  59.465  1.00  0.00     0.031 C 
HETATM   24  C   UNL     1       8.315  32.710  60.698  1.00  0.00     0.241 C 
HETATM   25  N   UNL     1       8.906  31.807  61.778  1.00  0.00    -0.071 N 
HETATM   26  H   UNL     1       9.823  32.215  62.003  1.00  0.00     0.279 HD
HETATM   27  C   UNL     1       9.152  30.456  61.150  1.00  0.00     0.235 C 
HETATM   28  C   UNL     1       9.202  30.747  59.664  1.00  0.00     0.035 C 
BRANCH  25  29
HETATM   29  C   UNL     1       8.088  31.790  63.041  1.00  0.00     0.234 C 
BRANCH  29  30
HETATM   30  C   UNL     1       7.415  33.136  63.305  1.00  0.00     0.023 C 
HETATM   31  C   UNL     1       7.391  33.528  64.776  1.00  0.00     0.007 C 
ENDBRANCH  29  30
ENDBRANCH  25  29
ENDBRANCH  22  23
ENDBRANCH   1  22
TORSDOF 7
ENDMDL
MODEL 4
REMARK VINA RESULT:      -8.3      1.526      2.004
REMARK  7 active torsions:
REMARK  status: ('A' for Active; 'I' for Inactive)
REMARK    1  A    between atoms: C_2  and  C_3 
REMARK    2  A    between atoms: C_3  and  N_4 
REMARK    3  A    between atoms: C_7  and  C_8 
REMARK    4  A    between atoms: C_8  and  N_9 
REMARK       I    between atoms: N_9  and  C_10 
REMARK       I    between atoms: C_10  and  N_11 
REMARK    5  A    between atoms: N_11  and  C_12 
REMARK    6  A    between atoms: C_15  and  N_16 
REMARK       I    between atoms: N_16  and  C_17 
REMARK    7  A    between atoms: C_17  and  C_18 
ROOT
HETATM    1  N   UNL     1       7.971  28.932  57.793  1.00  0.00    -0.342 N 
HETATM    2  C   UNL     1       9.232  29.451  57.782  1.00  0.00     0.320 C 
HETATM    3  N   UNL     1       9.493  30.473  58.644  1.00  0.00    -0.309 N 
HETATM    4  O   UNL     1      10.110  29.047  57.023  1.00  0.00    -0.247 OA
HETATM    5  H   UNL     1       7.295  29.614  58.118  1.00  0.00     0.164 HD
HETATM    6  H   UNL     1      10.351  30.958  58.400  1.00  0.00     0.170 HD
ENDROOT
BRANCH   3   7
HETATM    7  C   UNL     1       8.779  30.982  59.743  1.00  0.00     0.036 A 
HETATM    8  C   UNL     1       7.746  31.914  59.636  1.00  0.00     0.032 A 
HETATM    9  C   UNL     1       7.124  32.426  60.782  1.00  0.00     0.032 A 
HETATM   10  C   UNL     1       7.515  32.005  62.051  1.00  0.00     0.035 A 
HETATM   11  C   UNL     1       8.496  31.014  62.154  1.00  0.00     0.032 A 
HETATM   12  C   UNL     1       9.113  30.498  61.009  1.00  0.00     0.032 A 
BRANCH  10  13
HETATM   13  N   UNL     1       7.004  32.536  63.247  1.00  0.00    -0.321 N 
HETATM   14  C   UNL     1       5.700  32.503  63.713  1.00  0.00     0.279 C 
HETATM   15  O   UNL     1       4.773  31.900  63.180  1.00  0.00    -0.265 OA
HETATM   16  H   UNL     1       7.639  33.077  63.827  1.00  0.00     0.169 HD
BRANCH  14  17
HETATM   17  C   UNL     1       5.519  33.293  64.918  1.00  0.00     0.142 A 
HETATM   18  O   UNL     1       4.251  33.508  65.397  1.00  0.00    -0.317 OA
HETATM   19  C   UNL     1       4.372  34.239  66.535  1.00  0.00     0.143 A 
HETATM   20  C   UNL     1       5.694  34.506  66.799  1.00  0.00     0.027 A 
HETATM   21  C   UNL     1       6.435  33.901  65.755  1.00  0.00     0.045 A 
ENDBRANCH  14  17
ENDBRANCH  10  13
ENDBRANCH   3   7
BRANCH   1  22
HETATM   22  C   UNL     1       7.442  28.019  56.793  1.00  0.00     0.130 C 
BRANCH  22  23
HETATM   23  C   UNL     1       7.209  28.560  55.374  1.00  0.00     0.031 C 
HETATM   24  C   UNL     1       7.440  27.543  54.264  1.00  0.00     0.241 C 
HETATM   25  N   UNL     1       6.064  26.972  53.928  1.00  0.00    -0.071 N 
HETATM   26  H   UNL     1       5.895  27.229  52.946  1.00  0.00     0.279 HD
HETATM   27  C   UNL     1       5.051  27.708  54.771  1.00  0.00     0.235 C 
HETATM   28  C   UNL     1       5.761  28.990  55.159  1.00  0.00     0.035 C 
BRANCH  25  29
HETATM   29  C   UNL     1       6.013  25.471  54.024  1.00  0.00     0.234 C 
BRANCH  29  30
HETATM   30  C   UNL     1       5.051  24.863  53.006  1.00  0.00     0.023 C 
HETATM   31  C   UNL     1       5.129  25.510  51.631  1.00  0.00     0.007 C 
ENDBRANCH  29  30
ENDBRANCH  25  29
ENDBRANCH  22  23
ENDBRANCH   1  22
TORSDOF 7
ENDMDL
MODEL 5
REMARK VINA RESULT:      -8.1      2.880     10.408
REMARK  7 active torsions:
REMARK  status: ('A' for Active; 'I' for Inactive)
REMARK    1  A    between atoms: C_2  and  C_3 
REMARK    2  A    between atoms: C_3  and  N_4 
REMARK    3  A    between atoms: C_7  and  C_8 
REMARK    4  A    between atoms: C_8  and  N_9 
REMARK       I    between atoms: N_9  and  C_10 
REMARK       I    between atoms: C_10  and  N_11 
REMARK    5  A    between atoms: N_11  and  C_12 
REMARK    6  A    between atoms: C_15  and  N_16 
REMARK       I    between atoms: N_16  and  C_17 
REMARK    7  A    between atoms: C_17  and  C_18 
ROOT
HETATM    1  N   UNL     1       6.311  31.256  59.177  1.00  0.00    -0.342 N 
HETATM    2  C   UNL     1       6.087  31.607  57.879  1.00  0.00     0.320 C 
HETATM    3  N   UNL     1       6.459  30.714  56.920  1.00  0.00    -0.309 N 
HETATM    4  O   UNL     1       5.591  32.684  57.558  1.00  0.00    -0.247 OA
HETATM    5  H   UNL     1       7.076  30.595  59.255  1.00  0.00     0.164 HD
HETATM    6  H   UNL     1       6.495  31.145  56.001  1.00  0.00     0.170 HD
ENDROOT
BRANCH   3   7
HETATM    7  C   UNL     1       6.837  29.361  56.989  1.00  0.00     0.036 A 
HETATM    8  C   UNL     1       8.145  28.928  57.207  1.00  0.00     0.032 A 
HETATM    9  C   UNL     1       8.457  27.563  57.198  1.00  0.00     0.032 A 
HETATM   10  C   UNL     1       7.464  26.608  56.983  1.00  0.00     0.035 A 
HETATM   11  C   UNL     1       6.142  27.039  56.842  1.00  0.00     0.032 A 
HETATM   12  C   UNL     1       5.829  28.403  56.858  1.00  0.00     0.032 A 
BRANCH  10  13
HETATM   13  N   UNL     1       7.711  25.230  56.870  1.00  0.00    -0.321 N 
HETATM   14  C   UNL     1       7.835  24.472  55.717  1.00  0.00     0.279 C 
HETATM   15  O   UNL     1       7.846  24.919  54.573  1.00  0.00    -0.265 OA
HETATM   16  H   UNL     1       7.735  24.688  57.729  1.00  0.00     0.169 HD
BRANCH  14  17
HETATM   17  C   UNL     1       7.932  23.050  55.994  1.00  0.00     0.142 A 
HETATM   18  O   UNL     1       8.362  22.634  57.230  1.00  0.00    -0.317 OA
HETATM   19  C   UNL     1       8.328  21.276  57.229  1.00  0.00     0.143 A 
HETATM   20  C   UNL     1       7.889  20.805  56.014  1.00  0.00     0.027 A 
HETATM   21  C   UNL     1       7.638  21.947  55.216  1.00  0.00     0.045 A 
ENDBRANCH  14  17
ENDBRANCH  10  13
ENDBRANCH   3   7
BRANCH   1  22
HETATM   22  C   UNL     1       6.207  32.162  60.310  1.00  0.00     0.130 C 
BRANCH  22  23
HETATM   23  C   UNL     1       4.802  32.575  60.776  1.00  0.00     0.031 C 
HETATM   24  C   UNL     1       4.453  32.136  62.192  1.00  0.00     0.241 C 
HETATM   25  N   UNL     1       4.753  33.336  63.087  1.00  0.00    -0.071 N 
HETATM   26  H   UNL     1       3.849  33.599  63.503  1.00  0.00     0.279 HD
HETATM   27  C   UNL     1       5.189  34.470  62.191  1.00  0.00     0.235 C 
HETATM   28  C   UNL     1       4.641  34.091  60.829  1.00  0.00     0.035 C 
BRANCH  25  29
HETATM   29  C   UNL     1       5.697  33.006  64.212  1.00  0.00     0.234 C 
BRANCH  29  30
HETATM   30  C   UNL     1       7.104  33.541  63.956  1.00  0.00     0.023 C 
HETATM   31  C   UNL     1       8.081  32.480  63.471  1.00  0.00     0.007 C 
ENDBRANCH  29  30
ENDBRANCH  25  29
ENDBRANCH  22  23
ENDBRANCH   1  22
TORSDOF 7
ENDMDL
MODEL 6
REMARK VINA RESULT:      -8.0      4.347      7.071
REMARK  7 active torsions:
REMARK  status: ('A' for Active; 'I' for Inactive)
REMARK    1  A    between atoms: C_2  and  C_3 
REMARK    2  A    between atoms: C_3  and  N_4 
REMARK    3  A    between atoms: C_7  and  C_8 
REMARK    4  A    between atoms: C_8  and  N_9 
REMARK       I    between atoms: N_9  and  C_10 
REMARK       I    between atoms: C_10  and  N_11 
REMARK    5  A    between atoms: N_11  and  C_12 
REMARK    6  A    between atoms: C_15  and  N_16 
REMARK       I    between atoms: N_16  and  C_17 
REMARK    7  A    between atoms: C_17  and  C_18 
ROOT
HETATM    1  N   UNL     1       5.475  26.843  52.866  1.00  0.00    -0.342 N 
HETATM    2  C   UNL     1       5.048  25.693  53.459  1.00  0.00     0.320 C 
HETATM    3  N   UNL     1       5.297  25.548  54.790  1.00  0.00    -0.309 N 
HETATM    4  O   UNL     1       4.478  24.798  52.840  1.00  0.00    -0.247 OA
HETATM    5  H   UNL     1       6.262  27.245  53.363  1.00  0.00     0.164 HD
HETATM    6  H   UNL     1       5.181  24.586  55.091  1.00  0.00     0.170 HD
ENDROOT
BRANCH   3   7
HETATM    7  C   UNL     1       5.720  26.461  55.773  1.00  0.00     0.036 A 
HETATM    8  C   UNL     1       4.985  27.581  56.163  1.00  0.00     0.032 A 
HETATM    9  C   UNL     1       5.501  28.484  57.102  1.00  0.00     0.032 A 
HETATM   10  C   UNL     1       6.755  28.274  57.674  1.00  0.00     0.035 A 
HETATM   11  C   UNL     1       7.456  27.112  57.340  1.00  0.00     0.032 A 
HETATM   12  C   UNL     1       6.938  26.207  56.408  1.00  0.00     0.032 A 
BRANCH  10  13
HETATM   13  N   UNL     1       7.378  29.177  58.552  1.00  0.00    -0.321 N 
HETATM   14  C   UNL     1       8.526  29.924  58.342  1.00  0.00     0.279 C 
HETATM   15  O   UNL     1       9.145  29.990  57.284  1.00  0.00    -0.265 OA
HETATM   16  H   UNL     1       6.996  29.255  59.490  1.00  0.00     0.169 HD
BRANCH  14  17
HETATM   17  C   UNL     1       8.956  30.629  59.536  1.00  0.00     0.142 A 
HETATM   18  O   UNL     1       8.858  30.007  60.756  1.00  0.00    -0.317 OA
HETATM   19  C   UNL     1       9.353  30.866  61.684  1.00  0.00     0.143 A 
HETATM   20  C   UNL     1       9.765  32.035  61.089  1.00  0.00     0.027 A 
HETATM   21  C   UNL     1       9.506  31.886  59.706  1.00  0.00     0.045 A 
ENDBRANCH  14  17
ENDBRANCH  10  13
ENDBRANCH   3   7
BRANCH   1  22
HETATM   22  C   UNL     1       5.517  27.070  51.431  1.00  0.00     0.130 C 
BRANCH  22  23
HETATM   23  C   UNL     1       5.292  28.502  50.920  1.00  0.00     0.031 C 
HETATM   24  C   UNL     1       5.593  28.698  49.440  1.00  0.00     0.241 C 
HETATM   25  N   UNL     1       4.251  28.574  48.721  1.00  0.00    -0.071 N 
HETATM   26  H   UNL     1       4.094  29.489  48.277  1.00  0.00     0.279 HD
HETATM   27  C   UNL     1       3.188  28.392  49.777  1.00  0.00     0.235 C 
HETATM   28  C   UNL     1       3.832  28.928  51.040  1.00  0.00     0.035 C 
BRANCH  25  29
HETATM   29  C   UNL     1       4.264  27.533  47.634  1.00  0.00     0.234 C 
BRANCH  29  30
HETATM   30  C   UNL     1       4.012  26.130  48.181  1.00  0.00     0.023 C 
HETATM   31  C   UNL     1       2.998  25.333  47.373  1.00  0.00     0.007 C 
ENDBRANCH  29  30
ENDBRANCH  25  29
ENDBRANCH  22  23
ENDBRANCH   1  22
TORSDOF 7
ENDMDL
MODEL 7
REMARK VINA RESULT:      -7.9      2.313     10.556
REMARK  7 active torsions:
REMARK  status: ('A' for Active; 'I' for Inactive)
REMARK    1  A    between atoms: C_2  and  C_3 
REMARK    2  A    between atoms: C_3  and  N_4 
REMARK    3  A    between atoms: C_7  and  C_8 
REMARK    4  A    between atoms: C_8  and  N_9 
REMARK       I    between atoms: N_9  and  C_10 
REMARK       I    between atoms: C_10  and  N_11 
REMARK    5  A    between atoms: N_11  and  C_12 
REMARK    6  A    between atoms: C_15  and  N_16 
REMARK       I    between atoms: N_16  and  C_17 
REMARK    7  A    between atoms: C_17  and  C_18 
ROOT
HETATM    1  N   UNL     1       7.698  31.157  60.587  1.00  0.00    -0.342 N 
HETATM    2  C   UNL     1       8.504  31.858  59.740  1.00  0.00     0.320 C 
HETATM    3  N   UNL     1       8.971  31.204  58.640  1.00  0.00    -0.309 N 
HETATM    4  O   UNL     1       8.827  33.026  59.945  1.00  0.00    -0.247 OA
HETATM    5  H   UNL     1       7.878  30.161  60.528  1.00  0.00     0.164 HD
HETATM    6  H   UNL     1       9.746  31.700  58.211  1.00  0.00     0.170 HD
ENDROOT
BRANCH   3   7
HETATM    7  C   UNL     1       8.610  29.980  58.049  1.00  0.00     0.036 A 
HETATM    8  C   UNL     1       7.326  29.438  58.104  1.00  0.00     0.032 A 
HETATM    9  C   UNL     1       7.056  28.181  57.549  1.00  0.00     0.032 A 
HETATM   10  C   UNL     1       8.062  27.452  56.918  1.00  0.00     0.035 A 
HETATM   11  C   UNL     1       9.330  28.030  56.795  1.00  0.00     0.032 A 
HETATM   12  C   UNL     1       9.598  29.289  57.345  1.00  0.00     0.032 A 
BRANCH  10  13
HETATM   13  N   UNL     1       7.894  26.151  56.417  1.00  0.00    -0.321 N 
HETATM   14  C   UNL     1       8.283  24.952  56.992  1.00  0.00     0.279 C 
HETATM   15  O   UNL     1       8.767  24.829  58.114  1.00  0.00    -0.265 OA
HETATM   16  H   UNL     1       7.501  26.056  55.484  1.00  0.00     0.169 HD
BRANCH  14  17
HETATM   17  C   UNL     1       8.080  23.819  56.108  1.00  0.00     0.142 A 
HETATM   18  O   UNL     1       8.131  22.547  56.622  1.00  0.00    -0.317 OA
HETATM   19  C   UNL     1       7.878  21.691  55.598  1.00  0.00     0.143 A 
HETATM   20  C   UNL     1       7.668  22.384  54.430  1.00  0.00     0.027 A 
HETATM   21  C   UNL     1       7.802  23.755  54.756  1.00  0.00     0.045 A 
ENDBRANCH  14  17
ENDBRANCH  10  13
ENDBRANCH   3   7
BRANCH   1  22
HETATM   22  C   UNL     1       7.306  31.600  61.914  1.00  0.00     0.130 C 
BRANCH  22  23
HETATM   23  C   UNL     1       5.894  32.183  62.092  1.00  0.00     0.031 C 
HETATM   24  C   UNL     1       5.403  32.217  63.533  1.00  0.00     0.241 C 
HETATM   25  N   UNL     1       5.700  33.626  64.043  1.00  0.00    -0.071 N 
HETATM   26  H   UNL     1       4.783  34.034  64.267  1.00  0.00     0.279 HD
HETATM   27  C   UNL     1       6.277  34.410  62.889  1.00  0.00     0.235 C 
HETATM   28  C   UNL     1       5.822  33.645  61.662  1.00  0.00     0.035 C 
BRANCH  25  29
HETATM   29  C   UNL     1       6.526  33.631  65.301  1.00  0.00     0.234 C 
BRANCH  29  30
HETATM   30  C   UNL     1       5.750  34.187  66.493  1.00  0.00     0.023 C 
HETATM   31  C   UNL     1       4.263  34.366  66.223  1.00  0.00     0.007 C 
ENDBRANCH  29  30
ENDBRANCH  25  29
ENDBRANCH  22  23
ENDBRANCH   1  22
TORSDOF 7
ENDMDL
MODEL 8
REMARK VINA RESULT:      -7.9      2.435     10.514
REMARK  7 active torsions:
REMARK  status: ('A' for Active; 'I' for Inactive)
REMARK    1  A    between atoms: C_2  and  C_3 
REMARK    2  A    between atoms: C_3  and  N_4 
REMARK    3  A    between atoms: C_7  and  C_8 
REMARK    4  A    between atoms: C_8  and  N_9 
REMARK       I    between atoms: N_9  and  C_10 
REMARK       I    between atoms: C_10  and  N_11 
REMARK    5  A    between atoms: N_11  and  C_12 
REMARK    6  A    between atoms: C_15  and  N_16 
REMARK       I    between atoms: N_16  and  C_17 
REMARK    7  A    between atoms: C_17  and  C_18 
ROOT
HETATM    1  N   UNL     1       5.808  31.955  60.876  1.00  0.00    -0.342 N 
HETATM    2  C   UNL     1       5.474  32.687  59.775  1.00  0.00     0.320 C 
HETATM    3  N   UNL     1       5.768  32.152  58.558  1.00  0.00    -0.309 N 
HETATM    4  O   UNL     1       4.947  33.795  59.850  1.00  0.00    -0.247 OA
HETATM    5  H   UNL     1       6.581  31.327  60.681  1.00  0.00     0.164 HD
HETATM    6  H   UNL     1       5.724  32.850  57.822  1.00  0.00     0.170 HD
ENDROOT
BRANCH   3   7
HETATM    7  C   UNL     1       6.157  30.858  58.168  1.00  0.00     0.036 A 
HETATM    8  C   UNL     1       7.460  30.371  58.276  1.00  0.00     0.032 A 
HETATM    9  C   UNL     1       7.787  29.093  57.805  1.00  0.00     0.032 A 
HETATM   10  C   UNL     1       6.814  28.277  57.230  1.00  0.00     0.035 A 
HETATM   11  C   UNL     1       5.494  28.736  57.193  1.00  0.00     0.032 A 
HETATM   12  C   UNL     1       5.166  30.010  57.669  1.00  0.00     0.032 A 
BRANCH  10  13
HETATM   13  N   UNL     1       7.080  27.024  56.655  1.00  0.00    -0.321 N 
HETATM   14  C   UNL     1       7.693  25.925  57.235  1.00  0.00     0.279 C 
HETATM   15  O   UNL     1       8.024  25.840  58.415  1.00  0.00    -0.265 OA
HETATM   16  H   UNL     1       6.868  26.908  55.668  1.00  0.00     0.169 HD
BRANCH  14  17
HETATM   17  C   UNL     1       7.936  24.856  56.283  1.00  0.00     0.142 A 
HETATM   18  O   UNL     1       8.985  23.997  56.491  1.00  0.00    -0.317 OA
HETATM   19  C   UNL     1       8.963  23.087  55.483  1.00  0.00     0.143 A 
HETATM   20  C   UNL     1       7.922  23.344  54.623  1.00  0.00     0.027 A 
HETATM   21  C   UNL     1       7.261  24.487  55.135  1.00  0.00     0.045 A 
ENDBRANCH  14  17
ENDBRANCH  10  13
ENDBRANCH   3   7
BRANCH   1  22
HETATM   22  C   UNL     1       5.796  32.456  62.240  1.00  0.00     0.130 C 
BRANCH  22  23
HETATM   23  C   UNL     1       6.918  33.416  62.665  1.00  0.00     0.031 C 
HETATM   24  C   UNL     1       6.458  34.840  62.947  1.00  0.00     0.241 C 
HETATM   25  N   UNL     1       6.253  34.922  64.458  1.00  0.00    -0.071 N 
HETATM   26  H   UNL     1       6.925  35.628  64.786  1.00  0.00     0.279 HD
HETATM   27  C   UNL     1       6.667  33.593  65.042  1.00  0.00     0.235 C 
HETATM   28  C   UNL     1       7.565  32.991  63.980  1.00  0.00     0.035 C 
BRANCH  25  29
HETATM   29  C   UNL     1       4.873  35.390  64.837  1.00  0.00     0.234 C 
BRANCH  29  30
HETATM   30  C   UNL     1       3.866  34.243  64.862  1.00  0.00     0.023 C 
HETATM   31  C   UNL     1       2.868  34.282  63.713  1.00  0.00     0.007 C 
ENDBRANCH  29  30
ENDBRANCH  25  29
ENDBRANCH  22  23
ENDBRANCH   1  22
TORSDOF 7
ENDMDL
MODEL 9
REMARK VINA RESULT:      -7.8      1.890      2.168
REMARK  7 active torsions:
REMARK  status: ('A' for Active; 'I' for Inactive)
REMARK    1  A    between atoms: C_2  and  C_3 
REMARK    2  A    between atoms: C_3  and  N_4 
REMARK    3  A    between atoms: C_7  and  C_8 
REMARK    4  A    between atoms: C_8  and  N_9 
REMARK       I    between atoms: N_9  and  C_10 
REMARK       I    between atoms: C_10  and  N_11 
REMARK    5  A    between atoms: N_11  and  C_12 
REMARK    6  A    between atoms: C_15  and  N_16 
REMARK       I    between atoms: N_16  and  C_17 
REMARK    7  A    between atoms: C_17  and  C_18 
ROOT
HETATM    1  N   UNL     1       7.708  28.167  57.991  1.00  0.00    -0.342 N 
HETATM    2  C   UNL     1       8.767  28.934  57.603  1.00  0.00     0.320 C 
HETATM    3  N   UNL     1       8.845  30.193  58.116  1.00  0.00    -0.309 N 
HETATM    4  O   UNL     1       9.619  28.538  56.811  1.00  0.00    -0.247 OA
HETATM    5  H   UNL     1       6.918  28.741  58.265  1.00  0.00     0.164 HD
HETATM    6  H   UNL     1       9.499  30.770  57.595  1.00  0.00     0.170 HD
ENDROOT
BRANCH   3   7
HETATM    7  C   UNL     1       8.164  30.823  59.173  1.00  0.00     0.036 A 
HETATM    8  C   UNL     1       7.012  31.593  59.008  1.00  0.00     0.032 A 
HETATM    9  C   UNL     1       6.425  32.245  60.100  1.00  0.00     0.032 A 
HETATM   10  C   UNL     1       6.973  32.127  61.376  1.00  0.00     0.035 A 
HETATM   11  C   UNL     1       8.081  31.293  61.554  1.00  0.00     0.032 A 
HETATM   12  C   UNL     1       8.664  30.637  60.463  1.00  0.00     0.032 A 
BRANCH  10  13
HETATM   13  N   UNL     1       6.498  32.820  62.502  1.00  0.00    -0.321 N 
HETATM   14  C   UNL     1       5.478  32.456  63.366  1.00  0.00     0.279 C 
HETATM   15  O   UNL     1       4.873  31.388  63.339  1.00  0.00    -0.265 OA
HETATM   16  H   UNL     1       6.890  33.739  62.684  1.00  0.00     0.169 HD
BRANCH  14  17
HETATM   17  C   UNL     1       5.164  33.499  64.326  1.00  0.00     0.142 A 
HETATM   18  O   UNL     1       4.460  33.180  65.460  1.00  0.00    -0.317 OA
HETATM   19  C   UNL     1       4.335  34.319  66.188  1.00  0.00     0.143 A 
HETATM   20  C   UNL     1       4.941  35.372  65.545  1.00  0.00     0.027 A 
HETATM   21  C   UNL     1       5.472  34.846  64.342  1.00  0.00     0.045 A 
ENDBRANCH  14  17
ENDBRANCH  10  13
ENDBRANCH   3   7
BRANCH   1  22
HETATM   22  C   UNL     1       7.328  26.907  57.375  1.00  0.00     0.130 C 
BRANCH  22  23
HETATM   23  C   UNL     1       5.829  26.598  57.233  1.00  0.00     0.031 C 
HETATM   24  C   UNL     1       5.031  27.665  56.495  1.00  0.00     0.241 C 
HETATM   25  N   UNL     1       4.939  27.190  55.046  1.00  0.00    -0.071 N 
HETATM   26  H   UNL     1       3.935  27.055  54.867  1.00  0.00     0.279 HD
HETATM   27  C   UNL     1       5.601  25.835  54.972  1.00  0.00     0.235 C 
HETATM   28  C   UNL     1       5.582  25.340  56.405  1.00  0.00     0.035 C 
BRANCH  25  29
HETATM   29  C   UNL     1       5.447  28.209  54.063  1.00  0.00     0.234 C 
BRANCH  29  30
HETATM   30  C   UNL     1       4.629  28.219  52.773  1.00  0.00     0.023 C 
HETATM   31  C   UNL     1       5.430  28.630  51.546  1.00  0.00     0.007 C 
ENDBRANCH  29  30
ENDBRANCH  25  29
ENDBRANCH  22  23
ENDBRANCH   1  22
TORSDOF 7
ENDMDL
MODEL 10
REMARK VINA RESULT:      -7.6      3.838      6.435
REMARK  7 active torsions:
REMARK  status: ('A' for Active; 'I' for Inactive)
REMARK    1  A    between atoms: C_2  and  C_3 
REMARK    2  A    between atoms: C_3  and  N_4 
REMARK    3  A    between atoms: C_7  and  C_8 
REMARK    4  A    between atoms: C_8  and  N_9 
REMARK       I    between atoms: N_9  and  C_10 
REMARK       I    between atoms: C_10  and  N_11 
REMARK    5  A    between atoms: N_11  and  C_12 
REMARK    6  A    between atoms: C_15  and  N_16 
REMARK       I    between atoms: N_16  and  C_17 
REMARK    7  A    between atoms: C_17  and  C_18 
ROOT
HETATM    1  N   UNL     1       6.014  33.180  61.163  1.00  0.00    -0.342 N 
HETATM    2  C   UNL     1       4.788  33.713  60.896  1.00  0.00     0.320 C 
HETATM    3  N   UNL     1       4.063  34.170  61.954  1.00  0.00    -0.309 N 
HETATM    4  O   UNL     1       4.324  33.774  59.760  1.00  0.00    -0.247 OA
HETATM    5  H   UNL     1       6.060  32.815  62.108  1.00  0.00     0.164 HD
HETATM    6  H   UNL     1       3.088  34.310  61.708  1.00  0.00     0.170 HD
ENDROOT
BRANCH   3   7
HETATM    7  C   UNL     1       4.410  34.423  63.294  1.00  0.00     0.036 A 
HETATM    8  C   UNL     1       4.228  35.653  63.926  1.00  0.00     0.032 A 
HETATM    9  C   UNL     1       4.660  35.850  65.244  1.00  0.00     0.032 A 
HETATM   10  C   UNL     1       5.269  34.817  65.954  1.00  0.00     0.035 A 
HETATM   11  C   UNL     1       5.381  33.563  65.346  1.00  0.00     0.032 A 
HETATM   12  C   UNL     1       4.944  33.364  64.032  1.00  0.00     0.032 A 
BRANCH  10  13
HETATM   13  N   UNL     1       5.808  34.962  67.243  1.00  0.00    -0.321 N 
HETATM   14  C   UNL     1       5.342  34.429  68.434  1.00  0.00     0.279 C 
HETATM   15  O   UNL     1       4.406  33.641  68.539  1.00  0.00    -0.265 OA
HETATM   16  H   UNL     1       6.601  35.588  67.350  1.00  0.00     0.169 HD
BRANCH  14  17
HETATM   17  C   UNL     1       6.072  34.923  69.588  1.00  0.00     0.142 A 
HETATM   18  O   UNL     1       5.569  34.703  70.846  1.00  0.00    -0.317 OA
HETATM   19  C   UNL     1       6.453  35.234  71.729  1.00  0.00     0.143 A 
HETATM   20  C   UNL     1       7.518  35.797  71.067  1.00  0.00     0.027 A 
HETATM   21  C   UNL     1       7.271  35.602  69.686  1.00  0.00     0.045 A 
ENDBRANCH  14  17
ENDBRANCH  10  13
ENDBRANCH   3   7
BRANCH   1  22
HETATM   22  C   UNL     1       6.818  32.433  60.211  1.00  0.00     0.130 C 
BRANCH  22  23
HETATM   23  C   UNL     1       7.996  31.607  60.753  1.00  0.00     0.031 C 
HETATM   24  C   UNL     1       8.220  30.282  60.037  1.00  0.00     0.241 C 
HETATM   25  N   UNL     1       9.303  30.547  58.994  1.00  0.00    -0.071 N 
HETATM   26  H   UNL     1      10.092  29.942  59.259  1.00  0.00     0.279 HD
HETATM   27  C   UNL     1       9.751  31.979  59.164  1.00  0.00     0.235 C 
HETATM   28  C   UNL     1       9.328  32.330  60.576  1.00  0.00     0.035 C 
BRANCH  25  29
HETATM   29  C   UNL     1       8.880  30.166  57.601  1.00  0.00     0.234 C 
BRANCH  29  30
HETATM   30  C   UNL     1       9.784  29.089  57.003  1.00  0.00     0.023 C 
HETATM   31  C   UNL     1      11.252  29.487  56.946  1.00  0.00     0.007 C 
ENDBRANCH  29  30
ENDBRANCH  25  29
ENDBRANCH  22  23
ENDBRANCH   1  22
TORSDOF 7
ENDMDL
