MODEL 1
REMARK VINA RESULT:      -9.4      0.000      0.000
REMARK  5 active torsions:
REMARK  status: ('A' for Active; 'I' for Inactive)
REMARK    1  A    between atoms: C_8  and  C_9 
REMARK    2  A    between atoms: C_9  and  C_10 
REMARK       I    between atoms: C_10  and  N_11 
REMARK    3  A    between atoms: N_11  and  N_12 
REMARK    4  A    between atoms: C_13  and  C_14 
REMARK    5  A    between atoms: C_15  and  O_16 
ROOT
HETATM    1  C   UNL     1       7.607  25.269  56.989  1.00  0.00     0.241 C 
HETATM    2  N   UNL     1       7.198  26.563  57.292  1.00  0.00    -0.247 N 
HETATM    3  O   UNL     1       8.706  24.798  57.281  1.00  0.00    -0.271 OA
HETATM    4  H   UNL     1       6.308  26.901  56.938  1.00  0.00     0.192 HD
ENDROOT
BRANCH   1   5
HETATM    5  C   UNL     1       6.531  24.436  56.306  1.00  0.00     0.145 C 
BRANCH   5   6
HETATM    6  C   UNL     1       7.035  23.793  55.051  1.00  0.00    -0.021 A 
HETATM    7  C   UNL     1       7.598  22.483  54.915  1.00  0.00    -0.001 A 
HETATM    8  C   UNL     1       7.895  21.439  55.818  1.00  0.00     0.014 A 
HETATM    9  C   UNL     1       7.851  22.278  53.558  1.00  0.00     0.042 A 
HETATM   10  C   UNL     1       8.419  20.235  55.332  1.00  0.00     0.001 A 
HETATM   11  C   UNL     1       8.649  20.060  53.970  1.00  0.00     0.002 A 
HETATM   12  C   UNL     1       8.372  21.080  53.056  1.00  0.00     0.030 A 
HETATM   13  N   UNL     1       7.496  23.431  52.899  1.00  0.00    -0.365 N 
HETATM   14  H   UNL     1       7.576  23.571  51.901  1.00  0.00     0.165 HD
HETATM   15  C   UNL     1       7.001  24.347  53.786  1.00  0.00     0.097 A 
ENDBRANCH   5   6
ENDBRANCH   1   5
BRANCH   2  16
HETATM   16  N   UNL     1       8.096  27.456  57.791  1.00  0.00    -0.184 NA
HETATM   17  C   UNL     1       7.649  28.663  57.939  1.00  0.00     0.153 C 
BRANCH  17  18
HETATM   18  C   UNL     1       8.537  29.746  58.403  1.00  0.00     0.017 A 
HETATM   19  C   UNL     1       9.567  30.255  57.603  1.00  0.00     0.077 A 
HETATM   20  C   UNL     1      10.356  31.307  58.063  1.00  0.00     0.039 A 
HETATM   21  C   UNL     1      10.128  31.847  59.329  1.00  0.00     0.022 A 
HETATM   22  C   UNL     1       9.108  31.330  60.128  1.00  0.00     0.012 A 
HETATM   23 BR   UNL     1       8.804  32.060  61.847  1.00  0.00    -0.051 Br
HETATM   24  C   UNL     1       8.306  30.284  59.674  1.00  0.00     0.034 A 
BRANCH  19  25
HETATM   25  O   UNL     1       9.852  29.785  56.351  1.00  0.00    -0.360 OA
HETATM   26  H   UNL     1      10.830  29.716  56.257  1.00  0.00     0.217 HD
ENDBRANCH  19  25
ENDBRANCH  17  18
ENDBRANCH   2  16
TORSDOF 5
ENDMDL
MODEL 2
REMARK VINA RESULT:      -9.2      6.504      9.074
REMARK  5 active torsions:
REMARK  status: ('A' for Active; 'I' for Inactive)
REMARK    1  A    between atoms: C_8  and  C_9 
REMARK    2  A    between atoms: C_9  and  C_10 
REMARK       I    between atoms: C_10  and  N_11 
REMARK    3  A    between atoms: N_11  and  N_12 
REMARK    4  A    between atoms: C_13  and  C_14 
REMARK    5  A    between atoms: C_15  and  O_16 
ROOT
HETATM    1  C   UNL     1       5.973  25.375  51.868  1.00  0.00     0.241 C 
HETATM    2  N   UNL     1       5.951  26.139  50.707  1.00  0.00    -0.247 N 
HETATM    3  O   UNL     1       4.996  24.792  52.338  1.00  0.00    -0.271 OA
HETATM    4  H   UNL     1       6.781  26.658  50.434  1.00  0.00     0.192 HD
ENDROOT
BRANCH   1   5
HETATM    5  C   UNL     1       7.356  25.257  52.492  1.00  0.00     0.145 C 
BRANCH   5   6
HETATM    6  C   UNL     1       7.342  24.410  53.726  1.00  0.00    -0.021 A 
HETATM    7  C   UNL     1       7.598  23.003  53.815  1.00  0.00    -0.001 A 
HETATM    8  C   UNL     1       7.887  21.993  52.871  1.00  0.00     0.014 A 
HETATM    9  C   UNL     1       7.556  22.656  55.166  1.00  0.00     0.042 A 
HETATM   10  C   UNL     1       8.133  20.687  53.313  1.00  0.00     0.001 A 
HETATM   11  C   UNL     1       8.093  20.378  54.670  1.00  0.00     0.002 A 
HETATM   12  C   UNL     1       7.801  21.356  55.624  1.00  0.00     0.030 A 
HETATM   13  N   UNL     1       7.245  23.796  55.869  1.00  0.00    -0.365 N 
HETATM   14  H   UNL     1       7.143  23.842  56.874  1.00  0.00     0.165 HD
HETATM   15  C   UNL     1       7.117  24.856  55.015  1.00  0.00     0.097 A 
ENDBRANCH   5   6
ENDBRANCH   1   5
BRANCH   2  16
HETATM   16  N   UNL     1       4.763  26.431  50.111  1.00  0.00    -0.184 NA
HETATM   17  C   UNL     1       4.848  26.886  48.902  1.00  0.00     0.153 C 
BRANCH  17  18
HETATM   18  C   UNL     1       3.642  27.310  48.166  1.00  0.00     0.017 A 
HETATM   19  C   UNL     1       2.555  26.452  47.965  1.00  0.00     0.077 A 
HETATM   20  C   UNL     1       1.417  26.905  47.301  1.00  0.00     0.039 A 
HETATM   21  C   UNL     1       1.365  28.215  46.824  1.00  0.00     0.022 A 
HETATM   22  C   UNL     1       2.454  29.065  47.017  1.00  0.00     0.012 A 
HETATM   23 BR   UNL     1       2.383  30.840  46.365  1.00  0.00    -0.051 Br
HETATM   24  C   UNL     1       3.594  28.625  47.689  1.00  0.00     0.034 A 
BRANCH  19  25
HETATM   25  O   UNL     1       2.526  25.156  48.403  1.00  0.00    -0.360 OA
HETATM   26  H   UNL     1       3.367  24.968  48.882  1.00  0.00     0.217 HD
ENDBRANCH  19  25
ENDBRANCH  17  18
ENDBRANCH   2  16
TORSDOF 5
ENDMDL
MODEL 3
REMARK VINA RESULT:      -8.9      1.758      2.158
REMARK  5 active torsions:
REMARK  status: ('A' for Active; 'I' for Inactive)
REMARK    1  A    between atoms: C_8  and  C_9 
REMARK    2  A    between atoms: C_9  and  C_10 
REMARK       I    between atoms: C_10  and  N_11 
REMARK    3  A    between atoms: N_11  and  N_12 
REMARK    4  A    between atoms: C_13  and  C_14 
REMARK    5  A    between atoms: C_15  and  O_16 
ROOT
HETATM    1  C   UNL     1       6.422  26.562  55.179  1.00  0.00     0.241 C 
HETATM    2  N   UNL     1       7.585  27.256  54.864  1.00  0.00    -0.247 N 
HETATM    3  O   UNL     1       5.529  26.991  55.910  1.00  0.00    -0.271 OA
HETATM    4  H   UNL     1       8.311  26.796  54.324  1.00  0.00     0.192 HD
ENDROOT
BRANCH   1   5
HETATM    5  C   UNL     1       6.307  25.218  54.473  1.00  0.00     0.145 C 
BRANCH   5   6
HETATM    6  C   UNL     1       7.064  24.144  55.190  1.00  0.00    -0.021 A 
HETATM    7  C   UNL     1       7.554  22.915  54.641  1.00  0.00    -0.001 A 
HETATM    8  C   UNL     1       7.479  22.305  53.370  1.00  0.00     0.014 A 
HETATM    9  C   UNL     1       8.265  22.263  55.649  1.00  0.00     0.042 A 
HETATM   10  C   UNL     1       8.124  21.081  53.154  1.00  0.00     0.001 A 
HETATM   11  C   UNL     1       8.835  20.463  54.180  1.00  0.00     0.002 A 
HETATM   12  C   UNL     1       8.917  21.041  55.449  1.00  0.00     0.030 A 
HETATM   13  N   UNL     1       8.177  23.042  56.779  1.00  0.00    -0.365 N 
HETATM   14  H   UNL     1       8.597  22.813  57.670  1.00  0.00     0.165 HD
HETATM   15  C   UNL     1       7.460  24.176  56.514  1.00  0.00     0.097 A 
ENDBRANCH   5   6
ENDBRANCH   1   5
BRANCH   2  16
HETATM   16  N   UNL     1       7.877  28.415  55.516  1.00  0.00    -0.184 NA
HETATM   17  C   UNL     1       8.708  28.298  56.502  1.00  0.00     0.153 C 
BRANCH  17  18
HETATM   18  C   UNL     1       9.056  29.462  57.339  1.00  0.00     0.017 A 
HETATM   19  C   UNL     1      10.345  30.009  57.351  1.00  0.00     0.077 A 
HETATM   20  C   UNL     1      10.621  31.135  58.124  1.00  0.00     0.039 A 
HETATM   21  C   UNL     1       9.614  31.712  58.899  1.00  0.00     0.022 A 
HETATM   22  C   UNL     1       8.334  31.158  58.893  1.00  0.00     0.012 A 
HETATM   23 BR   UNL     1       6.972  31.938  59.949  1.00  0.00    -0.051 Br
HETATM   24  C   UNL     1       8.044  30.037  58.115  1.00  0.00     0.034 A 
BRANCH  19  25
HETATM   25  O   UNL     1      11.384  29.506  56.618  1.00  0.00    -0.360 OA
HETATM   26  H   UNL     1      11.852  30.255  56.181  1.00  0.00     0.217 HD
ENDBRANCH  19  25
ENDBRANCH  17  18
ENDBRANCH   2  16
TORSDOF 5
ENDMDL
MODEL 4
REMARK VINA RESULT:      -8.8      5.316      7.074
REMARK  5 active torsions:
REMARK  status: ('A' for Active; 'I' for Inactive)
REMARK    1  A    between atoms: C_8  and  C_9 
REMARK    2  A    between atoms: C_9  and  C_10 
REMARK       I    between atoms: C_10  and  N_11 
REMARK    3  A    between atoms: N_11  and  N_12 
REMARK    4  A    between atoms: C_13  and  C_14 
REMARK    5  A    between atoms: C_15  and  O_16 
ROOT
HETATM    1  C   UNL     1       6.884  25.515  55.125  1.00  0.00     0.241 C 
HETATM    2  N   UNL     1       7.320  26.305  54.066  1.00  0.00    -0.247 N 
HETATM    3  O   UNL     1       5.717  25.169  55.302  1.00  0.00    -0.271 OA
HETATM    4  H   UNL     1       8.286  26.618  54.041  1.00  0.00     0.192 HD
ENDROOT
BRANCH   1   5
HETATM    5  C   UNL     1       8.010  25.045  56.035  1.00  0.00     0.145 C 
BRANCH   5   6
HETATM    6  C   UNL     1       8.112  23.552  56.071  1.00  0.00    -0.021 A 
HETATM    7  C   UNL     1       8.106  22.655  54.954  1.00  0.00    -0.001 A 
HETATM    8  C   UNL     1       7.975  22.822  53.558  1.00  0.00     0.014 A 
HETATM    9  C   UNL     1       8.304  21.367  55.452  1.00  0.00     0.042 A 
HETATM   10  C   UNL     1       8.057  21.703  52.720  1.00  0.00     0.001 A 
HETATM   11  C   UNL     1       8.267  20.433  53.250  1.00  0.00     0.002 A 
HETATM   12  C   UNL     1       8.392  20.240  54.628  1.00  0.00     0.030 A 
HETATM   13  N   UNL     1       8.386  21.469  56.821  1.00  0.00    -0.365 N 
HETATM   14  H   UNL     1       8.524  20.688  57.449  1.00  0.00     0.165 HD
HETATM   15  C   UNL     1       8.275  22.777  57.204  1.00  0.00     0.097 A 
ENDBRANCH   5   6
ENDBRANCH   1   5
BRANCH   2  16
HETATM   16  N   UNL     1       6.410  26.896  53.245  1.00  0.00    -0.184 NA
HETATM   17  C   UNL     1       6.409  26.467  52.023  1.00  0.00     0.153 C 
BRANCH  17  18
HETATM   18  C   UNL     1       5.523  27.071  51.010  1.00  0.00     0.017 A 
HETATM   19  C   UNL     1       5.358  28.457  50.899  1.00  0.00     0.077 A 
HETATM   20  C   UNL     1       4.545  28.989  49.901  1.00  0.00     0.039 A 
HETATM   21  C   UNL     1       3.882  28.137  49.016  1.00  0.00     0.022 A 
HETATM   22  C   UNL     1       4.040  26.757  49.135  1.00  0.00     0.012 A 
HETATM   23 BR   UNL     1       3.136  25.604  47.938  1.00  0.00    -0.051 Br
HETATM   24  C   UNL     1       4.860  26.214  50.125  1.00  0.00     0.034 A 
BRANCH  19  25
HETATM   25  O   UNL     1       5.975  29.357  51.724  1.00  0.00    -0.360 OA
HETATM   26  H   UNL     1       5.550  30.238  51.600  1.00  0.00     0.217 HD
ENDBRANCH  19  25
ENDBRANCH  17  18
ENDBRANCH   2  16
TORSDOF 5
ENDMDL
MODEL 5
REMARK VINA RESULT:      -8.6      3.581      9.156
REMARK  5 active torsions:
REMARK  status: ('A' for Active; 'I' for Inactive)
REMARK    1  A    between atoms: C_8  and  C_9 
REMARK    2  A    between atoms: C_9  and  C_10 
REMARK       I    between atoms: C_10  and  N_11 
REMARK    3  A    between atoms: N_11  and  N_12 
REMARK    4  A    between atoms: C_13  and  C_14 
REMARK    5  A    between atoms: C_15  and  O_16 
ROOT
HETATM    1  C   UNL     1       7.892  27.889  56.591  1.00  0.00     0.241 C 
HETATM    2  N   UNL     1       7.252  27.004  55.731  1.00  0.00    -0.247 N 
HETATM    3  O   UNL     1       8.628  27.551  57.518  1.00  0.00    -0.271 OA
HETATM    4  H   UNL     1       6.592  27.361  55.046  1.00  0.00     0.192 HD
ENDROOT
BRANCH   1   5
HETATM    5  C   UNL     1       7.657  29.352  56.242  1.00  0.00     0.145 C 
BRANCH   5   6
HETATM    6  C   UNL     1       7.092  30.118  57.399  1.00  0.00    -0.021 A 
HETATM    7  C   UNL     1       7.820  30.857  58.387  1.00  0.00    -0.001 A 
HETATM    8  C   UNL     1       9.192  31.082  58.636  1.00  0.00     0.014 A 
HETATM    9  C   UNL     1       6.885  31.472  59.219  1.00  0.00     0.042 A 
HETATM   10  C   UNL     1       9.572  31.916  59.695  1.00  0.00     0.001 A 
HETATM   11  C   UNL     1       8.611  32.522  60.500  1.00  0.00     0.002 A 
HETATM   12  C   UNL     1       7.248  32.310  60.280  1.00  0.00     0.030 A 
HETATM   13  N   UNL     1       5.638  31.090  58.784  1.00  0.00    -0.365 N 
HETATM   14  H   UNL     1       4.767  31.382  59.206  1.00  0.00     0.165 HD
HETATM   15  C   UNL     1       5.751  30.278  57.688  1.00  0.00     0.097 A 
ENDBRANCH   5   6
ENDBRANCH   1   5
BRANCH   2  16
HETATM   16  N   UNL     1       7.274  25.669  55.995  1.00  0.00    -0.184 NA
HETATM   17  C   UNL     1       8.160  24.991  55.338  1.00  0.00     0.153 C 
BRANCH  17  18
HETATM   18  C   UNL     1       8.244  23.525  55.475  1.00  0.00     0.017 A 
HETATM   19  C   UNL     1       8.305  22.897  56.725  1.00  0.00     0.077 A 
HETATM   20  C   UNL     1       8.342  21.507  56.811  1.00  0.00     0.039 A 
HETATM   21  C   UNL     1       8.330  20.737  55.647  1.00  0.00     0.022 A 
HETATM   22  C   UNL     1       8.280  21.365  54.403  1.00  0.00     0.012 A 
HETATM   23 BR   UNL     1       8.271  20.319  52.826  1.00  0.00    -0.051 Br
HETATM   24  C   UNL     1       8.234  22.756  54.306  1.00  0.00     0.034 A 
BRANCH  19  25
HETATM   25  O   UNL     1       8.317  23.579  57.911  1.00  0.00    -0.360 OA
HETATM   26  H   UNL     1       8.278  24.545  57.718  1.00  0.00     0.217 HD
ENDBRANCH  19  25
ENDBRANCH  17  18
ENDBRANCH   2  16
TORSDOF 5
ENDMDL
MODEL 6
REMARK VINA RESULT:      -8.6      2.043      2.556
REMARK  5 active torsions:
REMARK  status: ('A' for Active; 'I' for Inactive)
REMARK    1  A    between atoms: C_8  and  C_9 
REMARK    2  A    between atoms: C_9  and  C_10 
REMARK       I    between atoms: C_10  and  N_11 
REMARK    3  A    between atoms: N_11  and  N_12 
REMARK    4  A    between atoms: C_13  and  C_14 
REMARK    5  A    between atoms: C_15  and  O_16 
ROOT
HETATM    1  C   UNL     1       6.728  26.660  54.909  1.00  0.00     0.241 C 
HETATM    2  N   UNL     1       7.574  27.725  55.197  1.00  0.00    -0.247 N 
HETATM    3  O   UNL     1       5.541  26.606  55.227  1.00  0.00    -0.271 OA
HETATM    4  H   UNL     1       8.563  27.653  54.975  1.00  0.00     0.192 HD
ENDROOT
BRANCH   1   5
HETATM    5  C   UNL     1       7.391  25.564  54.087  1.00  0.00     0.145 C 
BRANCH   5   6
HETATM    6  C   UNL     1       7.649  24.333  54.901  1.00  0.00    -0.021 A 
HETATM    7  C   UNL     1       7.830  22.997  54.417  1.00  0.00    -0.001 A 
HETATM    8  C   UNL     1       7.796  22.399  53.139  1.00  0.00     0.014 A 
HETATM    9  C   UNL     1       8.123  22.192  55.519  1.00  0.00     0.042 A 
HETATM   10  C   UNL     1       8.066  21.031  53.011  1.00  0.00     0.001 A 
HETATM   11  C   UNL     1       8.365  20.259  54.131  1.00  0.00     0.002 A 
HETATM   12  C   UNL     1       8.397  20.824  55.408  1.00  0.00     0.030 A 
HETATM   13  N   UNL     1       8.080  22.996  56.633  1.00  0.00    -0.365 N 
HETATM   14  H   UNL     1       8.249  22.678  57.578  1.00  0.00     0.165 HD
HETATM   15  C   UNL     1       7.799  24.285  56.274  1.00  0.00     0.097 A 
ENDBRANCH   5   6
ENDBRANCH   1   5
BRANCH   2  16
HETATM   16  N   UNL     1       7.153  28.718  56.027  1.00  0.00    -0.184 NA
HETATM   17  C   UNL     1       7.990  29.052  56.957  1.00  0.00     0.153 C 
BRANCH  17  18
HETATM   18  C   UNL     1       7.631  30.063  57.970  1.00  0.00     0.017 A 
HETATM   19  C   UNL     1       6.556  30.942  57.793  1.00  0.00     0.077 A 
HETATM   20  C   UNL     1       6.225  31.854  58.793  1.00  0.00     0.039 A 
HETATM   21  C   UNL     1       6.974  31.900  59.969  1.00  0.00     0.022 A 
HETATM   22  C   UNL     1       8.051  31.031  60.138  1.00  0.00     0.012 A 
HETATM   23 BR   UNL     1       9.069  31.099  61.731  1.00  0.00    -0.051 Br
HETATM   24  C   UNL     1       8.385  30.107  59.148  1.00  0.00     0.034 A 
BRANCH  19  25
HETATM   25  O   UNL     1       5.771  30.957  56.673  1.00  0.00    -0.360 OA
HETATM   26  H   UNL     1       4.905  31.368  56.902  1.00  0.00     0.217 HD
ENDBRANCH  19  25
ENDBRANCH  17  18
ENDBRANCH   2  16
TORSDOF 5
ENDMDL
MODEL 7
REMARK VINA RESULT:      -8.4      3.658      8.535
REMARK  5 active torsions:
REMARK  status: ('A' for Active; 'I' for Inactive)
REMARK    1  A    between atoms: C_8  and  C_9 
REMARK    2  A    between atoms: C_9  and  C_10 
REMARK       I    between atoms: C_10  and  N_11 
REMARK    3  A    between atoms: N_11  and  N_12 
REMARK    4  A    between atoms: C_13  and  C_14 
REMARK    5  A    between atoms: C_15  and  O_16 
ROOT
HETATM    1  C   UNL     1       6.069  27.350  56.099  1.00  0.00     0.241 C 
HETATM    2  N   UNL     1       6.880  26.649  55.213  1.00  0.00    -0.247 N 
HETATM    3  O   UNL     1       5.465  26.841  57.042  1.00  0.00    -0.271 OA
HETATM    4  H   UNL     1       7.274  27.130  54.409  1.00  0.00     0.192 HD
ENDROOT
BRANCH   1   5
HETATM    5  C   UNL     1       6.042  28.849  55.842  1.00  0.00     0.145 C 
BRANCH   5   6
HETATM    6  C   UNL     1       6.826  29.607  56.868  1.00  0.00    -0.021 A 
HETATM    7  C   UNL     1       8.251  29.738  56.948  1.00  0.00    -0.001 A 
HETATM    8  C   UNL     1       9.331  29.225  56.196  1.00  0.00     0.014 A 
HETATM    9  C   UNL     1       8.531  30.595  58.012  1.00  0.00     0.042 A 
HETATM   10  C   UNL     1      10.639  29.596  56.529  1.00  0.00     0.001 A 
HETATM   11  C   UNL     1      10.883  30.462  57.591  1.00  0.00     0.002 A 
HETATM   12  C   UNL     1       9.833  30.977  58.357  1.00  0.00     0.030 A 
HETATM   13  N   UNL     1       7.330  30.939  58.585  1.00  0.00    -0.365 N 
HETATM   14  H   UNL     1       7.228  31.550  59.385  1.00  0.00     0.165 HD
HETATM   15  C   UNL     1       6.298  30.353  57.904  1.00  0.00     0.097 A 
ENDBRANCH   5   6
ENDBRANCH   1   5
BRANCH   2  16
HETATM   16  N   UNL     1       6.903  25.289  55.248  1.00  0.00    -0.184 NA
HETATM   17  C   UNL     1       8.042  24.764  55.569  1.00  0.00     0.153 C 
BRANCH  17  18
HETATM   18  C   UNL     1       8.225  23.300  55.575  1.00  0.00     0.017 A 
HETATM   19  C   UNL     1       8.368  22.574  56.763  1.00  0.00     0.077 A 
HETATM   20  C   UNL     1       8.498  21.188  56.726  1.00  0.00     0.039 A 
HETATM   21  C   UNL     1       8.497  20.520  55.500  1.00  0.00     0.022 A 
HETATM   22  C   UNL     1       8.366  21.248  54.318  1.00  0.00     0.012 A 
HETATM   23 BR   UNL     1       8.371  20.342  52.656  1.00  0.00    -0.051 Br
HETATM   24  C   UNL     1       8.226  22.635  54.344  1.00  0.00     0.034 A 
BRANCH  19  25
HETATM   25  O   UNL     1       8.375  23.151  58.003  1.00  0.00    -0.360 OA
HETATM   26  H   UNL     1       7.696  23.866  58.020  1.00  0.00     0.217 HD
ENDBRANCH  19  25
ENDBRANCH  17  18
ENDBRANCH   2  16
TORSDOF 5
ENDMDL
MODEL 8
REMARK VINA RESULT:      -8.3      2.265      3.099
REMARK  5 active torsions:
REMARK  status: ('A' for Active; 'I' for Inactive)
REMARK    1  A    between atoms: C_8  and  C_9 
REMARK    2  A    between atoms: C_9  and  C_10 
REMARK       I    between atoms: C_10  and  N_11 
REMARK    3  A    between atoms: N_11  and  N_12 
REMARK    4  A    between atoms: C_13  and  C_14 
REMARK    5  A    between atoms: C_15  and  O_16 
ROOT
HETATM    1  C   UNL     1       7.145  27.477  56.843  1.00  0.00     0.241 C 
HETATM    2  N   UNL     1       8.146  28.261  57.407  1.00  0.00    -0.247 N 
HETATM    3  O   UNL     1       5.972  27.469  57.216  1.00  0.00    -0.271 OA
HETATM    4  H   UNL     1       9.106  28.144  57.097  1.00  0.00     0.192 HD
ENDROOT
BRANCH   1   5
HETATM    5  C   UNL     1       7.615  26.657  55.650  1.00  0.00     0.145 C 
BRANCH   5   6
HETATM    6  C   UNL     1       7.773  25.209  55.995  1.00  0.00    -0.021 A 
HETATM    7  C   UNL     1       7.745  24.095  55.093  1.00  0.00    -0.001 A 
HETATM    8  C   UNL     1       7.541  23.959  53.703  1.00  0.00     0.014 A 
HETATM    9  C   UNL     1       8.013  22.948  55.841  1.00  0.00     0.042 A 
HETATM   10  C   UNL     1       7.623  22.690  53.117  1.00  0.00     0.001 A 
HETATM   11  C   UNL     1       7.903  21.567  53.890  1.00  0.00     0.002 A 
HETATM   12  C   UNL     1       8.101  21.673  55.269  1.00  0.00     0.030 A 
HETATM   13  N   UNL     1       8.157  23.340  57.151  1.00  0.00    -0.365 N 
HETATM   14  H   UNL     1       8.353  22.714  57.920  1.00  0.00     0.165 HD
HETATM   15  C   UNL     1       8.017  24.697  57.255  1.00  0.00     0.097 A 
ENDBRANCH   5   6
ENDBRANCH   1   5
BRANCH   2  16
HETATM   16  N   UNL     1       7.899  28.951  58.554  1.00  0.00    -0.184 NA
HETATM   17  C   UNL     1       7.669  30.216  58.398  1.00  0.00     0.153 C 
BRANCH  17  18
HETATM   18  C   UNL     1       7.458  31.095  59.564  1.00  0.00     0.017 A 
HETATM   19  C   UNL     1       8.324  31.091  60.663  1.00  0.00     0.077 A 
HETATM   20  C   UNL     1       8.113  31.967  61.726  1.00  0.00     0.039 A 
HETATM   21  C   UNL     1       7.028  32.844  61.700  1.00  0.00     0.022 A 
HETATM   22  C   UNL     1       6.160  32.838  60.608  1.00  0.00     0.012 A 
HETATM   23 BR   UNL     1       4.686  34.023  60.578  1.00  0.00    -0.051 Br
HETATM   24  C   UNL     1       6.368  31.972  59.535  1.00  0.00     0.034 A 
BRANCH  19  25
HETATM   25  O   UNL     1       9.411  30.266  60.764  1.00  0.00    -0.360 OA
HETATM   26  H   UNL     1       9.196  29.408  60.330  1.00  0.00     0.217 HD
ENDBRANCH  19  25
ENDBRANCH  17  18
ENDBRANCH   2  16
TORSDOF 5
ENDMDL
MODEL 9
REMARK VINA RESULT:      -8.3      3.498      8.378
REMARK  5 active torsions:
REMARK  status: ('A' for Active; 'I' for Inactive)
REMARK    1  A    between atoms: C_8  and  C_9 
REMARK    2  A    between atoms: C_9  and  C_10 
REMARK       I    between atoms: C_10  and  N_11 
REMARK    3  A    between atoms: N_11  and  N_12 
REMARK    4  A    between atoms: C_13  and  C_14 
REMARK    5  A    between atoms: C_15  and  O_16 
ROOT
HETATM    1  C   UNL     1       5.760  27.961  55.998  1.00  0.00     0.241 C 
HETATM    2  N   UNL     1       6.379  27.515  54.835  1.00  0.00    -0.247 N 
HETATM    3  O   UNL     1       5.335  27.225  56.888  1.00  0.00    -0.271 OA
HETATM    4  H   UNL     1       6.623  28.184  54.111  1.00  0.00     0.192 HD
ENDROOT
BRANCH   1   5
HETATM    5  C   UNL     1       5.710  29.477  56.116  1.00  0.00     0.145 C 
BRANCH   5   6
HETATM    6  C   UNL     1       6.702  29.993  57.112  1.00  0.00    -0.021 A 
HETATM    7  C   UNL     1       8.131  29.926  57.026  1.00  0.00    -0.001 A 
HETATM    8  C   UNL     1       9.037  29.372  56.095  1.00  0.00     0.014 A 
HETATM    9  C   UNL     1       8.647  30.601  58.133  1.00  0.00     0.042 A 
HETATM   10  C   UNL     1      10.414  29.525  56.299  1.00  0.00     0.001 A 
HETATM   11  C   UNL     1      10.894  30.215  57.409  1.00  0.00     0.002 A 
HETATM   12  C   UNL     1      10.020  30.764  58.350  1.00  0.00     0.030 A 
HETATM   13  N   UNL     1       7.578  31.027  58.884  1.00  0.00    -0.365 N 
HETATM   14  H   UNL     1       7.652  31.543  59.751  1.00  0.00     0.165 HD
HETATM   15  C   UNL     1       6.404  30.670  58.279  1.00  0.00     0.097 A 
ENDBRANCH   5   6
ENDBRANCH   1   5
BRANCH   2  16
HETATM   16  N   UNL     1       6.386  26.187  54.539  1.00  0.00    -0.184 NA
HETATM   17  C   UNL     1       7.533  25.599  54.665  1.00  0.00     0.153 C 
BRANCH  17  18
HETATM   18  C   UNL     1       7.697  24.178  54.307  1.00  0.00     0.017 A 
HETATM   19  C   UNL     1       7.783  23.752  52.976  1.00  0.00     0.077 A 
HETATM   20  C   UNL     1       7.980  22.405  52.682  1.00  0.00     0.039 A 
HETATM   21  C   UNL     1       8.081  21.473  53.717  1.00  0.00     0.022 A 
HETATM   22  C   UNL     1       7.985  21.899  55.042  1.00  0.00     0.012 A 
HETATM   23 BR   UNL     1       8.116  20.635  56.443  1.00  0.00    -0.051 Br
HETATM   24  C   UNL     1       7.797  23.247  55.347  1.00  0.00     0.034 A 
BRANCH  19  25
HETATM   25  O   UNL     1       7.698  24.600  51.907  1.00  0.00    -0.360 OA
HETATM   26  H   UNL     1       6.794  24.993  51.889  1.00  0.00     0.217 HD
ENDBRANCH  19  25
ENDBRANCH  17  18
ENDBRANCH   2  16
TORSDOF 5
ENDMDL
MODEL 10
REMARK VINA RESULT:      -8.2      3.416      9.329
REMARK  5 active torsions:
REMARK  status: ('A' for Active; 'I' for Inactive)
REMARK    1  A    between atoms: C_8  and  C_9 
REMARK    2  A    between atoms: C_9  and  C_10 
REMARK       I    between atoms: C_10  and  N_11 
REMARK    3  A    between atoms: N_11  and  N_12 
REMARK    4  A    between atoms: C_13  and  C_14 
REMARK    5  A    between atoms: C_15  and  O_16 
ROOT
HETATM    1  C   UNL     1       6.696  29.934  57.321  1.00  0.00     0.241 C 
HETATM    2  N   UNL     1       6.049  28.747  57.646  1.00  0.00    -0.247 N 
HETATM    3  O   UNL     1       7.394  30.097  56.321  1.00  0.00    -0.271 OA
HETATM    4  H   UNL     1       5.563  28.669  58.535  1.00  0.00     0.192 HD
ENDROOT
BRANCH   1   5
HETATM    5  C   UNL     1       6.407  31.069  58.294  1.00  0.00     0.145 C 
BRANCH   5   6
HETATM    6  C   UNL     1       7.328  31.042  59.473  1.00  0.00    -0.021 A 
HETATM    7  C   UNL     1       7.231  31.828  60.667  1.00  0.00    -0.001 A 
HETATM    8  C   UNL     1       6.352  32.840  61.111  1.00  0.00     0.014 A 
HETATM    9  C   UNL     1       8.253  31.414  61.522  1.00  0.00     0.042 A 
HETATM   10  C   UNL     1       6.521  33.386  62.389  1.00  0.00     0.001 A 
HETATM   11  C   UNL     1       7.545  32.942  63.222  1.00  0.00     0.002 A 
HETATM   12  C   UNL     1       8.433  31.948  62.803  1.00  0.00     0.030 A 
HETATM   13  N   UNL     1       8.969  30.444  60.862  1.00  0.00    -0.365 N 
HETATM   14  H   UNL     1       9.775  29.965  61.241  1.00  0.00     0.165 HD
HETATM   15  C   UNL     1       8.421  30.210  59.630  1.00  0.00     0.097 A 
ENDBRANCH   5   6
ENDBRANCH   1   5
BRANCH   2  16
HETATM   16  N   UNL     1       6.313  27.617  56.935  1.00  0.00    -0.184 NA
HETATM   17  C   UNL     1       7.289  26.895  57.387  1.00  0.00     0.153 C 
BRANCH  17  18
HETATM   18  C   UNL     1       7.728  25.683  56.671  1.00  0.00     0.017 A 
HETATM   19  C   UNL     1       8.387  24.633  57.323  1.00  0.00     0.077 A 
HETATM   20  C   UNL     1       8.747  23.487  56.618  1.00  0.00     0.039 A 
HETATM   21  C   UNL     1       8.463  23.389  55.255  1.00  0.00     0.022 A 
HETATM   22  C   UNL     1       7.817  24.441  54.606  1.00  0.00     0.012 A 
HETATM   23 BR   UNL     1       7.437  24.309  52.757  1.00  0.00    -0.051 Br
HETATM   24  C   UNL     1       7.442  25.589  55.305  1.00  0.00     0.034 A 
BRANCH  19  25
HETATM   25  O   UNL     1       8.698  24.650  58.654  1.00  0.00    -0.360 OA
HETATM   26  H   UNL     1       8.109  25.297  59.106  1.00  0.00     0.217 HD
ENDBRANCH  19  25
ENDBRANCH  17  18
ENDBRANCH   2  16
TORSDOF 5
ENDMDL
