MODEL 1
REMARK VINA RESULT:     -10.7      0.000      0.000
REMARK  6 active torsions:
REMARK  status: ('A' for Active; 'I' for Inactive)
REMARK    1  A    between atoms: C_2  and  O_3 
REMARK    2  A    between atoms: C_2  and  C_4 
REMARK    3  A    between atoms: C_6  and  N_7 
REMARK       I    between atoms: N_7  and  C_8 
REMARK    4  A    between atoms: C_8  and  C_9 
REMARK    5  A    between atoms: C_12  and  C_13 
REMARK    6  A    between atoms: C_18  and  C_19 
ROOT
HETATM    1  C   UNL     1       6.784  27.677  55.439  1.00  0.00     0.096 C 
HETATM    2  C   UNL     1       6.606  26.476  54.778  1.00  0.00     0.138 C 
HETATM    3  N   UNL     1       5.692  26.728  53.780  1.00  0.00    -0.240 N 
HETATM    4  C   UNL     1       5.191  25.730  52.850  1.00  0.00     0.221 C 
HETATM    5  C   UNL     1       6.079  24.471  52.876  1.00  0.00     0.066 C 
HETATM    6  C   UNL     1       6.433  24.101  54.321  1.00  0.00     0.118 C 
HETATM    7  N   UNL     1       7.127  25.230  54.955  1.00  0.00    -0.365 N 
HETATM    8  N   UNL     1       5.132  27.944  53.868  1.00  0.00    -0.181 NA
HETATM    9  C   UNL     1       5.821  28.532  54.850  1.00  0.00     0.160 C 
HETATM   10  H   UNL     1       7.452  24.978  55.892  1.00  0.00     0.161 HD
ENDROOT
BRANCH   1  11
HETATM   11  C   UNL     1       7.699  28.018  56.518  1.00  0.00     0.261 C 
HETATM   12  N   UNL     1       7.670  29.358  56.857  1.00  0.00    -0.323 N 
HETATM   13  H   UNL     1       6.961  29.909  56.386  1.00  0.00     0.169 HD
HETATM   14  O   UNL     1       8.374  27.149  57.056  1.00  0.00    -0.267 OA
BRANCH  12  15
HETATM   15  C   UNL     1       8.429  30.019  57.842  1.00  0.00     0.035 A 
HETATM   16  C   UNL     1       8.112  30.019  59.203  1.00  0.00     0.039 A 
HETATM   17  C   UNL     1       8.909  30.708  60.134  1.00  0.00    -0.028 A 
HETATM   18  C   UNL     1      10.033  31.410  59.676  1.00  0.00     0.010 A 
HETATM   19  C   UNL     1      10.365  31.404  58.324  1.00  0.00     0.003 A 
HETATM   20  C   UNL     1       9.569  30.709  57.412  1.00  0.00     0.029 A 
BRANCH  17  21
HETATM   21  C   UNL     1       8.523  30.712  61.598  1.00  0.00     0.147 C 
HETATM   22  C   UNL     1       8.855  32.035  62.273  1.00  0.00     0.044 C 
BRANCH  21  23
HETATM   23  O   UNL     1       9.192  29.659  62.291  1.00  0.00    -0.391 OA
HETATM   24  H   UNL     1       8.817  29.634  63.188  1.00  0.00     0.210 HD
ENDBRANCH  21  23
ENDBRANCH  17  21
ENDBRANCH  12  15
ENDBRANCH   1  11
BRANCH   4  25
HETATM   25  C   UNL     1       5.117  26.266  51.437  1.00  0.00     0.409 C 
HETATM   26  F   UNL     1       4.266  27.302  51.294  1.00  0.00    -0.169 F 
HETATM   27  F   UNL     1       6.327  26.641  50.964  1.00  0.00    -0.169 F 
HETATM   28  F   UNL     1       4.663  25.289  50.605  1.00  0.00    -0.169 F 
ENDBRANCH   4  25
BRANCH   6  29
HETATM   29  C   UNL     1       7.311  22.867  54.392  1.00  0.00    -0.035 A 
HETATM   30  C   UNL     1       7.798  22.248  53.228  1.00  0.00     0.009 A 
HETATM   31  C   UNL     1       8.595  21.105  53.309  1.00  0.00     0.001 A 
HETATM   32  C   UNL     1       8.918  20.568  54.554  1.00  0.00     0.000 A 
HETATM   33  C   UNL     1       8.448  21.173  55.717  1.00  0.00     0.001 A 
HETATM   34  C   UNL     1       7.649  22.316  55.637  1.00  0.00     0.009 A 
ENDBRANCH   6  29
TORSDOF 6
ENDMDL
MODEL 2
REMARK VINA RESULT:     -10.3      4.319      8.300
REMARK  6 active torsions:
REMARK  status: ('A' for Active; 'I' for Inactive)
REMARK    1  A    between atoms: C_2  and  O_3 
REMARK    2  A    between atoms: C_2  and  C_4 
REMARK    3  A    between atoms: C_6  and  N_7 
REMARK       I    between atoms: N_7  and  C_8 
REMARK    4  A    between atoms: C_8  and  C_9 
REMARK    5  A    between atoms: C_12  and  C_13 
REMARK    6  A    between atoms: C_18  and  C_19 
ROOT
HETATM    1  C   UNL     1       6.633  26.826  53.074  1.00  0.00     0.096 C 
HETATM    2  C   UNL     1       7.181  25.996  54.036  1.00  0.00     0.138 C 
HETATM    3  N   UNL     1       7.416  26.795  55.132  1.00  0.00    -0.240 N 
HETATM    4  C   UNL     1       8.014  26.335  56.374  1.00  0.00     0.221 C 
HETATM    5  C   UNL     1       8.000  24.796  56.445  1.00  0.00     0.066 C 
HETATM    6  C   UNL     1       8.414  24.198  55.096  1.00  0.00     0.118 C 
HETATM    7  N   UNL     1       7.496  24.671  54.053  1.00  0.00    -0.365 N 
HETATM    8  N   UNL     1       7.237  28.101  54.885  1.00  0.00    -0.181 NA
HETATM    9  C   UNL     1       6.727  28.116  53.650  1.00  0.00     0.160 C 
HETATM   10  H   UNL     1       7.698  24.218  53.157  1.00  0.00     0.161 HD
ENDROOT
BRANCH   1  11
HETATM   11  C   UNL     1       6.112  26.502  51.756  1.00  0.00     0.261 C 
HETATM   12  N   UNL     1       5.580  27.594  51.095  1.00  0.00    -0.323 N 
HETATM   13  H   UNL     1       5.701  28.485  51.563  1.00  0.00     0.169 HD
HETATM   14  O   UNL     1       6.200  25.362  51.316  1.00  0.00    -0.267 OA
BRANCH  12  15
HETATM   15  C   UNL     1       4.988  27.629  49.817  1.00  0.00     0.035 A 
HETATM   16  C   UNL     1       4.112  26.653  49.335  1.00  0.00     0.039 A 
HETATM   17  C   UNL     1       3.563  26.744  48.044  1.00  0.00    -0.028 A 
HETATM   18  C   UNL     1       3.914  27.832  47.233  1.00  0.00     0.010 A 
HETATM   19  C   UNL     1       4.776  28.817  47.709  1.00  0.00     0.003 A 
HETATM   20  C   UNL     1       5.307  28.717  48.996  1.00  0.00     0.029 A 
BRANCH  17  21
HETATM   21  C   UNL     1       2.638  25.656  47.541  1.00  0.00     0.147 C 
HETATM   22  C   UNL     1       2.982  24.296  48.131  1.00  0.00     0.044 C 
BRANCH  21  23
HETATM   23  O   UNL     1       2.698  25.570  46.118  1.00  0.00    -0.391 OA
HETATM   24  H   UNL     1       1.832  25.862  45.785  1.00  0.00     0.210 HD
ENDBRANCH  21  23
ENDBRANCH  17  21
ENDBRANCH  12  15
ENDBRANCH   1  11
BRANCH   4  25
HETATM   25  C   UNL     1       7.304  26.903  57.584  1.00  0.00     0.409 C 
HETATM   26  F   UNL     1       7.832  28.062  58.027  1.00  0.00    -0.169 F 
HETATM   27  F   UNL     1       5.983  27.093  57.364  1.00  0.00    -0.169 F 
HETATM   28  F   UNL     1       7.402  26.025  58.620  1.00  0.00    -0.169 F 
ENDBRANCH   4  25
BRANCH   6  29
HETATM   29  C   UNL     1       8.410  22.682  55.122  1.00  0.00    -0.035 A 
HETATM   30  C   UNL     1       8.468  21.971  56.332  1.00  0.00     0.009 A 
HETATM   31  C   UNL     1       8.476  20.575  56.339  1.00  0.00     0.001 A 
HETATM   32  C   UNL     1       8.422  19.873  55.137  1.00  0.00     0.000 A 
HETATM   33  C   UNL     1       8.358  20.563  53.929  1.00  0.00     0.001 A 
HETATM   34  C   UNL     1       8.352  21.960  53.920  1.00  0.00     0.009 A 
ENDBRANCH   6  29
TORSDOF 6
ENDMDL
MODEL 3
REMARK VINA RESULT:     -10.2      1.767      2.102
REMARK  6 active torsions:
REMARK  status: ('A' for Active; 'I' for Inactive)
REMARK    1  A    between atoms: C_2  and  O_3 
REMARK    2  A    between atoms: C_2  and  C_4 
REMARK    3  A    between atoms: C_6  and  N_7 
REMARK       I    between atoms: N_7  and  C_8 
REMARK    4  A    between atoms: C_8  and  C_9 
REMARK    5  A    between atoms: C_12  and  C_13 
REMARK    6  A    between atoms: C_18  and  C_19 
ROOT
HETATM    1  C   UNL     1       5.106  28.246  55.166  1.00  0.00     0.096 C 
HETATM    2  C   UNL     1       5.368  27.101  54.437  1.00  0.00     0.138 C 
HETATM    3  N   UNL     1       4.711  27.261  53.237  1.00  0.00    -0.240 N 
HETATM    4  C   UNL     1       4.695  26.276  52.169  1.00  0.00     0.221 C 
HETATM    5  C   UNL     1       5.796  25.221  52.388  1.00  0.00     0.066 C 
HETATM    6  C   UNL     1       5.837  24.793  53.859  1.00  0.00     0.118 C 
HETATM    7  N   UNL     1       6.082  25.972  54.700  1.00  0.00    -0.365 N 
HETATM    8  N   UNL     1       3.899  28.329  53.215  1.00  0.00    -0.181 NA
HETATM    9  C   UNL     1       4.167  28.946  54.370  1.00  0.00     0.160 C 
HETATM   10  H   UNL     1       6.200  25.702  55.680  1.00  0.00     0.161 HD
ENDROOT
BRANCH   1  11
HETATM   11  C   UNL     1       5.615  28.658  56.465  1.00  0.00     0.261 C 
HETATM   12  N   UNL     1       5.740  30.028  56.595  1.00  0.00    -0.323 N 
HETATM   13  H   UNL     1       5.379  30.572  55.819  1.00  0.00     0.169 HD
HETATM   14  O   UNL     1       5.856  27.824  57.330  1.00  0.00    -0.267 OA
BRANCH  12  15
HETATM   15  C   UNL     1       6.208  30.754  57.708  1.00  0.00     0.035 A 
HETATM   16  C   UNL     1       7.542  30.775  58.121  1.00  0.00     0.039 A 
HETATM   17  C   UNL     1       7.941  31.514  59.249  1.00  0.00    -0.028 A 
HETATM   18  C   UNL     1       6.974  32.231  59.967  1.00  0.00     0.010 A 
HETATM   19  C   UNL     1       5.644  32.227  59.554  1.00  0.00     0.003 A 
HETATM   20  C   UNL     1       5.264  31.495  58.429  1.00  0.00     0.029 A 
BRANCH  17  21
HETATM   21  C   UNL     1       9.390  31.494  59.687  1.00  0.00     0.147 C 
HETATM   22  C   UNL     1       9.560  31.976  61.121  1.00  0.00     0.044 C 
BRANCH  21  23
HETATM   23  O   UNL     1      10.181  32.315  58.828  1.00  0.00    -0.391 OA
HETATM   24  H   UNL     1       9.670  32.435  58.010  1.00  0.00     0.210 HD
ENDBRANCH  21  23
ENDBRANCH  17  21
ENDBRANCH  12  15
ENDBRANCH   1  11
BRANCH   4  25
HETATM   25  C   UNL     1       4.874  26.918  50.810  1.00  0.00     0.409 C 
HETATM   26  F   UNL     1       3.749  27.479  50.324  1.00  0.00    -0.169 F 
HETATM   27  F   UNL     1       5.852  27.853  50.807  1.00  0.00    -0.169 F 
HETATM   28  F   UNL     1       5.243  25.970  49.906  1.00  0.00    -0.169 F 
ENDBRANCH   4  25
BRANCH   6  29
HETATM   29  C   UNL     1       6.911  23.756  54.120  1.00  0.00    -0.035 A 
HETATM   30  C   UNL     1       7.521  23.055  53.066  1.00  0.00     0.009 A 
HETATM   31  C   UNL     1       8.500  22.094  53.322  1.00  0.00     0.001 A 
HETATM   32  C   UNL     1       8.885  21.824  54.634  1.00  0.00     0.000 A 
HETATM   33  C   UNL     1       8.293  22.514  55.689  1.00  0.00     0.001 A 
HETATM   34  C   UNL     1       7.312  23.475  55.435  1.00  0.00     0.009 A 
ENDBRANCH   6  29
TORSDOF 6
ENDMDL
MODEL 4
REMARK VINA RESULT:     -10.0      2.662      4.698
REMARK  6 active torsions:
REMARK  status: ('A' for Active; 'I' for Inactive)
REMARK    1  A    between atoms: C_2  and  O_3 
REMARK    2  A    between atoms: C_2  and  C_4 
REMARK    3  A    between atoms: C_6  and  N_7 
REMARK       I    between atoms: N_7  and  C_8 
REMARK    4  A    between atoms: C_8  and  C_9 
REMARK    5  A    between atoms: C_12  and  C_13 
REMARK    6  A    between atoms: C_18  and  C_19 
ROOT
HETATM    1  C   UNL     1       8.259  25.215  56.596  1.00  0.00     0.096 C 
HETATM    2  C   UNL     1       7.923  25.029  55.267  1.00  0.00     0.138 C 
HETATM    3  N   UNL     1       8.427  23.795  54.922  1.00  0.00    -0.240 N 
HETATM    4  C   UNL     1       8.324  23.204  53.598  1.00  0.00     0.221 C 
HETATM    5  C   UNL     1       7.272  23.947  52.753  1.00  0.00     0.066 C 
HETATM    6  C   UNL     1       7.418  25.462  52.935  1.00  0.00     0.118 C 
HETATM    7  N   UNL     1       7.262  25.797  54.357  1.00  0.00    -0.365 N 
HETATM    8  N   UNL     1       9.216  23.261  55.866  1.00  0.00    -0.181 NA
HETATM    9  C   UNL     1       9.084  24.104  56.894  1.00  0.00     0.160 C 
HETATM   10  H   UNL     1       7.269  26.811  54.495  1.00  0.00     0.161 HD
ENDROOT
BRANCH   1  11
HETATM   11  C   UNL     1       7.908  26.299  57.499  1.00  0.00     0.261 C 
HETATM   12  N   UNL     1       7.945  27.545  56.901  1.00  0.00    -0.323 N 
HETATM   13  H   UNL     1       8.118  27.540  55.902  1.00  0.00     0.169 HD
HETATM   14  O   UNL     1       7.583  26.062  58.657  1.00  0.00    -0.267 OA
BRANCH  12  15
HETATM   15  C   UNL     1       7.673  28.796  57.487  1.00  0.00     0.035 A 
HETATM   16  C   UNL     1       8.618  29.553  58.185  1.00  0.00     0.039 A 
HETATM   17  C   UNL     1       8.277  30.793  58.755  1.00  0.00    -0.028 A 
HETATM   18  C   UNL     1       6.964  31.262  58.621  1.00  0.00     0.010 A 
HETATM   19  C   UNL     1       6.018  30.521  57.917  1.00  0.00     0.003 A 
HETATM   20  C   UNL     1       6.373  29.296  57.350  1.00  0.00     0.029 A 
BRANCH  17  21
HETATM   21  C   UNL     1       9.317  31.576  59.528  1.00  0.00     0.147 C 
HETATM   22  C   UNL     1       8.685  32.523  60.537  1.00  0.00     0.044 C 
BRANCH  21  23
HETATM   23  O   UNL     1      10.135  32.333  58.636  1.00  0.00    -0.391 OA
HETATM   24  H   UNL     1      10.913  32.619  59.145  1.00  0.00     0.210 HD
ENDBRANCH  21  23
ENDBRANCH  17  21
ENDBRANCH  12  15
ENDBRANCH   1  11
BRANCH   4  25
HETATM   25  C   UNL     1       7.971  21.734  53.665  1.00  0.00     0.409 C 
HETATM   26  F   UNL     1       7.288  21.390  54.776  1.00  0.00    -0.169 F 
HETATM   27  F   UNL     1       7.265  21.324  52.587  1.00  0.00    -0.169 F 
HETATM   28  F   UNL     1       9.114  20.994  53.683  1.00  0.00    -0.169 F 
ENDBRANCH   4  25
BRANCH   6  29
HETATM   29  C   UNL     1       6.397  26.233  52.122  1.00  0.00    -0.035 A 
HETATM   30  C   UNL     1       5.732  25.642  51.035  1.00  0.00     0.009 A 
HETATM   31  C   UNL     1       4.803  26.368  50.287  1.00  0.00     0.001 A 
HETATM   32  C   UNL     1       4.525  27.692  50.619  1.00  0.00     0.000 A 
HETATM   33  C   UNL     1       5.172  28.291  51.698  1.00  0.00     0.001 A 
HETATM   34  C   UNL     1       6.103  27.566  52.446  1.00  0.00     0.009 A 
ENDBRANCH   6  29
TORSDOF 6
ENDMDL
MODEL 5
REMARK VINA RESULT:      -9.9      1.773      2.386
REMARK  6 active torsions:
REMARK  status: ('A' for Active; 'I' for Inactive)
REMARK    1  A    between atoms: C_2  and  O_3 
REMARK    2  A    between atoms: C_2  and  C_4 
REMARK    3  A    between atoms: C_6  and  N_7 
REMARK       I    between atoms: N_7  and  C_8 
REMARK    4  A    between atoms: C_8  and  C_9 
REMARK    5  A    between atoms: C_12  and  C_13 
REMARK    6  A    between atoms: C_18  and  C_19 
ROOT
HETATM    1  C   UNL     1       6.468  29.084  56.794  1.00  0.00     0.096 C 
HETATM    2  C   UNL     1       6.328  27.930  56.044  1.00  0.00     0.138 C 
HETATM    3  N   UNL     1       5.533  28.273  54.973  1.00  0.00    -0.240 N 
HETATM    4  C   UNL     1       5.107  27.350  53.935  1.00  0.00     0.221 C 
HETATM    5  C   UNL     1       5.950  26.061  53.975  1.00  0.00     0.066 C 
HETATM    6  C   UNL     1       6.137  25.594  55.423  1.00  0.00     0.118 C 
HETATM    7  N   UNL     1       6.791  26.658  56.195  1.00  0.00    -0.365 N 
HETATM    8  N   UNL     1       5.003  29.501  55.077  1.00  0.00    -0.181 NA
HETATM    9  C   UNL     1       5.598  30.005  56.162  1.00  0.00     0.160 C 
HETATM   10  H   UNL     1       7.006  26.340  57.144  1.00  0.00     0.161 HD
ENDROOT
BRANCH   1  11
HETATM   11  C   UNL     1       7.272  29.327  57.981  1.00  0.00     0.261 C 
HETATM   12  N   UNL     1       7.033  30.560  58.560  1.00  0.00    -0.323 N 
HETATM   13  H   UNL     1       6.274  31.092  58.148  1.00  0.00     0.169 HD
HETATM   14  O   UNL     1       8.040  28.469  58.398  1.00  0.00    -0.267 OA
BRANCH  12  15
HETATM   15  C   UNL     1       7.641  31.112  59.704  1.00  0.00     0.035 A 
HETATM   16  C   UNL     1       6.933  31.690  60.762  1.00  0.00     0.039 A 
HETATM   17  C   UNL     1       7.604  32.233  61.872  1.00  0.00    -0.028 A 
HETATM   18  C   UNL     1       9.005  32.196  61.903  1.00  0.00     0.010 A 
HETATM   19  C   UNL     1       9.718  31.610  60.860  1.00  0.00     0.003 A 
HETATM   20  C   UNL     1       9.038  31.068  59.768  1.00  0.00     0.029 A 
BRANCH  17  21
HETATM   21  C   UNL     1       6.810  32.876  62.990  1.00  0.00     0.147 C 
HETATM   22  C   UNL     1       7.658  33.109  64.232  1.00  0.00     0.044 C 
BRANCH  21  23
HETATM   23  O   UNL     1       5.693  32.060  63.340  1.00  0.00    -0.391 OA
HETATM   24  H   UNL     1       5.414  32.337  64.230  1.00  0.00     0.210 HD
ENDBRANCH  21  23
ENDBRANCH  17  21
ENDBRANCH  12  15
ENDBRANCH   1  11
BRANCH   4  25
HETATM   25  C   UNL     1       5.199  27.971  52.558  1.00  0.00     0.409 C 
HETATM   26  F   UNL     1       5.307  27.069  51.562  1.00  0.00    -0.169 F 
HETATM   27  F   UNL     1       4.150  28.781  52.287  1.00  0.00    -0.169 F 
HETATM   28  F   UNL     1       6.315  28.747  52.485  1.00  0.00    -0.169 F 
ENDBRANCH   4  25
BRANCH   6  29
HETATM   29  C   UNL     1       6.966  24.328  55.508  1.00  0.00    -0.035 A 
HETATM   30  C   UNL     1       7.092  23.461  54.410  1.00  0.00     0.009 A 
HETATM   31  C   UNL     1       7.849  22.292  54.507  1.00  0.00     0.001 A 
HETATM   32  C   UNL     1       8.493  21.977  55.702  1.00  0.00     0.000 A 
HETATM   33  C   UNL     1       8.383  22.830  56.798  1.00  0.00     0.001 A 
HETATM   34  C   UNL     1       7.625  23.999  56.702  1.00  0.00     0.009 A 
ENDBRANCH   6  29
TORSDOF 6
ENDMDL
MODEL 6
REMARK VINA RESULT:      -9.7      3.121      8.391
REMARK  6 active torsions:
REMARK  status: ('A' for Active; 'I' for Inactive)
REMARK    1  A    between atoms: C_2  and  O_3 
REMARK    2  A    between atoms: C_2  and  C_4 
REMARK    3  A    between atoms: C_6  and  N_7 
REMARK       I    between atoms: N_7  and  C_8 
REMARK    4  A    between atoms: C_8  and  C_9 
REMARK    5  A    between atoms: C_12  and  C_13 
REMARK    6  A    between atoms: C_18  and  C_19 
ROOT
HETATM    1  C   UNL     1       6.363  28.543  55.725  1.00  0.00     0.096 C 
HETATM    2  C   UNL     1       6.348  29.605  56.611  1.00  0.00     0.138 C 
HETATM    3  N   UNL     1       5.363  30.455  56.160  1.00  0.00    -0.240 N 
HETATM    4  C   UNL     1       5.020  31.722  56.785  1.00  0.00     0.221 C 
HETATM    5  C   UNL     1       5.621  31.810  58.200  1.00  0.00     0.066 C 
HETATM    6  C   UNL     1       7.064  31.293  58.198  1.00  0.00     0.118 C 
HETATM    7  N   UNL     1       7.081  29.905  57.719  1.00  0.00    -0.365 N 
HETATM    8  N   UNL     1       4.877  30.115  54.958  1.00  0.00    -0.181 NA
HETATM    9  C   UNL     1       5.456  28.936  54.711  1.00  0.00     0.160 C 
HETATM   10  H   UNL     1       8.021  29.507  57.789  1.00  0.00     0.161 HD
ENDROOT
BRANCH   1  11
HETATM   11  C   UNL     1       7.140  27.314  55.762  1.00  0.00     0.261 C 
HETATM   12  N   UNL     1       6.786  26.413  54.774  1.00  0.00    -0.323 N 
HETATM   13  H   UNL     1       6.108  26.753  54.101  1.00  0.00     0.169 HD
HETATM   14  O   UNL     1       8.031  27.167  56.589  1.00  0.00    -0.267 OA
BRANCH  12  15
HETATM   15  C   UNL     1       7.326  25.135  54.534  1.00  0.00     0.035 A 
HETATM   16  C   UNL     1       7.657  24.225  55.542  1.00  0.00     0.039 A 
HETATM   17  C   UNL     1       8.203  22.967  55.232  1.00  0.00    -0.028 A 
HETATM   18  C   UNL     1       8.421  22.634  53.888  1.00  0.00     0.010 A 
HETATM   19  C   UNL     1       8.082  23.529  52.877  1.00  0.00     0.003 A 
HETATM   20  C   UNL     1       7.534  24.771  53.198  1.00  0.00     0.029 A 
BRANCH  17  21
HETATM   21  C   UNL     1       8.576  22.014  56.349  1.00  0.00     0.147 C 
HETATM   22  C   UNL     1       7.858  20.678  56.222  1.00  0.00     0.044 C 
BRANCH  21  23
HETATM   23  O   UNL     1       8.263  22.587  57.617  1.00  0.00    -0.391 OA
HETATM   24  H   UNL     1       8.187  21.849  58.246  1.00  0.00     0.210 HD
ENDBRANCH  21  23
ENDBRANCH  17  21
ENDBRANCH  12  15
ENDBRANCH   1  11
BRANCH   4  25
HETATM   25  C   UNL     1       3.522  31.924  56.859  1.00  0.00     0.409 C 
HETATM   26  F   UNL     1       2.993  32.467  55.744  1.00  0.00    -0.169 F 
HETATM   27  F   UNL     1       2.860  30.776  57.129  1.00  0.00    -0.169 F 
HETATM   28  F   UNL     1       3.231  32.786  57.871  1.00  0.00    -0.169 F 
ENDBRANCH   4  25
BRANCH   6  29
HETATM   29  C   UNL     1       7.693  31.358  59.575  1.00  0.00    -0.035 A 
HETATM   30  C   UNL     1       8.669  30.431  59.978  1.00  0.00     0.009 A 
HETATM   31  C   UNL     1       9.231  30.497  61.254  1.00  0.00     0.001 A 
HETATM   32  C   UNL     1       8.827  31.492  62.142  1.00  0.00     0.000 A 
HETATM   33  C   UNL     1       7.864  32.422  61.756  1.00  0.00     0.001 A 
HETATM   34  C   UNL     1       7.301  32.356  60.480  1.00  0.00     0.009 A 
ENDBRANCH   6  29
TORSDOF 6
ENDMDL
MODEL 7
REMARK VINA RESULT:      -9.4      3.944      8.977
REMARK  6 active torsions:
REMARK  status: ('A' for Active; 'I' for Inactive)
REMARK    1  A    between atoms: C_2  and  O_3 
REMARK    2  A    between atoms: C_2  and  C_4 
REMARK    3  A    between atoms: C_6  and  N_7 
REMARK       I    between atoms: N_7  and  C_8 
REMARK    4  A    between atoms: C_8  and  C_9 
REMARK    5  A    between atoms: C_12  and  C_13 
REMARK    6  A    between atoms: C_18  and  C_19 
ROOT
HETATM    1  C   UNL     1       6.064  26.302  53.441  1.00  0.00     0.096 C 
HETATM    2  C   UNL     1       6.700  26.435  54.662  1.00  0.00     0.138 C 
HETATM    3  N   UNL     1       6.808  25.160  55.170  1.00  0.00    -0.240 N 
HETATM    4  C   UNL     1       7.396  24.835  56.459  1.00  0.00     0.221 C 
HETATM    5  C   UNL     1       8.208  26.026  57.002  1.00  0.00     0.066 C 
HETATM    6  C   UNL     1       7.438  27.334  56.790  1.00  0.00     0.118 C 
HETATM    7  N   UNL     1       7.165  27.510  55.358  1.00  0.00    -0.365 N 
HETATM    8  N   UNL     1       6.129  24.247  54.461  1.00  0.00    -0.181 NA
HETATM    9  C   UNL     1       5.709  24.932  53.394  1.00  0.00     0.160 C 
HETATM   10  H   UNL     1       6.728  28.418  55.179  1.00  0.00     0.161 HD
ENDROOT
BRANCH   1  11
HETATM   11  C   UNL     1       5.770  27.308  52.433  1.00  0.00     0.261 C 
HETATM   12  N   UNL     1       5.305  26.773  51.246  1.00  0.00    -0.323 N 
HETATM   13  H   UNL     1       5.140  25.772  51.257  1.00  0.00     0.169 HD
HETATM   14  O   UNL     1       5.906  28.499  52.685  1.00  0.00    -0.267 OA
BRANCH  12  15
HETATM   15  C   UNL     1       4.939  27.458  50.071  1.00  0.00     0.035 A 
HETATM   16  C   UNL     1       3.944  27.023  49.192  1.00  0.00     0.039 A 
HETATM   17  C   UNL     1       3.634  27.751  48.029  1.00  0.00    -0.028 A 
HETATM   18  C   UNL     1       4.347  28.926  47.755  1.00  0.00     0.010 A 
HETATM   19  C   UNL     1       5.332  29.374  48.632  1.00  0.00     0.003 A 
HETATM   20  C   UNL     1       5.623  28.645  49.786  1.00  0.00     0.029 A 
BRANCH  17  21
HETATM   21  C   UNL     1       2.569  27.238  47.082  1.00  0.00     0.147 C 
HETATM   22  C   UNL     1       1.228  27.053  47.778  1.00  0.00     0.044 C 
BRANCH  21  23
HETATM   23  O   UNL     1       2.969  25.993  46.511  1.00  0.00    -0.391 OA
HETATM   24  H   UNL     1       3.825  25.765  46.911  1.00  0.00     0.210 HD
ENDBRANCH  21  23
ENDBRANCH  17  21
ENDBRANCH  12  15
ENDBRANCH   1  11
BRANCH   4  25
HETATM   25  C   UNL     1       8.285  23.612  56.378  1.00  0.00     0.409 C 
HETATM   26  F   UNL     1       7.604  22.449  56.332  1.00  0.00    -0.169 F 
HETATM   27  F   UNL     1       9.125  23.655  55.319  1.00  0.00    -0.169 F 
HETATM   28  F   UNL     1       9.067  23.546  57.490  1.00  0.00    -0.169 F 
ENDBRANCH   4  25
BRANCH   6  29
HETATM   29  C   UNL     1       8.205  28.534  57.308  1.00  0.00    -0.035 A 
HETATM   30  C   UNL     1       9.479  28.858  56.811  1.00  0.00     0.009 A 
HETATM   31  C   UNL     1      10.178  29.960  57.306  1.00  0.00     0.001 A 
HETATM   32  C   UNL     1       9.613  30.754  58.302  1.00  0.00     0.000 A 
HETATM   33  C   UNL     1       8.349  30.449  58.801  1.00  0.00     0.001 A 
HETATM   34  C   UNL     1       7.648  29.346  58.307  1.00  0.00     0.009 A 
ENDBRANCH   6  29
TORSDOF 6
ENDMDL
MODEL 8
REMARK VINA RESULT:      -9.4      4.281      7.543
REMARK  6 active torsions:
REMARK  status: ('A' for Active; 'I' for Inactive)
REMARK    1  A    between atoms: C_2  and  O_3 
REMARK    2  A    between atoms: C_2  and  C_4 
REMARK    3  A    between atoms: C_6  and  N_7 
REMARK       I    between atoms: N_7  and  C_8 
REMARK    4  A    between atoms: C_8  and  C_9 
REMARK    5  A    between atoms: C_12  and  C_13 
REMARK    6  A    between atoms: C_18  and  C_19 
ROOT
HETATM    1  C   UNL     1       5.659  26.945  54.997  1.00  0.00     0.096 C 
HETATM    2  C   UNL     1       5.059  27.560  53.913  1.00  0.00     0.138 C 
HETATM    3  N   UNL     1       4.247  28.539  54.440  1.00  0.00    -0.240 N 
HETATM    4  C   UNL     1       3.402  29.420  53.651  1.00  0.00     0.221 C 
HETATM    5  C   UNL     1       3.810  29.377  52.166  1.00  0.00     0.066 C 
HETATM    6  C   UNL     1       4.073  27.932  51.729  1.00  0.00     0.118 C 
HETATM    7  N   UNL     1       5.132  27.357  52.568  1.00  0.00    -0.365 N 
HETATM    8  N   UNL     1       4.137  28.477  55.775  1.00  0.00    -0.181 NA
HETATM    9  C   UNL     1       5.022  27.535  56.115  1.00  0.00     0.160 C 
HETATM   10  H   UNL     1       5.387  26.421  52.242  1.00  0.00     0.161 HD
ENDROOT
BRANCH   1  11
HETATM   11  C   UNL     1       6.676  25.905  55.029  1.00  0.00     0.261 C 
HETATM   12  N   UNL     1       6.269  24.723  54.439  1.00  0.00    -0.323 N 
HETATM   13  H   UNL     1       5.364  24.756  53.982  1.00  0.00     0.169 HD
HETATM   14  O   UNL     1       7.778  26.130  55.513  1.00  0.00    -0.267 OA
BRANCH  12  15
HETATM   15  C   UNL     1       6.996  23.524  54.310  1.00  0.00     0.035 A 
HETATM   16  C   UNL     1       7.297  22.674  55.378  1.00  0.00     0.039 A 
HETATM   17  C   UNL     1       8.037  21.495  55.180  1.00  0.00    -0.028 A 
HETATM   18  C   UNL     1       8.482  21.182  53.888  1.00  0.00     0.010 A 
HETATM   19  C   UNL     1       8.175  22.015  52.816  1.00  0.00     0.003 A 
HETATM   20  C   UNL     1       7.433  23.178  53.026  1.00  0.00     0.029 A 
BRANCH  17  21
HETATM   21  C   UNL     1       8.370  20.609  56.363  1.00  0.00     0.147 C 
HETATM   22  C   UNL     1       8.305  21.367  57.680  1.00  0.00     0.044 C 
BRANCH  21  23
HETATM   23  O   UNL     1       9.676  20.052  56.215  1.00  0.00    -0.391 OA
HETATM   24  H   UNL     1       9.587  19.289  55.619  1.00  0.00     0.210 HD
ENDBRANCH  21  23
ENDBRANCH  17  21
ENDBRANCH  12  15
ENDBRANCH   1  11
BRANCH   4  25
HETATM   25  C   UNL     1       3.460  30.848  54.150  1.00  0.00     0.409 C 
HETATM   26  F   UNL     1       2.575  31.116  55.131  1.00  0.00    -0.169 F 
HETATM   27  F   UNL     1       4.694  31.193  54.583  1.00  0.00    -0.169 F 
HETATM   28  F   UNL     1       3.158  31.697  53.129  1.00  0.00    -0.169 F 
ENDBRANCH   4  25
BRANCH   6  29
HETATM   29  C   UNL     1       4.481  27.844  50.272  1.00  0.00    -0.035 A 
HETATM   30  C   UNL     1       4.972  28.965  49.582  1.00  0.00     0.009 A 
HETATM   31  C   UNL     1       5.333  28.872  48.237  1.00  0.00     0.001 A 
HETATM   32  C   UNL     1       5.210  27.657  47.565  1.00  0.00     0.000 A 
HETATM   33  C   UNL     1       4.730  26.535  48.237  1.00  0.00     0.001 A 
HETATM   34  C   UNL     1       4.368  26.627  49.583  1.00  0.00     0.009 A 
ENDBRANCH   6  29
TORSDOF 6
ENDMDL
MODEL 9
REMARK VINA RESULT:      -9.1      2.455      5.072
REMARK  6 active torsions:
REMARK  status: ('A' for Active; 'I' for Inactive)
REMARK    1  A    between atoms: C_2  and  O_3 
REMARK    2  A    between atoms: C_2  and  C_4 
REMARK    3  A    between atoms: C_6  and  N_7 
REMARK       I    between atoms: N_7  and  C_8 
REMARK    4  A    between atoms: C_8  and  C_9 
REMARK    5  A    between atoms: C_12  and  C_13 
REMARK    6  A    between atoms: C_18  and  C_19 
ROOT
HETATM    1  C   UNL     1       7.171  28.038  55.545  1.00  0.00     0.096 C 
HETATM    2  C   UNL     1       6.621  27.974  54.278  1.00  0.00     0.138 C 
HETATM    3  N   UNL     1       6.679  26.648  53.911  1.00  0.00    -0.240 N 
HETATM    4  C   UNL     1       6.227  26.128  52.631  1.00  0.00     0.221 C 
HETATM    5  C   UNL     1       5.346  27.163  51.905  1.00  0.00     0.066 C 
HETATM    6  C   UNL     1       5.964  28.560  52.019  1.00  0.00     0.118 C 
HETATM    7  N   UNL     1       6.107  28.914  53.437  1.00  0.00    -0.365 N 
HETATM    8  N   UNL     1       7.388  25.892  54.761  1.00  0.00    -0.181 NA
HETATM    9  C   UNL     1       7.655  26.726  55.770  1.00  0.00     0.160 C 
HETATM   10  H   UNL     1       6.438  29.877  53.540  1.00  0.00     0.161 HD
ENDROOT
BRANCH   1  11
HETATM   11  C   UNL     1       7.287  29.170  56.452  1.00  0.00     0.261 C 
HETATM   12  N   UNL     1       8.382  29.089  57.291  1.00  0.00    -0.323 N 
HETATM   13  H   UNL     1       9.009  28.313  57.111  1.00  0.00     0.169 HD
HETATM   14  O   UNL     1       6.481  30.091  56.400  1.00  0.00    -0.267 OA
BRANCH  12  15
HETATM   15  C   UNL     1       8.780  30.002  58.287  1.00  0.00     0.035 A 
HETATM   16  C   UNL     1       8.282  29.999  59.593  1.00  0.00     0.039 A 
HETATM   17  C   UNL     1       8.715  30.947  60.537  1.00  0.00    -0.028 A 
HETATM   18  C   UNL     1       9.656  31.910  60.148  1.00  0.00     0.010 A 
HETATM   19  C   UNL     1      10.167  31.913  58.852  1.00  0.00     0.003 A 
HETATM   20  C   UNL     1       9.734  30.961  57.928  1.00  0.00     0.029 A 
BRANCH  17  21
HETATM   21  C   UNL     1       8.136  30.933  61.936  1.00  0.00     0.147 C 
HETATM   22  C   UNL     1       8.375  32.248  62.665  1.00  0.00     0.044 C 
BRANCH  21  23
HETATM   23  O   UNL     1       8.707  29.872  62.700  1.00  0.00    -0.391 OA
HETATM   24  H   UNL     1       9.064  30.273  63.511  1.00  0.00     0.210 HD
ENDBRANCH  21  23
ENDBRANCH  17  21
ENDBRANCH  12  15
ENDBRANCH   1  11
BRANCH   4  25
HETATM   25  C   UNL     1       5.459  24.833  52.790  1.00  0.00     0.409 C 
HETATM   26  F   UNL     1       4.571  24.605  51.803  1.00  0.00    -0.169 F 
HETATM   27  F   UNL     1       6.276  23.759  52.885  1.00  0.00    -0.169 F 
HETATM   28  F   UNL     1       4.738  24.874  53.944  1.00  0.00    -0.169 F 
ENDBRANCH   4  25
BRANCH   6  29
HETATM   29  C   UNL     1       5.125  29.611  51.320  1.00  0.00    -0.035 A 
HETATM   30  C   UNL     1       5.501  30.137  50.073  1.00  0.00     0.009 A 
HETATM   31  C   UNL     1       4.724  31.113  49.447  1.00  0.00     0.001 A 
HETATM   32  C   UNL     1       3.560  31.574  50.057  1.00  0.00     0.000 A 
HETATM   33  C   UNL     1       3.170  31.058  51.292  1.00  0.00     0.001 A 
HETATM   34  C   UNL     1       3.947  30.082  51.920  1.00  0.00     0.009 A 
ENDBRANCH   6  29
TORSDOF 6
ENDMDL
MODEL 10
REMARK VINA RESULT:      -9.0      4.194      8.341
REMARK  6 active torsions:
REMARK  status: ('A' for Active; 'I' for Inactive)
REMARK    1  A    between atoms: C_2  and  O_3 
REMARK    2  A    between atoms: C_2  and  C_4 
REMARK    3  A    between atoms: C_6  and  N_7 
REMARK       I    between atoms: N_7  and  C_8 
REMARK    4  A    between atoms: C_8  and  C_9 
REMARK    5  A    between atoms: C_12  and  C_13 
REMARK    6  A    between atoms: C_18  and  C_19 
ROOT
HETATM    1  C   UNL     1       5.152  28.051  53.659  1.00  0.00     0.096 C 
HETATM    2  C   UNL     1       6.031  27.152  54.234  1.00  0.00     0.138 C 
HETATM    3  N   UNL     1       6.605  27.814  55.296  1.00  0.00    -0.240 N 
HETATM    4  C   UNL     1       7.616  27.246  56.171  1.00  0.00     0.221 C 
HETATM    5  C   UNL     1       7.684  25.717  56.001  1.00  0.00     0.066 C 
HETATM    6  C   UNL     1       7.623  25.345  54.515  1.00  0.00     0.118 C 
HETATM    7  N   UNL     1       6.380  25.870  53.934  1.00  0.00    -0.365 N 
HETATM    8  N   UNL     1       6.303  29.121  55.333  1.00  0.00    -0.181 NA
HETATM    9  C   UNL     1       5.394  29.256  54.363  1.00  0.00     0.160 C 
HETATM   10  H   UNL     1       6.273  25.562  52.965  1.00  0.00     0.161 HD
ENDROOT
BRANCH   1  11
HETATM   11  C   UNL     1       4.214  27.863  52.563  1.00  0.00     0.261 C 
HETATM   12  N   UNL     1       4.832  27.700  51.337  1.00  0.00    -0.323 N 
HETATM   13  H   UNL     1       5.843  27.639  51.366  1.00  0.00     0.169 HD
HETATM   14  O   UNL     1       3.009  27.825  52.777  1.00  0.00    -0.267 OA
BRANCH  12  15
HETATM   15  C   UNL     1       4.225  27.508  50.080  1.00  0.00     0.035 A 
HETATM   16  C   UNL     1       3.286  28.382  49.524  1.00  0.00     0.039 A 
HETATM   17  C   UNL     1       2.712  28.125  48.267  1.00  0.00    -0.028 A 
HETATM   18  C   UNL     1       3.087  26.967  47.573  1.00  0.00     0.010 A 
HETATM   19  C   UNL     1       4.032  26.097  48.113  1.00  0.00     0.003 A 
HETATM   20  C   UNL     1       4.600  26.369  49.358  1.00  0.00     0.029 A 
BRANCH  17  21
HETATM   21  C   UNL     1       1.677  29.077  47.705  1.00  0.00     0.147 C 
HETATM   22  C   UNL     1       0.829  28.425  46.623  1.00  0.00     0.044 C 
BRANCH  21  23
HETATM   23  O   UNL     1       2.311  30.234  47.159  1.00  0.00    -0.391 OA
HETATM   24  H   UNL     1       2.305  30.911  47.857  1.00  0.00     0.210 HD
ENDBRANCH  21  23
ENDBRANCH  17  21
ENDBRANCH  12  15
ENDBRANCH   1  11
BRANCH   4  25
HETATM   25  C   UNL     1       7.354  27.581  57.624  1.00  0.00     0.409 C 
HETATM   26  F   UNL     1       6.108  28.040  57.858  1.00  0.00    -0.169 F 
HETATM   27  F   UNL     1       7.581  26.530  58.444  1.00  0.00    -0.169 F 
HETATM   28  F   UNL     1       8.200  28.572  58.020  1.00  0.00    -0.169 F 
ENDBRANCH   4  25
BRANCH   6  29
HETATM   29  C   UNL     1       7.683  23.845  54.303  1.00  0.00    -0.035 A 
HETATM   30  C   UNL     1       7.560  22.948  55.377  1.00  0.00     0.009 A 
HETATM   31  C   UNL     1       7.630  21.570  55.167  1.00  0.00     0.001 A 
HETATM   32  C   UNL     1       7.820  21.070  53.881  1.00  0.00     0.000 A 
HETATM   33  C   UNL     1       7.938  21.946  52.804  1.00  0.00     0.001 A 
HETATM   34  C   UNL     1       7.870  23.326  53.013  1.00  0.00     0.009 A 
ENDBRANCH   6  29
TORSDOF 6
ENDMDL
