MODEL 1
REMARK VINA RESULT:      -9.5      0.000      0.000
REMARK  3 active torsions:
REMARK  status: ('A' for Active; 'I' for Inactive)
REMARK    1  A    between atoms: C_5  and  C_6 
REMARK       I    between atoms: C_6  and  N_7 
REMARK    2  A    between atoms: N_7  and  C_8 
REMARK    3  A    between atoms: C_15  and  C_16 
REMARK       I    between atoms: C_16  and  N_17 
ROOT
HETATM    1  C   UNL     1       8.662  28.863  56.940  1.00  0.00     0.036 A 
HETATM    2  C   UNL     1       7.887  29.686  57.770  1.00  0.00     0.046 A 
HETATM    3  C   UNL     1       8.502  30.745  58.473  1.00  0.00     0.030 A 
HETATM    4  C   UNL     1       9.869  30.945  58.326  1.00  0.00     0.063 A 
HETATM    5  N   UNL     1      10.166  32.021  59.116  1.00  0.00    -0.277 N 
HETATM    6  H   UNL     1      11.074  32.449  59.252  1.00  0.00     0.189 HD
HETATM    7  N   UNL     1       9.114  32.543  59.765  1.00  0.00    -0.168 NA
HETATM    8  C   UNL     1       8.076  31.764  59.379  1.00  0.00     0.156 A 
HETATM    9  C   UNL     1      10.672  30.147  57.512  1.00  0.00     0.034 A 
HETATM   10  C   UNL     1      10.039  29.104  56.823  1.00  0.00     0.032 A 
ENDROOT
BRANCH   1  11
HETATM   11  N   UNL     1       8.149  27.780  56.192  1.00  0.00    -0.322 N 
HETATM   12  C   UNL     1       7.784  26.522  56.636  1.00  0.00     0.276 C 
HETATM   13  O   UNL     1       7.863  26.170  57.808  1.00  0.00    -0.266 OA
HETATM   14  H   UNL     1       8.039  27.958  55.202  1.00  0.00     0.169 HD
BRANCH  12  15
HETATM   15  C   UNL     1       7.280  25.627  55.608  1.00  0.00     0.150 A 
HETATM   16  N   UNL     1       7.848  24.399  55.276  1.00  0.00    -0.299 N 
HETATM   17  C   UNL     1       7.076  23.859  54.248  1.00  0.00     0.136 A 
HETATM   18  C   UNL     1       8.957  23.724  55.801  1.00  0.00     0.099 A 
HETATM   19  C   UNL     1       7.453  22.588  53.728  1.00  0.00     0.051 A 
HETATM   20  N   UNL     1       6.084  24.649  53.919  1.00  0.00    -0.216 NA
HETATM   21  C   UNL     1       8.523  21.946  54.232  1.00  0.00     0.005 A 
HETATM   22  C   UNL     1       9.308  22.524  55.307  1.00  0.00     0.018 A 
HETATM   23  C   UNL     1       6.202  25.737  54.740  1.00  0.00     0.161 A 
HETATM   24 CL   UNL     1       5.081  27.020  54.601  1.00  0.00    -0.060 Cl
ENDBRANCH  12  15
ENDBRANCH   1  11
BRANCH   8  25
HETATM   25  C   UNL     1       6.716  32.009  59.878  1.00  0.00     0.270 C 
HETATM   26  N   UNL     1       6.525  31.640  61.182  1.00  0.00    -0.365 N 
HETATM   27  H   UNL     1       7.303  31.238  61.691  1.00  0.00     0.159 HD
HETATM   28  H   UNL     1       5.622  31.768  61.610  1.00  0.00     0.159 HD
HETATM   29  O   UNL     1       5.806  32.500  59.218  1.00  0.00    -0.266 OA
ENDBRANCH   8  25
TORSDOF 3
ENDMDL
MODEL 2
REMARK VINA RESULT:      -9.4      5.709      7.866
REMARK  3 active torsions:
REMARK  status: ('A' for Active; 'I' for Inactive)
REMARK    1  A    between atoms: C_5  and  C_6 
REMARK       I    between atoms: C_6  and  N_7 
REMARK    2  A    between atoms: N_7  and  C_8 
REMARK    3  A    between atoms: C_15  and  C_16 
REMARK       I    between atoms: C_16  and  N_17 
ROOT
HETATM    1  C   UNL     1       5.136  26.521  52.496  1.00  0.00     0.036 A 
HETATM    2  C   UNL     1       5.170  26.441  51.097  1.00  0.00     0.046 A 
HETATM    3  C   UNL     1       4.536  27.441  50.326  1.00  0.00     0.030 A 
HETATM    4  C   UNL     1       3.889  28.483  50.978  1.00  0.00     0.063 A 
HETATM    5  N   UNL     1       3.382  29.274  49.985  1.00  0.00    -0.277 N 
HETATM    6  H   UNL     1       2.848  30.129  50.094  1.00  0.00     0.189 HD
HETATM    7  N   UNL     1       3.641  28.842  48.742  1.00  0.00    -0.168 NA
HETATM    8  C   UNL     1       4.353  27.708  48.934  1.00  0.00     0.156 A 
HETATM    9  C   UNL     1       3.834  28.595  52.367  1.00  0.00     0.034 A 
HETATM   10  C   UNL     1       4.471  27.593  53.110  1.00  0.00     0.032 A 
ENDROOT
BRANCH   1  11
HETATM   11  N   UNL     1       5.739  25.579  53.360  1.00  0.00    -0.322 N 
HETATM   12  C   UNL     1       7.079  25.429  53.671  1.00  0.00     0.276 C 
HETATM   13  O   UNL     1       7.963  26.142  53.209  1.00  0.00    -0.266 OA
HETATM   14  H   UNL     1       5.099  24.933  53.803  1.00  0.00     0.169 HD
BRANCH  12  15
HETATM   15  C   UNL     1       7.379  24.360  54.608  1.00  0.00     0.150 A 
HETATM   16  N   UNL     1       7.634  23.039  54.248  1.00  0.00    -0.299 N 
HETATM   17  C   UNL     1       7.869  22.334  55.429  1.00  0.00     0.136 A 
HETATM   18  C   UNL     1       7.690  22.418  52.994  1.00  0.00     0.099 A 
HETATM   19  C   UNL     1       8.162  20.944  55.330  1.00  0.00     0.051 A 
HETATM   20  N   UNL     1       7.779  23.109  56.482  1.00  0.00    -0.216 NA
HETATM   21  C   UNL     1       8.209  20.352  54.123  1.00  0.00     0.005 A 
HETATM   22  C   UNL     1       7.969  21.106  52.906  1.00  0.00     0.018 A 
HETATM   23  C   UNL     1       7.473  24.349  55.993  1.00  0.00     0.161 A 
HETATM   24 CL   UNL     1       7.252  25.650  57.080  1.00  0.00    -0.060 Cl
ENDBRANCH  12  15
ENDBRANCH   1  11
BRANCH   8  25
HETATM   25  C   UNL     1       4.840  26.913  47.798  1.00  0.00     0.270 C 
HETATM   26  N   UNL     1       5.995  27.388  47.240  1.00  0.00    -0.365 N 
HETATM   27  H   UNL     1       6.416  28.222  47.632  1.00  0.00     0.159 HD
HETATM   28  H   UNL     1       6.404  26.910  46.453  1.00  0.00     0.159 HD
HETATM   29  O   UNL     1       4.290  25.909  47.360  1.00  0.00    -0.266 OA
ENDBRANCH   8  25
TORSDOF 3
ENDMDL
MODEL 3
REMARK VINA RESULT:      -9.3      4.082      6.625
REMARK  3 active torsions:
REMARK  status: ('A' for Active; 'I' for Inactive)
REMARK    1  A    between atoms: C_5  and  C_6 
REMARK       I    between atoms: C_6  and  N_7 
REMARK    2  A    between atoms: N_7  and  C_8 
REMARK    3  A    between atoms: C_15  and  C_16 
REMARK       I    between atoms: C_16  and  N_17 
ROOT
HETATM    1  C   UNL     1       6.889  32.112  61.913  1.00  0.00     0.036 A 
HETATM    2  C   UNL     1       5.679  32.728  62.262  1.00  0.00     0.046 A 
HETATM    3  C   UNL     1       5.581  33.432  63.484  1.00  0.00     0.030 A 
HETATM    4  C   UNL     1       6.693  33.493  64.314  1.00  0.00     0.063 A 
HETATM    5  N   UNL     1       6.297  34.225  65.399  1.00  0.00    -0.277 N 
HETATM    6  H   UNL     1       6.853  34.472  66.209  1.00  0.00     0.189 HD
HETATM    7  N   UNL     1       5.024  34.649  65.349  1.00  0.00    -0.168 NA
HETATM    8  C   UNL     1       4.567  34.166  64.172  1.00  0.00     0.156 A 
HETATM    9  C   UNL     1       7.911  32.892  64.002  1.00  0.00     0.034 A 
HETATM   10  C   UNL     1       7.984  32.202  62.784  1.00  0.00     0.032 A 
ENDROOT
BRANCH   1  11
HETATM   11  N   UNL     1       7.095  31.388  60.718  1.00  0.00    -0.322 N 
HETATM   12  C   UNL     1       6.848  31.787  59.416  1.00  0.00     0.276 C 
HETATM   13  O   UNL     1       6.394  32.887  59.121  1.00  0.00    -0.266 OA
HETATM   14  H   UNL     1       7.471  30.457  60.840  1.00  0.00     0.169 HD
BRANCH  12  15
HETATM   15  C   UNL     1       7.177  30.804  58.397  1.00  0.00     0.150 A 
HETATM   16  N   UNL     1       8.467  30.527  57.949  1.00  0.00    -0.299 N 
HETATM   17  C   UNL     1       8.354  29.537  56.973  1.00  0.00     0.136 A 
HETATM   18  C   UNL     1       9.708  31.053  58.328  1.00  0.00     0.099 A 
HETATM   19  C   UNL     1       9.549  29.071  56.354  1.00  0.00     0.051 A 
HETATM   20  N   UNL     1       7.107  29.182  56.783  1.00  0.00    -0.216 NA
HETATM   21  C   UNL     1      10.738  29.583  56.719  1.00  0.00     0.005 A 
HETATM   22  C   UNL     1      10.833  30.608  57.742  1.00  0.00     0.018 A 
HETATM   23  C   UNL     1       6.377  29.955  57.644  1.00  0.00     0.161 A 
HETATM   24 CL   UNL     1       4.675  29.796  57.680  1.00  0.00    -0.060 Cl
ENDBRANCH  12  15
ENDBRANCH   1  11
BRANCH   8  25
HETATM   25  C   UNL     1       3.186  34.414  63.733  1.00  0.00     0.270 C 
HETATM   26  N   UNL     1       2.896  35.735  63.526  1.00  0.00    -0.365 N 
HETATM   27  H   UNL     1       3.623  36.422  63.686  1.00  0.00     0.159 HD
HETATM   28  H   UNL     1       1.973  36.002  63.225  1.00  0.00     0.159 HD
HETATM   29  O   UNL     1       2.341  33.543  63.555  1.00  0.00    -0.266 OA
ENDBRANCH   8  25
TORSDOF 3
ENDMDL
MODEL 4
REMARK VINA RESULT:      -9.2      2.089      3.078
REMARK  3 active torsions:
REMARK  status: ('A' for Active; 'I' for Inactive)
REMARK    1  A    between atoms: C_5  and  C_6 
REMARK       I    between atoms: C_6  and  N_7 
REMARK    2  A    between atoms: N_7  and  C_8 
REMARK    3  A    between atoms: C_15  and  C_16 
REMARK       I    between atoms: C_16  and  N_17 
ROOT
HETATM    1  C   UNL     1       7.196  27.459  56.299  1.00  0.00     0.036 A 
HETATM    2  C   UNL     1       8.214  28.350  56.667  1.00  0.00     0.046 A 
HETATM    3  C   UNL     1       7.896  29.494  57.434  1.00  0.00     0.030 A 
HETATM    4  C   UNL     1       6.575  29.709  57.803  1.00  0.00     0.063 A 
HETATM    5  N   UNL     1       6.583  30.872  58.522  1.00  0.00    -0.277 N 
HETATM    6  H   UNL     1       5.789  31.334  58.950  1.00  0.00     0.189 HD
HETATM    7  N   UNL     1       7.793  31.436  58.655  1.00  0.00    -0.168 NA
HETATM    8  C   UNL     1       8.617  30.596  57.987  1.00  0.00     0.156 A 
HETATM    9  C   UNL     1       5.536  28.846  57.455  1.00  0.00     0.034 A 
HETATM   10  C   UNL     1       5.876  27.718  56.696  1.00  0.00     0.032 A 
ENDROOT
BRANCH   1  11
HETATM   11  N   UNL     1       7.404  26.286  55.538  1.00  0.00    -0.322 N 
HETATM   12  C   UNL     1       7.981  25.093  55.935  1.00  0.00     0.276 C 
HETATM   13  O   UNL     1       8.407  24.892  57.067  1.00  0.00    -0.266 OA
HETATM   14  H   UNL     1       7.088  26.337  54.579  1.00  0.00     0.169 HD
BRANCH  12  15
HETATM   15  C   UNL     1       8.042  24.066  54.909  1.00  0.00     0.150 A 
HETATM   16  N   UNL     1       8.176  22.702  55.158  1.00  0.00    -0.299 N 
HETATM   17  C   UNL     1       8.200  22.063  53.919  1.00  0.00     0.136 A 
HETATM   18  C   UNL     1       8.262  21.988  56.360  1.00  0.00     0.099 A 
HETATM   19  C   UNL     1       8.327  20.645  53.901  1.00  0.00     0.051 A 
HETATM   20  N   UNL     1       8.095  22.917  52.930  1.00  0.00    -0.216 NA
HETATM   21  C   UNL     1       8.415  19.964  55.059  1.00  0.00     0.005 A 
HETATM   22  C   UNL     1       8.380  20.649  56.338  1.00  0.00     0.018 A 
HETATM   23  C   UNL     1       8.004  24.147  53.523  1.00  0.00     0.161 A 
HETATM   24 CL   UNL     1       7.869  25.543  52.547  1.00  0.00    -0.060 Cl
ENDBRANCH  12  15
ENDBRANCH   1  11
BRANCH   8  25
HETATM   25  C   UNL     1      10.060  30.861  57.893  1.00  0.00     0.270 C 
HETATM   26  N   UNL     1      10.785  29.824  57.373  1.00  0.00    -0.365 N 
HETATM   27  H   UNL     1      10.296  28.979  57.101  1.00  0.00     0.159 HD
HETATM   28  H   UNL     1      11.783  29.913  57.272  1.00  0.00     0.159 HD
HETATM   29  O   UNL     1      10.603  31.905  58.238  1.00  0.00    -0.266 OA
ENDBRANCH   8  25
TORSDOF 3
ENDMDL
MODEL 5
REMARK VINA RESULT:      -9.1      2.323      8.122
REMARK  3 active torsions:
REMARK  status: ('A' for Active; 'I' for Inactive)
REMARK    1  A    between atoms: C_5  and  C_6 
REMARK       I    between atoms: C_6  and  N_7 
REMARK    2  A    between atoms: N_7  and  C_8 
REMARK    3  A    between atoms: C_15  and  C_16 
REMARK       I    between atoms: C_16  and  N_17 
ROOT
HETATM    1  C   UNL     1       7.179  26.962  56.989  1.00  0.00     0.036 A 
HETATM    2  C   UNL     1       6.601  26.614  55.760  1.00  0.00     0.046 A 
HETATM    3  C   UNL     1       6.813  25.321  55.231  1.00  0.00     0.030 A 
HETATM    4  C   UNL     1       7.594  24.422  55.946  1.00  0.00     0.063 A 
HETATM    5  N   UNL     1       7.615  23.281  55.194  1.00  0.00    -0.277 N 
HETATM    6  H   UNL     1       8.092  22.413  55.410  1.00  0.00     0.189 HD
HETATM    7  N   UNL     1       6.915  23.354  54.051  1.00  0.00    -0.168 NA
HETATM    8  C   UNL     1       6.413  24.610  54.058  1.00  0.00     0.156 A 
HETATM    9  C   UNL     1       8.186  24.733  57.170  1.00  0.00     0.034 A 
HETATM   10  C   UNL     1       7.960  26.020  57.675  1.00  0.00     0.032 A 
ENDROOT
BRANCH   1  11
HETATM   11  N   UNL     1       7.029  28.223  57.608  1.00  0.00    -0.322 N 
HETATM   12  C   UNL     1       7.963  29.236  57.735  1.00  0.00     0.276 C 
HETATM   13  O   UNL     1       9.105  29.161  57.296  1.00  0.00    -0.266 OA
HETATM   14  H   UNL     1       6.117  28.398  58.010  1.00  0.00     0.169 HD
BRANCH  12  15
HETATM   15  C   UNL     1       7.493  30.425  58.426  1.00  0.00     0.150 A 
HETATM   16  N   UNL     1       7.990  30.884  59.644  1.00  0.00    -0.299 N 
HETATM   17  C   UNL     1       7.276  32.038  59.965  1.00  0.00     0.136 A 
HETATM   18  C   UNL     1       9.006  30.389  60.471  1.00  0.00     0.099 A 
HETATM   19  C   UNL     1       7.602  32.709  61.178  1.00  0.00     0.051 A 
HETATM   20  N   UNL     1       6.383  32.327  59.051  1.00  0.00    -0.216 NA
HETATM   21  C   UNL     1       8.576  32.226  61.972  1.00  0.00     0.005 A 
HETATM   22  C   UNL     1       9.311  31.027  61.615  1.00  0.00     0.018 A 
HETATM   23  C   UNL     1       6.502  31.344  58.107  1.00  0.00     0.161 A 
HETATM   24 CL   UNL     1       5.476  31.363  56.740  1.00  0.00    -0.060 Cl
ENDBRANCH  12  15
ENDBRANCH   1  11
BRANCH   8  25
HETATM   25  C   UNL     1       5.571  25.098  52.958  1.00  0.00     0.270 C 
HETATM   26  N   UNL     1       4.241  25.183  53.269  1.00  0.00    -0.365 N 
HETATM   27  H   UNL     1       3.942  24.912  54.198  1.00  0.00     0.159 HD
HETATM   28  H   UNL     1       3.585  25.506  52.576  1.00  0.00     0.159 HD
HETATM   29  O   UNL     1       5.984  25.412  51.846  1.00  0.00    -0.266 OA
ENDBRANCH   8  25
TORSDOF 3
ENDMDL
MODEL 6
REMARK VINA RESULT:      -8.7      3.859      9.246
REMARK  3 active torsions:
REMARK  status: ('A' for Active; 'I' for Inactive)
REMARK    1  A    between atoms: C_5  and  C_6 
REMARK       I    between atoms: C_6  and  N_7 
REMARK    2  A    between atoms: N_7  and  C_8 
REMARK    3  A    between atoms: C_15  and  C_16 
REMARK       I    between atoms: C_16  and  N_17 
ROOT
HETATM    1  C   UNL     1       7.934  31.580  59.712  1.00  0.00     0.036 A 
HETATM    2  C   UNL     1       7.639  30.668  58.689  1.00  0.00     0.046 A 
HETATM    3  C   UNL     1       8.653  30.287  57.781  1.00  0.00     0.030 A 
HETATM    4  C   UNL     1       9.923  30.831  57.925  1.00  0.00     0.063 A 
HETATM    5  N   UNL     1      10.669  30.282  56.919  1.00  0.00    -0.277 N 
HETATM    6  H   UNL     1      11.647  30.453  56.718  1.00  0.00     0.189 HD
HETATM    7  N   UNL     1       9.998  29.428  56.131  1.00  0.00    -0.168 NA
HETATM    8  C   UNL     1       8.749  29.420  56.650  1.00  0.00     0.156 A 
HETATM    9  C   UNL     1      10.253  31.741  58.928  1.00  0.00     0.034 A 
HETATM   10  C   UNL     1       9.232  32.103  59.818  1.00  0.00     0.032 A 
ENDROOT
BRANCH   1  11
HETATM   11  N   UNL     1       6.999  32.026  60.673  1.00  0.00    -0.322 N 
HETATM   12  C   UNL     1       6.918  31.695  62.014  1.00  0.00     0.276 C 
HETATM   13  O   UNL     1       7.698  30.930  62.570  1.00  0.00    -0.266 OA
HETATM   14  H   UNL     1       6.300  32.669  60.324  1.00  0.00     0.169 HD
BRANCH  12  15
HETATM   15  C   UNL     1       5.834  32.334  62.742  1.00  0.00     0.150 A 
HETATM   16  N   UNL     1       5.973  32.973  63.972  1.00  0.00    -0.299 N 
HETATM   17  C   UNL     1       4.710  33.444  64.330  1.00  0.00     0.136 A 
HETATM   18  C   UNL     1       7.097  33.185  64.780  1.00  0.00     0.099 A 
HETATM   19  C   UNL     1       4.584  34.147  65.562  1.00  0.00     0.051 A 
HETATM   20  N   UNL     1       3.807  33.147  63.428  1.00  0.00    -0.216 NA
HETATM   21  C   UNL     1       5.667  34.343  66.337  1.00  0.00     0.005 A 
HETATM   22  C   UNL     1       6.974  33.851  65.941  1.00  0.00     0.018 A 
HETATM   23  C   UNL     1       4.482  32.462  62.454  1.00  0.00     0.161 A 
HETATM   24 CL   UNL     1       3.629  31.880  61.092  1.00  0.00    -0.060 Cl
ENDBRANCH  12  15
ENDBRANCH   1  11
BRANCH   8  25
HETATM   25  C   UNL     1       7.687  28.592  56.062  1.00  0.00     0.270 C 
HETATM   26  N   UNL     1       6.740  29.304  55.377  1.00  0.00    -0.365 N 
HETATM   27  H   UNL     1       6.833  30.311  55.326  1.00  0.00     0.159 HD
HETATM   28  H   UNL     1       5.971  28.822  54.940  1.00  0.00     0.159 HD
HETATM   29  O   UNL     1       7.619  27.371  56.154  1.00  0.00    -0.266 OA
ENDBRANCH   8  25
TORSDOF 3
ENDMDL
MODEL 7
REMARK VINA RESULT:      -8.5      4.027      4.988
REMARK  3 active torsions:
REMARK  status: ('A' for Active; 'I' for Inactive)
REMARK    1  A    between atoms: C_5  and  C_6 
REMARK       I    between atoms: C_6  and  N_7 
REMARK    2  A    between atoms: N_7  and  C_8 
REMARK    3  A    between atoms: C_15  and  C_16 
REMARK       I    between atoms: C_16  and  N_17 
ROOT
HETATM    1  C   UNL     1       5.290  26.931  54.576  1.00  0.00     0.036 A 
HETATM    2  C   UNL     1       5.013  28.046  55.379  1.00  0.00     0.046 A 
HETATM    3  C   UNL     1       4.239  29.107  54.857  1.00  0.00     0.030 A 
HETATM    4  C   UNL     1       3.773  29.019  53.552  1.00  0.00     0.063 A 
HETATM    5  N   UNL     1       3.073  30.174  53.338  1.00  0.00    -0.277 N 
HETATM    6  H   UNL     1       2.591  30.451  52.490  1.00  0.00     0.189 HD
HETATM    7  N   UNL     1       3.040  31.008  54.389  1.00  0.00    -0.168 NA
HETATM    8  C   UNL     1       3.758  30.364  55.337  1.00  0.00     0.156 A 
HETATM    9  C   UNL     1       4.029  27.928  52.723  1.00  0.00     0.034 A 
HETATM   10  C   UNL     1       4.796  26.887  53.264  1.00  0.00     0.032 A 
ENDROOT
BRANCH   1  11
HETATM   11  N   UNL     1       6.048  25.816  54.999  1.00  0.00    -0.322 N 
HETATM   12  C   UNL     1       7.256  25.358  54.502  1.00  0.00     0.276 C 
HETATM   13  O   UNL     1       7.855  25.898  53.579  1.00  0.00    -0.266 OA
HETATM   14  H   UNL     1       5.646  25.290  55.763  1.00  0.00     0.169 HD
BRANCH  12  15
HETATM   15  C   UNL     1       7.787  24.178  55.164  1.00  0.00     0.150 A 
HETATM   16  N   UNL     1       7.936  22.931  54.562  1.00  0.00    -0.299 N 
HETATM   17  C   UNL     1       8.469  22.075  55.527  1.00  0.00     0.136 A 
HETATM   18  C   UNL     1       7.661  22.495  53.260  1.00  0.00     0.099 A 
HETATM   19  C   UNL     1       8.722  20.724  55.155  1.00  0.00     0.051 A 
HETATM   20  N   UNL     1       8.658  22.690  56.669  1.00  0.00    -0.216 NA
HETATM   21  C   UNL     1       8.451  20.311  53.903  1.00  0.00     0.005 A 
HETATM   22  C   UNL     1       7.904  21.219  52.913  1.00  0.00     0.018 A 
HETATM   23  C   UNL     1       8.238  23.975  56.461  1.00  0.00     0.161 A 
HETATM   24 CL   UNL     1       8.312  25.101  57.745  1.00  0.00    -0.060 Cl
ENDBRANCH  12  15
ENDBRANCH   1  11
BRANCH   8  25
HETATM   25  C   UNL     1       3.965  30.955  56.666  1.00  0.00     0.270 C 
HETATM   26  N   UNL     1       3.259  30.342  57.665  1.00  0.00    -0.365 N 
HETATM   27  H   UNL     1       2.665  29.556  57.428  1.00  0.00     0.159 HD
HETATM   28  H   UNL     1       3.336  30.679  58.611  1.00  0.00     0.159 HD
HETATM   29  O   UNL     1       4.697  31.911  56.901  1.00  0.00    -0.266 OA
ENDBRANCH   8  25
TORSDOF 3
ENDMDL
MODEL 8
REMARK VINA RESULT:      -8.4      2.418      8.072
REMARK  3 active torsions:
REMARK  status: ('A' for Active; 'I' for Inactive)
REMARK    1  A    between atoms: C_5  and  C_6 
REMARK       I    between atoms: C_6  and  N_7 
REMARK    2  A    between atoms: N_7  and  C_8 
REMARK    3  A    between atoms: C_15  and  C_16 
REMARK       I    between atoms: C_16  and  N_17 
ROOT
HETATM    1  C   UNL     1       7.097  27.999  56.486  1.00  0.00     0.036 A 
HETATM    2  C   UNL     1       7.490  26.707  56.862  1.00  0.00     0.046 A 
HETATM    3  C   UNL     1       7.657  25.713  55.872  1.00  0.00     0.030 A 
HETATM    4  C   UNL     1       7.422  26.043  54.544  1.00  0.00     0.063 A 
HETATM    5  N   UNL     1       7.660  24.896  53.837  1.00  0.00    -0.277 N 
HETATM    6  H   UNL     1       7.587  24.767  52.835  1.00  0.00     0.189 HD
HETATM    7  N   UNL     1       8.029  23.847  54.588  1.00  0.00    -0.168 NA
HETATM    8  C   UNL     1       8.031  24.334  55.849  1.00  0.00     0.156 A 
HETATM    9  C   UNL     1       7.029  27.316  54.132  1.00  0.00     0.034 A 
HETATM   10  C   UNL     1       6.872  28.285  55.132  1.00  0.00     0.032 A 
ENDROOT
BRANCH   1  11
HETATM   11  N   UNL     1       6.905  29.066  57.393  1.00  0.00    -0.322 N 
HETATM   12  C   UNL     1       7.815  30.028  57.796  1.00  0.00     0.276 C 
HETATM   13  O   UNL     1       8.970  30.078  57.389  1.00  0.00    -0.266 OA
HETATM   14  H   UNL     1       5.979  29.124  57.796  1.00  0.00     0.169 HD
BRANCH  12  15
HETATM   15  C   UNL     1       7.302  31.003  58.744  1.00  0.00     0.150 A 
HETATM   16  N   UNL     1       7.811  31.209  60.024  1.00  0.00    -0.299 N 
HETATM   17  C   UNL     1       7.045  32.217  60.609  1.00  0.00     0.136 A 
HETATM   18  C   UNL     1       8.878  30.605  60.701  1.00  0.00     0.099 A 
HETATM   19  C   UNL     1       7.371  32.620  61.935  1.00  0.00     0.051 A 
HETATM   20  N   UNL     1       6.110  32.648  59.798  1.00  0.00    -0.216 NA
HETATM   21  C   UNL     1       8.395  32.033  62.582  1.00  0.00     0.005 A 
HETATM   22  C   UNL     1       9.183  30.990  61.952  1.00  0.00     0.018 A 
HETATM   23  C   UNL     1       6.252  31.908  58.656  1.00  0.00     0.161 A 
HETATM   24 CL   UNL     1       5.185  32.168  57.347  1.00  0.00    -0.060 Cl
ENDBRANCH  12  15
ENDBRANCH   1  11
BRANCH   8  25
HETATM   25  C   UNL     1       8.389  23.484  56.993  1.00  0.00     0.270 C 
HETATM   26  N   UNL     1       8.786  24.179  58.102  1.00  0.00    -0.365 N 
HETATM   27  H   UNL     1       8.807  25.191  58.059  1.00  0.00     0.159 HD
HETATM   28  H   UNL     1       9.053  23.680  58.936  1.00  0.00     0.159 HD
HETATM   29  O   UNL     1       8.347  22.258  56.993  1.00  0.00    -0.266 OA
ENDBRANCH   8  25
TORSDOF 3
ENDMDL
MODEL 9
REMARK VINA RESULT:      -8.4      5.094      7.905
REMARK  3 active torsions:
REMARK  status: ('A' for Active; 'I' for Inactive)
REMARK    1  A    between atoms: C_5  and  C_6 
REMARK       I    between atoms: C_6  and  N_7 
REMARK    2  A    between atoms: N_7  and  C_8 
REMARK    3  A    between atoms: C_15  and  C_16 
REMARK       I    between atoms: C_16  and  N_17 
ROOT
HETATM    1  C   UNL     1       5.817  25.774  54.737  1.00  0.00     0.036 A 
HETATM    2  C   UNL     1       6.457  24.569  54.415  1.00  0.00     0.046 A 
HETATM    3  C   UNL     1       7.174  23.872  55.413  1.00  0.00     0.030 A 
HETATM    4  C   UNL     1       7.230  24.403  56.695  1.00  0.00     0.063 A 
HETATM    5  N   UNL     1       7.981  23.522  57.421  1.00  0.00    -0.277 N 
HETATM    6  H   UNL     1       8.229  23.589  58.401  1.00  0.00     0.189 HD
HETATM    7  N   UNL     1       8.421  22.461  56.727  1.00  0.00    -0.168 NA
HETATM    8  C   UNL     1       7.931  22.662  55.482  1.00  0.00     0.156 A 
HETATM    9  C   UNL     1       6.608  25.599  57.052  1.00  0.00     0.034 A 
HETATM   10  C   UNL     1       5.901  26.271  56.046  1.00  0.00     0.032 A 
ENDROOT
BRANCH   1  11
HETATM   11  N   UNL     1       5.072  26.548  53.819  1.00  0.00    -0.322 N 
HETATM   12  C   UNL     1       5.489  27.635  53.070  1.00  0.00     0.276 C 
HETATM   13  O   UNL     1       6.628  28.086  53.112  1.00  0.00    -0.266 OA
HETATM   14  H   UNL     1       4.108  26.263  53.702  1.00  0.00     0.169 HD
BRANCH  12  15
HETATM   15  C   UNL     1       4.475  28.213  52.205  1.00  0.00     0.150 A 
HETATM   16  N   UNL     1       4.214  27.799  50.902  1.00  0.00    -0.299 N 
HETATM   17  C   UNL     1       3.182  28.603  50.418  1.00  0.00     0.136 A 
HETATM   18  C   UNL     1       4.786  26.784  50.123  1.00  0.00     0.099 A 
HETATM   19  C   UNL     1       2.722  28.373  49.090  1.00  0.00     0.051 A 
HETATM   20  N   UNL     1       2.788  29.477  51.312  1.00  0.00    -0.216 NA
HETATM   21  C   UNL     1       3.280  27.400  48.346  1.00  0.00     0.005 A 
HETATM   22  C   UNL     1       4.347  26.570  48.871  1.00  0.00     0.018 A 
HETATM   23  C   UNL     1       3.577  29.253  52.407  1.00  0.00     0.161 A 
HETATM   24 CL   UNL     1       3.375  30.222  53.801  1.00  0.00    -0.060 Cl
ENDBRANCH  12  15
ENDBRANCH   1  11
BRANCH   8  25
HETATM   25  C   UNL     1       8.193  21.705  54.398  1.00  0.00     0.270 C 
HETATM   26  N   UNL     1       7.967  20.400  54.740  1.00  0.00    -0.365 N 
HETATM   27  H   UNL     1       7.650  20.192  55.679  1.00  0.00     0.159 HD
HETATM   28  H   UNL     1       8.121  19.672  54.061  1.00  0.00     0.159 HD
HETATM   29  O   UNL     1       8.579  22.009  53.274  1.00  0.00    -0.266 OA
ENDBRANCH   8  25
TORSDOF 3
ENDMDL
MODEL 10
REMARK VINA RESULT:      -8.0      4.609      7.891
REMARK  3 active torsions:
REMARK  status: ('A' for Active; 'I' for Inactive)
REMARK    1  A    between atoms: C_5  and  C_6 
REMARK       I    between atoms: C_6  and  N_7 
REMARK    2  A    between atoms: N_7  and  C_8 
REMARK    3  A    between atoms: C_15  and  C_16 
REMARK       I    between atoms: C_16  and  N_17 
ROOT
HETATM    1  C   UNL     1       5.337  32.643  62.406  1.00  0.00     0.036 A 
HETATM    2  C   UNL     1       5.587  32.957  63.749  1.00  0.00     0.046 A 
HETATM    3  C   UNL     1       4.621  33.674  64.489  1.00  0.00     0.030 A 
HETATM    4  C   UNL     1       3.441  34.055  63.862  1.00  0.00     0.063 A 
HETATM    5  N   UNL     1       2.721  34.720  64.815  1.00  0.00    -0.277 N 
HETATM    6  H   UNL     1       1.805  35.139  64.710  1.00  0.00     0.189 HD
HETATM    7  N   UNL     1       3.326  34.808  66.010  1.00  0.00    -0.168 NA
HETATM    8  C   UNL     1       4.503  34.166  65.825  1.00  0.00     0.156 A 
HETATM    9  C   UNL     1       3.158  33.762  62.529  1.00  0.00     0.034 A 
HETATM   10  C   UNL     1       4.131  33.048  61.816  1.00  0.00     0.032 A 
ENDROOT
BRANCH   1  11
HETATM   11  N   UNL     1       6.232  31.929  61.577  1.00  0.00    -0.322 N 
HETATM   12  C   UNL     1       6.533  32.148  60.244  1.00  0.00     0.276 C 
HETATM   13  O   UNL     1       6.031  33.046  59.577  1.00  0.00    -0.266 OA
HETATM   14  H   UNL     1       6.709  31.158  62.026  1.00  0.00     0.169 HD
BRANCH  12  15
HETATM   15  C   UNL     1       7.509  31.235  59.675  1.00  0.00     0.150 A 
HETATM   16  N   UNL     1       7.292  30.441  58.551  1.00  0.00    -0.299 N 
HETATM   17  C   UNL     1       8.462  29.712  58.336  1.00  0.00     0.136 A 
HETATM   18  C   UNL     1       6.179  30.317  57.710  1.00  0.00     0.099 A 
HETATM   19  C   UNL     1       8.496  28.817  57.229  1.00  0.00     0.051 A 
HETATM   20  N   UNL     1       9.378  29.989  59.231  1.00  0.00    -0.216 NA
HETATM   21  C   UNL     1       7.422  28.699  56.427  1.00  0.00     0.005 A 
HETATM   22  C   UNL     1       6.218  29.472  56.665  1.00  0.00     0.018 A 
HETATM   23  C   UNL     1       8.804  30.915  60.059  1.00  0.00     0.161 A 
HETATM   24 CL   UNL     1       9.695  31.521  61.386  1.00  0.00    -0.060 Cl
ENDBRANCH  12  15
ENDBRANCH   1  11
BRANCH   8  25
HETATM   25  C   UNL     1       5.478  34.038  66.917  1.00  0.00     0.270 C 
HETATM   26  N   UNL     1       4.918  33.773  68.137  1.00  0.00    -0.365 N 
HETATM   27  H   UNL     1       3.910  33.690  68.200  1.00  0.00     0.159 HD
HETATM   28  H   UNL     1       5.508  33.670  68.946  1.00  0.00     0.159 HD
HETATM   29  O   UNL     1       6.693  34.149  66.787  1.00  0.00    -0.266 OA
ENDBRANCH   8  25
TORSDOF 3
ENDMDL
