MODEL 1
REMARK VINA RESULT:      -9.4      0.000      0.000
REMARK  5 active torsions:
REMARK  status: ('A' for Active; 'I' for Inactive)
REMARK    1  A    between atoms: C_4  and  O_5 
REMARK    2  A    between atoms: O_5  and  C_6 
REMARK    3  A    between atoms: C_6  and  C_7 
REMARK       I    between atoms: C_7  and  N_8 
REMARK    4  A    between atoms: N_8  and  N_9 
REMARK    5  A    between atoms: C_10  and  C_11 
ROOT
HETATM    1  C   UNL     1       7.601  26.014  57.212  1.00  0.00     0.261 C 
HETATM    2  N   UNL     1       8.234  27.216  57.501  1.00  0.00    -0.246 N 
HETATM    3  O   UNL     1       6.504  25.645  57.628  1.00  0.00    -0.269 OA
HETATM    4  H   UNL     1       9.069  27.435  56.958  1.00  0.00     0.192 HD
ENDROOT
BRANCH   2   5
HETATM    5  N   UNL     1       7.753  28.273  58.233  1.00  0.00    -0.184 NA
HETATM    6  C   UNL     1       7.957  29.486  57.831  1.00  0.00     0.152 C 
BRANCH   6   7
HETATM    7  C   UNL     1       7.476  30.596  58.632  1.00  0.00     0.011 A 
HETATM    8  C   UNL     1       7.987  31.015  59.904  1.00  0.00     0.004 A 
HETATM    9  C   UNL     1       7.232  32.113  60.318  1.00  0.00     0.043 A 
HETATM   10  C   UNL     1       9.016  30.551  60.751  1.00  0.00     0.014 A 
HETATM   11  C   UNL     1       7.456  32.772  61.533  1.00  0.00     0.030 A 
HETATM   12  N   UNL     1       6.302  32.357  59.334  1.00  0.00    -0.364 N 
HETATM   13  C   UNL     1       8.481  32.290  62.353  1.00  0.00     0.002 A 
HETATM   14  C   UNL     1       9.251  31.196  61.971  1.00  0.00     0.001 A 
HETATM   15  H   UNL     1       5.615  33.099  59.366  1.00  0.00     0.165 HD
HETATM   16  C   UNL     1       6.433  31.446  58.321  1.00  0.00     0.102 A 
ENDBRANCH   6   7
ENDBRANCH   2   5
BRANCH   1  17
HETATM   17  C   UNL     1       8.458  25.087  56.354  1.00  0.00     0.280 C 
BRANCH  17  18
HETATM   18  O   UNL     1       7.850  24.853  55.086  1.00  0.00    -0.342 OA
BRANCH  18  19
HETATM   19  C   UNL     1       7.884  23.543  54.676  1.00  0.00     0.075 A 
HETATM   20  C   UNL     1       7.947  22.464  55.568  1.00  0.00     0.044 A 
HETATM   21  C   UNL     1       7.976  21.145  55.094  1.00  0.00    -0.059 A 
HETATM   22  C   UNL     1       7.998  19.988  56.048  1.00  0.00     0.048 C 
HETATM   23  C   UNL     1       7.937  20.917  53.716  1.00  0.00     0.007 A 
HETATM   24  C   UNL     1       7.900  21.991  52.823  1.00  0.00     0.010 A 
HETATM   25  C   UNL     1       7.888  23.312  53.293  1.00  0.00    -0.029 A 
HETATM   26  C   UNL     1       7.826  24.451  52.316  1.00  0.00     0.051 C 
ENDBRANCH  18  19
ENDBRANCH  17  18
ENDBRANCH   1  17
TORSDOF 5
ENDMDL
MODEL 2
REMARK VINA RESULT:      -9.4      1.623      2.158
REMARK  5 active torsions:
REMARK  status: ('A' for Active; 'I' for Inactive)
REMARK    1  A    between atoms: C_4  and  O_5 
REMARK    2  A    between atoms: O_5  and  C_6 
REMARK    3  A    between atoms: C_6  and  C_7 
REMARK       I    between atoms: C_7  and  N_8 
REMARK    4  A    between atoms: N_8  and  N_9 
REMARK    5  A    between atoms: C_10  and  C_11 
ROOT
HETATM    1  C   UNL     1       6.304  26.218  56.654  1.00  0.00     0.261 C 
HETATM    2  N   UNL     1       7.673  26.358  56.838  1.00  0.00    -0.246 N 
HETATM    3  O   UNL     1       5.429  26.984  57.054  1.00  0.00    -0.269 OA
HETATM    4  H   UNL     1       8.273  25.719  56.316  1.00  0.00     0.192 HD
ENDROOT
BRANCH   2   5
HETATM    5  N   UNL     1       8.348  27.400  57.425  1.00  0.00    -0.184 NA
HETATM    6  C   UNL     1       8.589  28.477  56.750  1.00  0.00     0.152 C 
BRANCH   6   7
HETATM    7  C   UNL     1       9.334  29.557  57.368  1.00  0.00     0.011 A 
HETATM    8  C   UNL     1       8.880  30.412  58.425  1.00  0.00     0.004 A 
HETATM    9  C   UNL     1       9.909  31.310  58.710  1.00  0.00     0.043 A 
HETATM   10  C   UNL     1       7.679  30.513  59.160  1.00  0.00     0.014 A 
HETATM   11  C   UNL     1       9.800  32.302  59.693  1.00  0.00     0.030 A 
HETATM   12  N   UNL     1      10.952  31.011  57.863  1.00  0.00    -0.364 N 
HETATM   13  C   UNL     1       8.598  32.381  60.403  1.00  0.00     0.002 A 
HETATM   14  C   UNL     1       7.551  31.501  60.143  1.00  0.00     0.001 A 
HETATM   15  H   UNL     1      11.835  31.503  57.846  1.00  0.00     0.165 HD
HETATM   16  C   UNL     1      10.615  29.966  57.047  1.00  0.00     0.102 A 
ENDBRANCH   6   7
ENDBRANCH   2   5
BRANCH   1  17
HETATM   17  C   UNL     1       5.934  24.917  55.946  1.00  0.00     0.280 C 
BRANCH  17  18
HETATM   18  O   UNL     1       6.573  24.824  54.675  1.00  0.00    -0.342 OA
BRANCH  18  19
HETATM   19  C   UNL     1       7.178  23.615  54.435  1.00  0.00     0.075 A 
HETATM   20  C   UNL     1       7.302  22.613  55.407  1.00  0.00     0.044 A 
HETATM   21  C   UNL     1       7.927  21.396  55.105  1.00  0.00    -0.059 A 
HETATM   22  C   UNL     1       8.020  20.307  56.131  1.00  0.00     0.048 C 
HETATM   23  C   UNL     1       8.424  21.189  53.816  1.00  0.00     0.007 A 
HETATM   24  C   UNL     1       8.326  22.195  52.851  1.00  0.00     0.010 A 
HETATM   25  C   UNL     1       7.717  23.420  53.154  1.00  0.00    -0.029 A 
HETATM   26  C   UNL     1       7.602  24.479  52.095  1.00  0.00     0.051 C 
ENDBRANCH  18  19
ENDBRANCH  17  18
ENDBRANCH   1  17
TORSDOF 5
ENDMDL
MODEL 3
REMARK VINA RESULT:      -9.2      2.108      9.667
REMARK  5 active torsions:
REMARK  status: ('A' for Active; 'I' for Inactive)
REMARK    1  A    between atoms: C_4  and  O_5 
REMARK    2  A    between atoms: O_5  and  C_6 
REMARK    3  A    between atoms: C_6  and  C_7 
REMARK       I    between atoms: C_7  and  N_8 
REMARK    4  A    between atoms: N_8  and  N_9 
REMARK    5  A    between atoms: C_10  and  C_11 
ROOT
HETATM    1  C   UNL     1       6.425  27.313  57.184  1.00  0.00     0.261 C 
HETATM    2  N   UNL     1       7.475  26.413  57.055  1.00  0.00    -0.246 N 
HETATM    3  O   UNL     1       5.241  27.097  56.930  1.00  0.00    -0.269 OA
HETATM    4  H   UNL     1       8.372  26.698  57.449  1.00  0.00     0.192 HD
ENDROOT
BRANCH   2   5
HETATM    5  N   UNL     1       7.418  25.088  56.701  1.00  0.00    -0.184 NA
HETATM    6  C   UNL     1       8.401  24.297  56.992  1.00  0.00     0.152 C 
BRANCH   6   7
HETATM    7  C   UNL     1       8.345  22.907  56.580  1.00  0.00     0.011 A 
HETATM    8  C   UNL     1       8.246  22.418  55.237  1.00  0.00     0.004 A 
HETATM    9  C   UNL     1       8.217  21.024  55.299  1.00  0.00     0.043 A 
HETATM   10  C   UNL     1       8.165  23.034  53.970  1.00  0.00     0.014 A 
HETATM   11  C   UNL     1       8.114  20.216  54.160  1.00  0.00     0.030 A 
HETATM   12  N   UNL     1       8.301  20.678  56.628  1.00  0.00    -0.364 N 
HETATM   13  C   UNL     1       8.033  20.854  52.918  1.00  0.00     0.002 A 
HETATM   14  C   UNL     1       8.057  22.242  52.821  1.00  0.00     0.001 A 
HETATM   15  H   UNL     1       8.302  19.727  56.973  1.00  0.00     0.165 HD
HETATM   16  C   UNL     1       8.369  21.800  57.407  1.00  0.00     0.102 A 
ENDBRANCH   6   7
ENDBRANCH   2   5
BRANCH   1  17
HETATM   17  C   UNL     1       6.888  28.703  57.609  1.00  0.00     0.280 C 
BRANCH  17  18
HETATM   18  O   UNL     1       8.123  28.639  58.318  1.00  0.00    -0.342 OA
BRANCH  18  19
HETATM   19  C   UNL     1       8.596  29.857  58.740  1.00  0.00     0.075 A 
HETATM   20  C   UNL     1       7.961  30.626  59.724  1.00  0.00     0.044 A 
HETATM   21  C   UNL     1       8.491  31.862  60.118  1.00  0.00    -0.059 A 
HETATM   22  C   UNL     1       7.838  32.666  61.203  1.00  0.00     0.048 C 
HETATM   23  C   UNL     1       9.667  32.320  59.519  1.00  0.00     0.007 A 
HETATM   24  C   UNL     1      10.289  31.569  58.518  1.00  0.00     0.010 A 
HETATM   25  C   UNL     1       9.753  30.339  58.110  1.00  0.00    -0.029 A 
HETATM   26  C   UNL     1      10.450  29.537  57.048  1.00  0.00     0.051 C 
ENDBRANCH  18  19
ENDBRANCH  17  18
ENDBRANCH   1  17
TORSDOF 5
ENDMDL
MODEL 4
REMARK VINA RESULT:      -9.2      2.303     10.143
REMARK  5 active torsions:
REMARK  status: ('A' for Active; 'I' for Inactive)
REMARK    1  A    between atoms: C_4  and  O_5 
REMARK    2  A    between atoms: O_5  and  C_6 
REMARK    3  A    between atoms: C_6  and  C_7 
REMARK       I    between atoms: C_7  and  N_8 
REMARK    4  A    between atoms: N_8  and  N_9 
REMARK    5  A    between atoms: C_10  and  C_11 
ROOT
HETATM    1  C   UNL     1       8.098  30.027  58.444  1.00  0.00     0.261 C 
HETATM    2  N   UNL     1       7.387  28.856  58.218  1.00  0.00    -0.246 N 
HETATM    3  O   UNL     1       9.322  30.152  58.446  1.00  0.00    -0.269 OA
HETATM    4  H   UNL     1       6.378  28.949  58.100  1.00  0.00     0.192 HD
ENDROOT
BRANCH   2   5
HETATM    5  N   UNL     1       7.876  27.619  57.874  1.00  0.00    -0.184 NA
HETATM    6  C   UNL     1       7.342  26.961  56.897  1.00  0.00     0.152 C 
BRANCH   6   7
HETATM    7  C   UNL     1       7.844  25.640  56.567  1.00  0.00     0.011 A 
HETATM    8  C   UNL     1       7.753  24.986  55.295  1.00  0.00     0.004 A 
HETATM    9  C   UNL     1       8.357  23.734  55.423  1.00  0.00     0.043 A 
HETATM   10  C   UNL     1       7.198  25.338  54.046  1.00  0.00     0.014 A 
HETATM   11  C   UNL     1       8.437  22.820  54.366  1.00  0.00     0.030 A 
HETATM   12  N   UNL     1       8.804  23.633  56.720  1.00  0.00    -0.364 N 
HETATM   13  C   UNL     1       7.877  23.194  53.140  1.00  0.00     0.002 A 
HETATM   14  C   UNL     1       7.266  24.434  52.979  1.00  0.00     0.001 A 
HETATM   15  H   UNL     1       9.284  22.828  57.099  1.00  0.00     0.165 HD
HETATM   16  C   UNL     1       8.493  24.768  57.419  1.00  0.00     0.102 A 
ENDBRANCH   6   7
ENDBRANCH   2   5
BRANCH   1  17
HETATM   17  C   UNL     1       7.196  31.207  58.796  1.00  0.00     0.280 C 
BRANCH  17  18
HETATM   18  O   UNL     1       7.924  32.226  59.475  1.00  0.00    -0.342 OA
BRANCH  18  19
HETATM   19  C   UNL     1       7.522  32.440  60.771  1.00  0.00     0.075 A 
HETATM   20  C   UNL     1       6.236  32.881  61.110  1.00  0.00     0.044 A 
HETATM   21  C   UNL     1       5.879  33.080  62.450  1.00  0.00    -0.059 A 
HETATM   22  C   UNL     1       4.489  33.509  62.818  1.00  0.00     0.048 C 
HETATM   23  C   UNL     1       6.822  32.829  63.449  1.00  0.00     0.007 A 
HETATM   24  C   UNL     1       8.113  32.415  63.114  1.00  0.00     0.010 A 
HETATM   25  C   UNL     1       8.480  32.231  61.774  1.00  0.00    -0.029 A 
HETATM   26  C   UNL     1       9.867  31.763  61.436  1.00  0.00     0.051 C 
ENDBRANCH  18  19
ENDBRANCH  17  18
ENDBRANCH   1  17
TORSDOF 5
ENDMDL
MODEL 5
REMARK VINA RESULT:      -9.1      2.213      9.586
REMARK  5 active torsions:
REMARK  status: ('A' for Active; 'I' for Inactive)
REMARK    1  A    between atoms: C_4  and  O_5 
REMARK    2  A    between atoms: O_5  and  C_6 
REMARK    3  A    between atoms: C_6  and  C_7 
REMARK       I    between atoms: C_7  and  N_8 
REMARK    4  A    between atoms: N_8  and  N_9 
REMARK    5  A    between atoms: C_10  and  C_11 
ROOT
HETATM    1  C   UNL     1       7.207  27.402  57.266  1.00  0.00     0.261 C 
HETATM    2  N   UNL     1       6.607  26.797  56.169  1.00  0.00    -0.246 N 
HETATM    3  O   UNL     1       7.951  26.862  58.083  1.00  0.00    -0.269 OA
HETATM    4  H   UNL     1       6.142  27.414  55.504  1.00  0.00     0.192 HD
ENDROOT
BRANCH   2   5
HETATM    5  N   UNL     1       6.769  25.511  55.715  1.00  0.00    -0.184 NA
HETATM    6  C   UNL     1       7.543  25.274  54.705  1.00  0.00     0.152 C 
BRANCH   6   7
HETATM    7  C   UNL     1       7.678  23.916  54.211  1.00  0.00     0.011 A 
HETATM    8  C   UNL     1       7.947  22.747  54.993  1.00  0.00     0.004 A 
HETATM    9  C   UNL     1       8.000  21.660  54.119  1.00  0.00     0.043 A 
HETATM   10  C   UNL     1       8.166  22.512  56.368  1.00  0.00     0.014 A 
HETATM   11  C   UNL     1       8.256  20.352  54.550  1.00  0.00     0.030 A 
HETATM   12  N   UNL     1       7.766  22.148  52.854  1.00  0.00    -0.364 N 
HETATM   13  C   UNL     1       8.471  20.150  55.917  1.00  0.00     0.002 A 
HETATM   14  C   UNL     1       8.427  21.212  56.815  1.00  0.00     0.001 A 
HETATM   15  H   UNL     1       7.745  21.582  52.017  1.00  0.00     0.165 HD
HETATM   16  C   UNL     1       7.580  23.503  52.896  1.00  0.00     0.102 A 
ENDBRANCH   6   7
ENDBRANCH   2   5
BRANCH   1  17
HETATM   17  C   UNL     1       6.783  28.857  57.443  1.00  0.00     0.280 C 
BRANCH  17  18
HETATM   18  O   UNL     1       7.863  29.745  57.166  1.00  0.00    -0.342 OA
BRANCH  18  19
HETATM   19  C   UNL     1       8.162  30.608  58.192  1.00  0.00     0.075 A 
HETATM   20  C   UNL     1       7.185  31.192  59.009  1.00  0.00     0.044 A 
HETATM   21  C   UNL     1       7.547  32.065  60.044  1.00  0.00    -0.059 A 
HETATM   22  C   UNL     1       6.507  32.656  60.948  1.00  0.00     0.048 C 
HETATM   23  C   UNL     1       8.900  32.344  60.255  1.00  0.00     0.007 A 
HETATM   24  C   UNL     1       9.875  31.785  59.426  1.00  0.00     0.010 A 
HETATM   25  C   UNL     1       9.515  30.924  58.379  1.00  0.00    -0.029 A 
HETATM   26  C   UNL     1      10.581  30.316  57.514  1.00  0.00     0.051 C 
ENDBRANCH  18  19
ENDBRANCH  17  18
ENDBRANCH   1  17
TORSDOF 5
ENDMDL
MODEL 6
REMARK VINA RESULT:      -8.9      2.277      9.887
REMARK  5 active torsions:
REMARK  status: ('A' for Active; 'I' for Inactive)
REMARK    1  A    between atoms: C_4  and  O_5 
REMARK    2  A    between atoms: O_5  and  C_6 
REMARK    3  A    between atoms: C_6  and  C_7 
REMARK       I    between atoms: C_7  and  N_8 
REMARK    4  A    between atoms: N_8  and  N_9 
REMARK    5  A    between atoms: C_10  and  C_11 
ROOT
HETATM    1  C   UNL     1       7.651  28.816  56.570  1.00  0.00     0.261 C 
HETATM    2  N   UNL     1       7.029  27.592  56.360  1.00  0.00    -0.246 N 
HETATM    3  O   UNL     1       8.579  29.288  55.916  1.00  0.00    -0.269 OA
HETATM    4  H   UNL     1       6.178  27.414  56.893  1.00  0.00     0.192 HD
ENDROOT
BRANCH   2   5
HETATM    5  N   UNL     1       7.251  26.691  55.349  1.00  0.00    -0.184 NA
HETATM    6  C   UNL     1       7.308  25.425  55.611  1.00  0.00     0.152 C 
BRANCH   6   7
HETATM    7  C   UNL     1       7.580  24.484  54.540  1.00  0.00     0.011 A 
HETATM    8  C   UNL     1       7.739  23.066  54.669  1.00  0.00     0.004 A 
HETATM    9  C   UNL     1       7.992  22.555  53.396  1.00  0.00     0.043 A 
HETATM   10  C   UNL     1       7.705  22.168  55.758  1.00  0.00     0.014 A 
HETATM   11  C   UNL     1       8.209  21.192  53.155  1.00  0.00     0.030 A 
HETATM   12  N   UNL     1       7.981  23.619  52.524  1.00  0.00    -0.364 N 
HETATM   13  C   UNL     1       8.172  20.326  54.253  1.00  0.00     0.002 A 
HETATM   14  C   UNL     1       7.924  20.804  55.536  1.00  0.00     0.001 A 
HETATM   15  H   UNL     1       8.137  23.545  51.528  1.00  0.00     0.165 HD
HETATM   16  C   UNL     1       7.744  24.784  53.201  1.00  0.00     0.102 A 
ENDBRANCH   6   7
ENDBRANCH   2   5
BRANCH   1  17
HETATM   17  C   UNL     1       7.122  29.543  57.804  1.00  0.00     0.280 C 
BRANCH  17  18
HETATM   18  O   UNL     1       7.621  30.877  57.868  1.00  0.00    -0.342 OA
BRANCH  18  19
HETATM   19  C   UNL     1       8.028  31.268  59.120  1.00  0.00     0.075 A 
HETATM   20  C   UNL     1       7.144  31.430  60.196  1.00  0.00     0.044 A 
HETATM   21  C   UNL     1       7.616  31.829  61.454  1.00  0.00    -0.059 A 
HETATM   22  C   UNL     1       6.678  31.961  62.617  1.00  0.00     0.048 C 
HETATM   23  C   UNL     1       8.983  32.060  61.626  1.00  0.00     0.007 A 
HETATM   24  C   UNL     1       9.863  31.925  60.550  1.00  0.00     0.010 A 
HETATM   25  C   UNL     1       9.394  31.542  59.285  1.00  0.00    -0.029 A 
HETATM   26  C   UNL     1      10.360  31.380  58.147  1.00  0.00     0.051 C 
ENDBRANCH  18  19
ENDBRANCH  17  18
ENDBRANCH   1  17
TORSDOF 5
ENDMDL
MODEL 7
REMARK VINA RESULT:      -8.9      5.316      8.710
REMARK  5 active torsions:
REMARK  status: ('A' for Active; 'I' for Inactive)
REMARK    1  A    between atoms: C_4  and  O_5 
REMARK    2  A    between atoms: O_5  and  C_6 
REMARK    3  A    between atoms: C_6  and  C_7 
REMARK       I    between atoms: C_7  and  N_8 
REMARK    4  A    between atoms: N_8  and  N_9 
REMARK    5  A    between atoms: C_10  and  C_11 
ROOT
HETATM    1  C   UNL     1       5.993  26.603  54.656  1.00  0.00     0.261 C 
HETATM    2  N   UNL     1       5.442  26.056  53.503  1.00  0.00    -0.246 N 
HETATM    3  O   UNL     1       6.010  27.793  54.966  1.00  0.00    -0.269 OA
HETATM    4  H   UNL     1       5.374  25.039  53.466  1.00  0.00     0.192 HD
ENDROOT
BRANCH   2   5
HETATM    5  N   UNL     1       4.738  26.697  52.514  1.00  0.00    -0.184 NA
HETATM    6  C   UNL     1       5.208  26.738  51.308  1.00  0.00     0.152 C 
BRANCH   6   7
HETATM    7  C   UNL     1       4.474  27.449  50.279  1.00  0.00     0.011 A 
HETATM    8  C   UNL     1       3.807  26.870  49.151  1.00  0.00     0.004 A 
HETATM    9  C   UNL     1       3.237  27.913  48.419  1.00  0.00     0.043 A 
HETATM   10  C   UNL     1       3.645  25.551  48.675  1.00  0.00     0.014 A 
HETATM   11  C   UNL     1       2.513  27.703  47.239  1.00  0.00     0.030 A 
HETATM   12  N   UNL     1       3.541  29.081  49.078  1.00  0.00    -0.364 N 
HETATM   13  C   UNL     1       2.371  26.386  46.790  1.00  0.00     0.002 A 
HETATM   14  C   UNL     1       2.928  25.324  47.495  1.00  0.00     0.001 A 
HETATM   15  H   UNL     1       3.256  30.002  48.773  1.00  0.00     0.165 HD
HETATM   16  C   UNL     1       4.291  28.816  50.192  1.00  0.00     0.102 A 
ENDBRANCH   6   7
ENDBRANCH   2   5
BRANCH   1  17
HETATM   17  C   UNL     1       6.694  25.563  55.524  1.00  0.00     0.280 C 
BRANCH  17  18
HETATM   18  O   UNL     1       7.899  25.109  54.911  1.00  0.00    -0.342 OA
BRANCH  18  19
HETATM   19  C   UNL     1       7.908  23.769  54.608  1.00  0.00     0.075 A 
HETATM   20  C   UNL     1       7.872  22.764  55.584  1.00  0.00     0.044 A 
HETATM   21  C   UNL     1       7.881  21.411  55.217  1.00  0.00    -0.059 A 
HETATM   22  C   UNL     1       7.798  20.334  56.258  1.00  0.00     0.048 C 
HETATM   23  C   UNL     1       7.923  21.075  53.862  1.00  0.00     0.007 A 
HETATM   24  C   UNL     1       7.985  22.074  52.887  1.00  0.00     0.010 A 
HETATM   25  C   UNL     1       7.993  23.428  53.250  1.00  0.00    -0.029 A 
HETATM   26  C   UNL     1       8.038  24.486  52.186  1.00  0.00     0.051 C 
ENDBRANCH  18  19
ENDBRANCH  17  18
ENDBRANCH   1  17
TORSDOF 5
ENDMDL
MODEL 8
REMARK VINA RESULT:      -8.9      6.180     10.058
REMARK  5 active torsions:
REMARK  status: ('A' for Active; 'I' for Inactive)
REMARK    1  A    between atoms: C_4  and  O_5 
REMARK    2  A    between atoms: O_5  and  C_6 
REMARK    3  A    between atoms: C_6  and  C_7 
REMARK       I    between atoms: C_7  and  N_8 
REMARK    4  A    between atoms: N_8  and  N_9 
REMARK    5  A    between atoms: C_10  and  C_11 
ROOT
HETATM    1  C   UNL     1       5.345  27.429  51.248  1.00  0.00     0.261 C 
HETATM    2  N   UNL     1       5.056  26.098  51.521  1.00  0.00    -0.246 N 
HETATM    3  O   UNL     1       5.896  28.228  52.002  1.00  0.00    -0.269 OA
HETATM    4  H   UNL     1       4.734  25.530  50.738  1.00  0.00     0.192 HD
ENDROOT
BRANCH   2   5
HETATM    5  N   UNL     1       5.387  25.370  52.638  1.00  0.00    -0.184 NA
HETATM    6  C   UNL     1       6.563  24.841  52.740  1.00  0.00     0.152 C 
BRANCH   6   7
HETATM    7  C   UNL     1       6.889  24.043  53.908  1.00  0.00     0.011 A 
HETATM    8  C   UNL     1       7.454  22.727  53.912  1.00  0.00     0.004 A 
HETATM    9  C   UNL     1       7.598  22.336  55.244  1.00  0.00     0.043 A 
HETATM   10  C   UNL     1       7.845  21.821  52.901  1.00  0.00     0.014 A 
HETATM   11  C   UNL     1       8.115  21.089  55.616  1.00  0.00     0.030 A 
HETATM   12  N   UNL     1       7.144  23.376  56.021  1.00  0.00    -0.364 N 
HETATM   13  C   UNL     1       8.492  20.211  54.594  1.00  0.00     0.002 A 
HETATM   14  C   UNL     1       8.360  20.569  53.256  1.00  0.00     0.001 A 
HETATM   15  H   UNL     1       7.129  23.372  57.032  1.00  0.00     0.165 HD
HETATM   16  C   UNL     1       6.707  24.404  55.229  1.00  0.00     0.102 A 
ENDBRANCH   6   7
ENDBRANCH   2   5
BRANCH   1  17
HETATM   17  C   UNL     1       4.817  27.880  49.889  1.00  0.00     0.280 C 
BRANCH  17  18
HETATM   18  O   UNL     1       4.062  26.846  49.262  1.00  0.00    -0.342 OA
BRANCH  18  19
HETATM   19  C   UNL     1       2.979  27.293  48.545  1.00  0.00     0.075 A 
HETATM   20  C   UNL     1       2.423  28.569  48.713  1.00  0.00     0.044 A 
HETATM   21  C   UNL     1       1.320  28.974  47.951  1.00  0.00    -0.059 A 
HETATM   22  C   UNL     1       0.751  30.354  48.098  1.00  0.00     0.048 C 
HETATM   23  C   UNL     1       0.779  28.089  47.014  1.00  0.00     0.007 A 
HETATM   24  C   UNL     1       1.314  26.808  46.861  1.00  0.00     0.010 A 
HETATM   25  C   UNL     1       2.408  26.393  47.634  1.00  0.00    -0.029 A 
HETATM   26  C   UNL     1       2.982  25.019  47.438  1.00  0.00     0.051 C 
ENDBRANCH  18  19
ENDBRANCH  17  18
ENDBRANCH   1  17
TORSDOF 5
ENDMDL
MODEL 9
REMARK VINA RESULT:      -8.8      6.022      9.328
REMARK  5 active torsions:
REMARK  status: ('A' for Active; 'I' for Inactive)
REMARK    1  A    between atoms: C_4  and  O_5 
REMARK    2  A    between atoms: O_5  and  C_6 
REMARK    3  A    between atoms: C_6  and  C_7 
REMARK       I    between atoms: C_7  and  N_8 
REMARK    4  A    between atoms: N_8  and  N_9 
REMARK    5  A    between atoms: C_10  and  C_11 
ROOT
HETATM    1  C   UNL     1       5.983  27.465  52.396  1.00  0.00     0.261 C 
HETATM    2  N   UNL     1       5.920  26.077  52.393  1.00  0.00    -0.246 N 
HETATM    3  O   UNL     1       6.713  28.163  53.097  1.00  0.00    -0.269 OA
HETATM    4  H   UNL     1       5.374  25.646  51.647  1.00  0.00     0.192 HD
ENDROOT
BRANCH   2   5
HETATM    5  N   UNL     1       6.698  25.192  53.098  1.00  0.00    -0.184 NA
HETATM    6  C   UNL     1       6.219  24.600  54.144  1.00  0.00     0.152 C 
BRANCH   6   7
HETATM    7  C   UNL     1       7.061  23.694  54.902  1.00  0.00     0.011 A 
HETATM    8  C   UNL     1       7.644  22.474  54.429  1.00  0.00     0.004 A 
HETATM    9  C   UNL     1       8.372  21.921  55.484  1.00  0.00     0.043 A 
HETATM   10  C   UNL     1       7.609  21.778  53.202  1.00  0.00     0.014 A 
HETATM   11  C   UNL     1       9.068  20.711  55.372  1.00  0.00     0.030 A 
HETATM   12  N   UNL     1       8.242  22.774  56.555  1.00  0.00    -0.364 N 
HETATM   13  C   UNL     1       9.014  20.042  54.145  1.00  0.00     0.002 A 
HETATM   14  C   UNL     1       8.296  20.565  53.074  1.00  0.00     0.001 A 
HETATM   15  H   UNL     1       8.666  22.625  57.461  1.00  0.00     0.165 HD
HETATM   16  C   UNL     1       7.450  23.838  56.220  1.00  0.00     0.102 A 
ENDBRANCH   6   7
ENDBRANCH   2   5
BRANCH   1  17
HETATM   17  C   UNL     1       4.955  28.104  51.467  1.00  0.00     0.280 C 
BRANCH  17  18
HETATM   18  O   UNL     1       5.457  28.206  50.137  1.00  0.00    -0.342 OA
BRANCH  18  19
HETATM   19  C   UNL     1       4.628  27.678  49.178  1.00  0.00     0.075 A 
HETATM   20  C   UNL     1       4.266  26.325  49.140  1.00  0.00     0.044 A 
HETATM   21  C   UNL     1       3.413  25.841  48.139  1.00  0.00    -0.059 A 
HETATM   22  C   UNL     1       2.989  24.402  48.123  1.00  0.00     0.048 C 
HETATM   23  C   UNL     1       2.923  26.727  47.176  1.00  0.00     0.007 A 
HETATM   24  C   UNL     1       3.303  28.071  47.195  1.00  0.00     0.010 A 
HETATM   25  C   UNL     1       4.168  28.556  48.185  1.00  0.00    -0.029 A 
HETATM   26  C   UNL     1       4.546  30.010  48.200  1.00  0.00     0.051 C 
ENDBRANCH  18  19
ENDBRANCH  17  18
ENDBRANCH   1  17
TORSDOF 5
ENDMDL
MODEL 10
REMARK VINA RESULT:      -8.7      1.624      2.406
REMARK  5 active torsions:
REMARK  status: ('A' for Active; 'I' for Inactive)
REMARK    1  A    between atoms: C_4  and  O_5 
REMARK    2  A    between atoms: O_5  and  C_6 
REMARK    3  A    between atoms: C_6  and  C_7 
REMARK       I    between atoms: C_7  and  N_8 
REMARK    4  A    between atoms: N_8  and  N_9 
REMARK    5  A    between atoms: C_10  and  C_11 
ROOT
HETATM    1  C   UNL     1       6.104  26.587  54.227  1.00  0.00     0.261 C 
HETATM    2  N   UNL     1       6.812  27.162  55.275  1.00  0.00    -0.246 N 
HETATM    3  O   UNL     1       4.974  26.892  53.852  1.00  0.00    -0.269 OA
HETATM    4  H   UNL     1       7.793  26.900  55.362  1.00  0.00     0.192 HD
ENDROOT
BRANCH   2   5
HETATM    5  N   UNL     1       6.448  28.229  56.058  1.00  0.00    -0.184 NA
HETATM    6  C   UNL     1       7.295  28.737  56.894  1.00  0.00     0.152 C 
BRANCH   6   7
HETATM    7  C   UNL     1       6.888  29.841  57.743  1.00  0.00     0.011 A 
HETATM    8  C   UNL     1       7.731  30.603  58.616  1.00  0.00     0.004 A 
HETATM    9  C   UNL     1       6.931  31.559  59.243  1.00  0.00     0.043 A 
HETATM   10  C   UNL     1       9.104  30.559  58.942  1.00  0.00     0.014 A 
HETATM   11  C   UNL     1       7.434  32.474  60.176  1.00  0.00     0.030 A 
HETATM   12  N   UNL     1       5.652  31.389  58.767  1.00  0.00    -0.364 N 
HETATM   13  C   UNL     1       8.797  32.405  60.482  1.00  0.00     0.002 A 
HETATM   14  C   UNL     1       9.622  31.463  59.876  1.00  0.00     0.001 A 
HETATM   15  H   UNL     1       4.857  31.947  59.049  1.00  0.00     0.165 HD
HETATM   16  C   UNL     1       5.612  30.355  57.872  1.00  0.00     0.102 A 
ENDBRANCH   6   7
ENDBRANCH   2   5
BRANCH   1  17
HETATM   17  C   UNL     1       6.846  25.417  53.587  1.00  0.00     0.280 C 
BRANCH  17  18
HETATM   18  O   UNL     1       8.019  25.085  54.326  1.00  0.00    -0.342 OA
BRANCH  18  19
HETATM   19  C   UNL     1       8.179  23.741  54.559  1.00  0.00     0.075 A 
HETATM   20  C   UNL     1       8.109  22.775  53.546  1.00  0.00     0.044 A 
HETATM   21  C   UNL     1       8.283  21.416  53.841  1.00  0.00    -0.059 A 
HETATM   22  C   UNL     1       8.253  20.386  52.752  1.00  0.00     0.048 C 
HETATM   23  C   UNL     1       8.533  21.034  55.161  1.00  0.00     0.007 A 
HETATM   24  C   UNL     1       8.577  21.991  56.178  1.00  0.00     0.010 A 
HETATM   25  C   UNL     1       8.387  23.350  55.890  1.00  0.00    -0.029 A 
HETATM   26  C   UNL     1       8.461  24.364  56.995  1.00  0.00     0.051 C 
ENDBRANCH  18  19
ENDBRANCH  17  18
ENDBRANCH   1  17
TORSDOF 5
ENDMDL
