MODEL 1
REMARK VINA RESULT:     -10.8      0.000      0.000
REMARK  6 active torsions:
REMARK  status: ('A' for Active; 'I' for Inactive)
REMARK    1  A    between atoms: C_6  and  N_7 
REMARK       I    between atoms: N_7  and  C_8 
REMARK    2  A    between atoms: C_8  and  C_9 
REMARK    3  A    between atoms: C_9  and  S_10 
REMARK    4  A    between atoms: S_10  and  C_11 
REMARK    5  A    between atoms: N_16  and  C_18 
REMARK    6  A    between atoms: C_18  and  C_19 
ROOT
HETATM    1  C   UNL     1       5.250  27.198  54.758  1.00  0.00     0.169 A 
HETATM    2  N   UNL     1       5.411  28.184  53.939  1.00  0.00    -0.228 NA
HETATM    3  C   UNL     1       5.301  27.901  52.600  1.00  0.00     0.052 A 
HETATM    4  C   UNL     1       5.061  26.672  52.116  1.00  0.00     0.060 A 
HETATM    5  C   UNL     1       4.853  26.353  50.680  1.00  0.00     0.281 C 
HETATM    6  N   UNL     1       4.588  27.597  49.851  1.00  0.00    -0.063 N 
HETATM    7  H   UNL     1       3.658  27.936  50.128  1.00  0.00     0.280 HD
HETATM    8  C   UNL     1       5.579  28.690  50.196  1.00  0.00     0.241 C 
HETATM    9  C   UNL     1       5.428  29.083  51.670  1.00  0.00     0.088 C 
HETATM   10  C   UNL     1       4.942  25.559  53.073  1.00  0.00     0.257 A 
HETATM   11  O   UNL     1       4.756  24.417  52.673  1.00  0.00    -0.267 OA
HETATM   12  N   UNL     1       5.042  25.910  54.381  1.00  0.00    -0.302 N 
HETATM   13  H   UNL     1       4.927  25.202  55.091  1.00  0.00     0.171 HD
ENDROOT
BRANCH   1  14
HETATM   14  S   UNL     1       5.281  27.389  56.478  1.00  0.00    -0.083 SA
BRANCH  14  15
HETATM   15  C   UNL     1       5.978  25.774  56.954  1.00  0.00     0.185 C 
BRANCH  15  16
HETATM   16  C   UNL     1       7.452  25.831  57.318  1.00  0.00     0.231 C 
HETATM   17  N   UNL     1       8.345  24.945  56.780  1.00  0.00    -0.327 N 
HETATM   18  H   UNL     1       9.287  25.179  57.074  1.00  0.00     0.169 HD
HETATM   19  O   UNL     1       7.921  26.692  58.074  1.00  0.00    -0.272 OA
BRANCH  17  20
HETATM   20  C   UNL     1       8.238  23.820  55.942  1.00  0.00     0.035 A 
HETATM   21  C   UNL     1       8.266  22.488  56.353  1.00  0.00     0.037 A 
HETATM   22  C   UNL     1       8.155  21.427  55.428  1.00  0.00    -0.054 A 
HETATM   23  C   UNL     1       8.043  21.711  54.054  1.00  0.00    -0.056 A 
HETATM   24  C   UNL     1       8.246  20.013  55.938  1.00  0.00     0.049 C 
HETATM   25  C   UNL     1       7.951  20.619  53.024  1.00  0.00     0.049 C 
HETATM   26  C   UNL     1       8.024  23.047  53.641  1.00  0.00     0.009 A 
HETATM   27  C   UNL     1       8.127  24.084  54.572  1.00  0.00     0.030 A 
ENDBRANCH  17  20
ENDBRANCH  15  16
ENDBRANCH  14  15
ENDBRANCH   1  14
BRANCH   6  28
HETATM   28  C   UNL     1       4.505  27.278  48.377  1.00  0.00     0.273 C 
BRANCH  28  29
HETATM   29  C   UNL     1       3.312  27.905  47.703  1.00  0.00    -0.030 A 
HETATM   30  C   UNL     1       2.120  27.175  47.538  1.00  0.00     0.048 A 
HETATM   31  C   UNL     1       1.045  27.810  46.951  1.00  0.00     0.105 A 
HETATM   32  C   UNL     1       1.117  29.107  46.512  1.00  0.00     0.105 A 
HETATM   33  O   UNL     1      -0.180  27.258  46.746  1.00  0.00    -0.323 OA
HETATM   34  O   UNL     1      -0.052  29.537  45.970  1.00  0.00    -0.323 OA
HETATM   35  C   UNL     1       2.272  29.847  46.631  1.00  0.00     0.040 A 
HETATM   36  C   UNL     1      -0.873  28.359  46.111  1.00  0.00     0.352 A 
HETATM   37  C   UNL     1       3.380  29.238  47.234  1.00  0.00     0.012 A 
ENDBRANCH  28  29
ENDBRANCH   6  28
TORSDOF 6
ENDMDL
MODEL 2
REMARK VINA RESULT:     -10.8      5.570     10.159
REMARK  6 active torsions:
REMARK  status: ('A' for Active; 'I' for Inactive)
REMARK    1  A    between atoms: C_6  and  N_7 
REMARK       I    between atoms: N_7  and  C_8 
REMARK    2  A    between atoms: C_8  and  C_9 
REMARK    3  A    between atoms: C_9  and  S_10 
REMARK    4  A    between atoms: S_10  and  C_11 
REMARK    5  A    between atoms: N_16  and  C_18 
REMARK    6  A    between atoms: C_18  and  C_19 
ROOT
HETATM    1  C   UNL     1       6.236  30.167  57.238  1.00  0.00     0.169 A 
HETATM    2  N   UNL     1       5.396  29.364  56.674  1.00  0.00    -0.228 NA
HETATM    3  C   UNL     1       5.901  28.494  55.740  1.00  0.00     0.052 A 
HETATM    4  C   UNL     1       7.193  28.457  55.380  1.00  0.00     0.060 A 
HETATM    5  C   UNL     1       7.781  27.471  54.437  1.00  0.00     0.281 C 
HETATM    6  N   UNL     1       6.856  26.293  54.190  1.00  0.00    -0.063 N 
HETATM    7  H   UNL     1       6.832  25.758  55.067  1.00  0.00     0.280 HD
HETATM    8  C   UNL     1       5.443  26.771  53.923  1.00  0.00     0.241 C 
HETATM    9  C   UNL     1       4.909  27.523  55.148  1.00  0.00     0.088 C 
HETATM   10  C   UNL     1       8.116  29.426  55.997  1.00  0.00     0.257 A 
HETATM   11  O   UNL     1       9.295  29.449  55.672  1.00  0.00    -0.267 OA
HETATM   12  N   UNL     1       7.556  30.244  56.924  1.00  0.00    -0.302 N 
HETATM   13  H   UNL     1       8.140  30.903  57.417  1.00  0.00     0.171 HD
ENDROOT
BRANCH   1  14
HETATM   14  S   UNL     1       5.786  31.276  58.488  1.00  0.00    -0.083 SA
BRANCH  14  15
HETATM   15  C   UNL     1       7.438  31.743  59.096  1.00  0.00     0.185 C 
BRANCH  15  16
HETATM   16  C   UNL     1       8.069  30.700  60.004  1.00  0.00     0.231 C 
HETATM   17  N   UNL     1       7.908  30.759  61.360  1.00  0.00    -0.327 N 
HETATM   18  H   UNL     1       8.329  29.946  61.797  1.00  0.00     0.169 HD
HETATM   19  O   UNL     1       8.716  29.738  59.569  1.00  0.00    -0.272 OA
BRANCH  17  20
HETATM   20  C   UNL     1       7.307  31.673  62.246  1.00  0.00     0.035 A 
HETATM   21  C   UNL     1       5.980  32.099  62.206  1.00  0.00     0.037 A 
HETATM   22  C   UNL     1       5.475  33.027  63.143  1.00  0.00    -0.054 A 
HETATM   23  C   UNL     1       6.330  33.561  64.125  1.00  0.00    -0.056 A 
HETATM   24  C   UNL     1       4.045  33.483  63.007  1.00  0.00     0.049 C 
HETATM   25  C   UNL     1       5.850  34.573  65.129  1.00  0.00     0.049 C 
HETATM   26  C   UNL     1       7.663  33.139  64.159  1.00  0.00     0.009 A 
HETATM   27  C   UNL     1       8.143  32.214  63.229  1.00  0.00     0.030 A 
ENDBRANCH  17  20
ENDBRANCH  15  16
ENDBRANCH  14  15
ENDBRANCH   1  14
BRANCH   6  28
HETATM   28  C   UNL     1       7.406  25.363  53.135  1.00  0.00     0.273 C 
BRANCH  28  29
HETATM   29  C   UNL     1       7.688  23.978  53.657  1.00  0.00    -0.030 A 
HETATM   30  C   UNL     1       7.918  23.765  55.029  1.00  0.00     0.048 A 
HETATM   31  C   UNL     1       8.129  22.472  55.460  1.00  0.00     0.105 A 
HETATM   32  C   UNL     1       8.143  21.408  54.592  1.00  0.00     0.105 A 
HETATM   33  O   UNL     1       8.337  22.094  56.748  1.00  0.00    -0.323 OA
HETATM   34  O   UNL     1       8.365  20.227  55.224  1.00  0.00    -0.323 OA
HETATM   35  C   UNL     1       7.948  21.578  53.240  1.00  0.00     0.040 A 
HETATM   36  C   UNL     1       8.497  20.664  56.592  1.00  0.00     0.352 A 
HETATM   37  C   UNL     1       7.717  22.876  52.769  1.00  0.00     0.012 A 
ENDBRANCH  28  29
ENDBRANCH   6  28
TORSDOF 6
ENDMDL
MODEL 3
REMARK VINA RESULT:     -10.7      5.438     10.259
REMARK  6 active torsions:
REMARK  status: ('A' for Active; 'I' for Inactive)
REMARK    1  A    between atoms: C_6  and  N_7 
REMARK       I    between atoms: N_7  and  C_8 
REMARK    2  A    between atoms: C_8  and  C_9 
REMARK    3  A    between atoms: C_9  and  S_10 
REMARK    4  A    between atoms: S_10  and  C_11 
REMARK    5  A    between atoms: N_16  and  C_18 
REMARK    6  A    between atoms: C_18  and  C_19 
ROOT
HETATM    1  C   UNL     1       5.753  27.099  56.700  1.00  0.00     0.169 A 
HETATM    2  N   UNL     1       6.964  27.364  57.066  1.00  0.00    -0.228 NA
HETATM    3  C   UNL     1       7.201  28.624  57.557  1.00  0.00     0.052 A 
HETATM    4  C   UNL     1       6.259  29.575  57.651  1.00  0.00     0.060 A 
HETATM    5  C   UNL     1       6.467  30.915  58.257  1.00  0.00     0.281 C 
HETATM    6  N   UNL     1       7.744  30.982  59.075  1.00  0.00    -0.063 N 
HETATM    7  H   UNL     1       7.585  30.398  59.905  1.00  0.00     0.280 HD
HETATM    8  C   UNL     1       8.899  30.363  58.312  1.00  0.00     0.241 C 
HETATM    9  C   UNL     1       8.607  28.883  58.039  1.00  0.00     0.088 C 
HETATM   10  C   UNL     1       4.902  29.261  57.170  1.00  0.00     0.257 A 
HETATM   11  O   UNL     1       4.022  30.110  57.207  1.00  0.00    -0.267 OA
HETATM   12  N   UNL     1       4.732  27.994  56.714  1.00  0.00    -0.302 N 
HETATM   13  H   UNL     1       3.816  27.699  56.410  1.00  0.00     0.171 HD
ENDROOT
BRANCH   1  14
HETATM   14  S   UNL     1       5.262  25.541  56.128  1.00  0.00    -0.083 SA
BRANCH  14  15
HETATM   15  C   UNL     1       5.390  25.819  54.332  1.00  0.00     0.185 C 
BRANCH  15  16
HETATM   16  C   UNL     1       6.761  26.299  53.886  1.00  0.00     0.231 C 
HETATM   17  N   UNL     1       7.827  25.445  53.847  1.00  0.00    -0.327 N 
HETATM   18  H   UNL     1       8.636  25.915  53.455  1.00  0.00     0.169 HD
HETATM   19  O   UNL     1       6.971  27.458  53.504  1.00  0.00    -0.272 OA
BRANCH  17  20
HETATM   20  C   UNL     1       8.035  24.104  54.222  1.00  0.00     0.035 A 
HETATM   21  C   UNL     1       7.908  22.993  53.390  1.00  0.00     0.037 A 
HETATM   22  C   UNL     1       8.135  21.683  53.868  1.00  0.00    -0.054 A 
HETATM   23  C   UNL     1       8.469  21.484  55.219  1.00  0.00    -0.056 A 
HETATM   24  C   UNL     1       7.928  20.526  52.925  1.00  0.00     0.049 C 
HETATM   25  C   UNL     1       8.694  20.109  55.787  1.00  0.00     0.049 C 
HETATM   26  C   UNL     1       8.588  22.599  56.056  1.00  0.00     0.009 A 
HETATM   27  C   UNL     1       8.368  23.888  55.564  1.00  0.00     0.030 A 
ENDBRANCH  17  20
ENDBRANCH  15  16
ENDBRANCH  14  15
ENDBRANCH   1  14
BRANCH   6  28
HETATM   28  C   UNL     1       8.012  32.379  59.579  1.00  0.00     0.273 C 
BRANCH  28  29
HETATM   29  C   UNL     1       7.588  32.583  61.011  1.00  0.00    -0.030 A 
HETATM   30  C   UNL     1       6.318  33.109  61.311  1.00  0.00     0.048 A 
HETATM   31  C   UNL     1       5.963  33.237  62.637  1.00  0.00     0.105 A 
HETATM   32  C   UNL     1       6.815  32.889  63.655  1.00  0.00     0.105 A 
HETATM   33  O   UNL     1       4.769  33.698  63.093  1.00  0.00    -0.323 OA
HETATM   34  O   UNL     1       6.269  33.091  64.881  1.00  0.00    -0.323 OA
HETATM   35  C   UNL     1       8.076  32.394  63.404  1.00  0.00     0.040 A 
HETATM   36  C   UNL     1       4.972  33.613  64.524  1.00  0.00     0.352 A 
HETATM   37  C   UNL     1       8.464  32.240  62.068  1.00  0.00     0.012 A 
ENDBRANCH  28  29
ENDBRANCH   6  28
TORSDOF 6
ENDMDL
MODEL 4
REMARK VINA RESULT:     -10.6      6.995     11.644
REMARK  6 active torsions:
REMARK  status: ('A' for Active; 'I' for Inactive)
REMARK    1  A    between atoms: C_6  and  N_7 
REMARK       I    between atoms: N_7  and  C_8 
REMARK    2  A    between atoms: C_8  and  C_9 
REMARK    3  A    between atoms: C_9  and  S_10 
REMARK    4  A    between atoms: S_10  and  C_11 
REMARK    5  A    between atoms: N_16  and  C_18 
REMARK    6  A    between atoms: C_18  and  C_19 
ROOT
HETATM    1  C   UNL     1       7.672  28.831  57.856  1.00  0.00     0.169 A 
HETATM    2  N   UNL     1       8.347  29.274  58.865  1.00  0.00    -0.228 NA
HETATM    3  C   UNL     1       7.950  30.475  59.398  1.00  0.00     0.052 A 
HETATM    4  C   UNL     1       6.930  31.201  58.915  1.00  0.00     0.060 A 
HETATM    5  C   UNL     1       6.424  32.459  59.524  1.00  0.00     0.281 C 
HETATM    6  N   UNL     1       6.941  32.659  60.937  1.00  0.00    -0.063 N 
HETATM    7  H   UNL     1       6.480  31.946  61.516  1.00  0.00     0.280 HD
HETATM    8  C   UNL     1       8.431  32.390  61.004  1.00  0.00     0.241 C 
HETATM    9  C   UNL     1       8.714  30.934  60.616  1.00  0.00     0.088 C 
HETATM   10  C   UNL     1       6.218  30.699  57.727  1.00  0.00     0.257 A 
HETATM   11  O   UNL     1       5.304  31.347  57.235  1.00  0.00    -0.267 OA
HETATM   12  N   UNL     1       6.649  29.499  57.262  1.00  0.00    -0.302 N 
HETATM   13  H   UNL     1       6.176  29.077  56.477  1.00  0.00     0.171 HD
ENDROOT
BRANCH   1  14
HETATM   14  S   UNL     1       7.988  27.302  57.109  1.00  0.00    -0.083 SA
BRANCH  14  15
HETATM   15  C   UNL     1       7.145  27.559  55.515  1.00  0.00     0.185 C 
BRANCH  15  16
HETATM   16  C   UNL     1       5.728  27.010  55.481  1.00  0.00     0.231 C 
HETATM   17  N   UNL     1       5.491  25.689  55.219  1.00  0.00    -0.327 N 
HETATM   18  H   UNL     1       4.501  25.487  55.313  1.00  0.00     0.169 HD
HETATM   19  O   UNL     1       4.735  27.708  55.725  1.00  0.00    -0.272 OA
BRANCH  17  20
HETATM   20  C   UNL     1       6.296  24.592  54.858  1.00  0.00     0.035 A 
HETATM   21  C   UNL     1       6.910  23.703  55.739  1.00  0.00     0.037 A 
HETATM   22  C   UNL     1       7.704  22.633  55.273  1.00  0.00    -0.054 A 
HETATM   23  C   UNL     1       7.911  22.471  53.891  1.00  0.00    -0.056 A 
HETATM   24  C   UNL     1       8.380  21.743  56.284  1.00  0.00     0.049 C 
HETATM   25  C   UNL     1       8.772  21.365  53.342  1.00  0.00     0.049 C 
HETATM   26  C   UNL     1       7.302  23.368  53.008  1.00  0.00     0.009 A 
HETATM   27  C   UNL     1       6.512  24.416  53.487  1.00  0.00     0.030 A 
ENDBRANCH  17  20
ENDBRANCH  15  16
ENDBRANCH  14  15
ENDBRANCH   1  14
BRANCH   6  28
HETATM   28  C   UNL     1       6.527  33.998  61.499  1.00  0.00     0.273 C 
BRANCH  28  29
HETATM   29  C   UNL     1       6.288  33.968  62.986  1.00  0.00    -0.030 A 
HETATM   30  C   UNL     1       5.047  34.364  63.518  1.00  0.00     0.048 A 
HETATM   31  C   UNL     1       4.866  34.277  64.883  1.00  0.00     0.105 A 
HETATM   32  C   UNL     1       5.860  33.842  65.722  1.00  0.00     0.105 A 
HETATM   33  O   UNL     1       3.724  34.592  65.548  1.00  0.00    -0.323 OA
HETATM   34  O   UNL     1       5.473  33.831  67.023  1.00  0.00    -0.323 OA
HETATM   35  C   UNL     1       7.097  33.469  65.244  1.00  0.00     0.040 A 
HETATM   36  C   UNL     1       4.118  34.316  66.913  1.00  0.00     0.352 A 
HETATM   37  C   UNL     1       7.311  33.533  63.862  1.00  0.00     0.012 A 
ENDBRANCH  28  29
ENDBRANCH   6  28
TORSDOF 6
ENDMDL
MODEL 5
REMARK VINA RESULT:     -10.5      6.200     11.380
REMARK  6 active torsions:
REMARK  status: ('A' for Active; 'I' for Inactive)
REMARK    1  A    between atoms: C_6  and  N_7 
REMARK       I    between atoms: N_7  and  C_8 
REMARK    2  A    between atoms: C_8  and  C_9 
REMARK    3  A    between atoms: C_9  and  S_10 
REMARK    4  A    between atoms: S_10  and  C_11 
REMARK    5  A    between atoms: N_16  and  C_18 
REMARK    6  A    between atoms: C_18  and  C_19 
ROOT
HETATM    1  C   UNL     1       5.322  30.680  56.026  1.00  0.00     0.169 A 
HETATM    2  N   UNL     1       6.213  29.916  56.565  1.00  0.00    -0.228 NA
HETATM    3  C   UNL     1       6.804  30.370  57.718  1.00  0.00     0.052 A 
HETATM    4  C   UNL     1       6.519  31.554  58.283  1.00  0.00     0.060 A 
HETATM    5  C   UNL     1       7.079  32.032  59.573  1.00  0.00     0.281 C 
HETATM    6  N   UNL     1       7.730  30.913  60.365  1.00  0.00    -0.063 N 
HETATM    7  H   UNL     1       6.967  30.301  60.680  1.00  0.00     0.280 HD
HETATM    8  C   UNL     1       8.626  30.078  59.471  1.00  0.00     0.241 C 
HETATM    9  C   UNL     1       7.792  29.428  58.361  1.00  0.00     0.088 C 
HETATM   10  C   UNL     1       5.542  32.429  57.612  1.00  0.00     0.257 A 
HETATM   11  O   UNL     1       5.278  33.530  58.075  1.00  0.00    -0.267 OA
HETATM   12  N   UNL     1       4.983  31.912  56.488  1.00  0.00    -0.302 N 
HETATM   13  H   UNL     1       4.274  32.440  56.003  1.00  0.00     0.171 HD
ENDROOT
BRANCH   1  14
HETATM   14  S   UNL     1       4.426  30.231  54.614  1.00  0.00    -0.083 SA
BRANCH  14  15
HETATM   15  C   UNL     1       5.072  28.546  54.363  1.00  0.00     0.185 C 
BRANCH  15  16
HETATM   16  C   UNL     1       4.169  27.669  53.512  1.00  0.00     0.231 C 
HETATM   17  N   UNL     1       4.372  26.320  53.431  1.00  0.00    -0.327 N 
HETATM   18  H   UNL     1       3.634  25.889  52.884  1.00  0.00     0.169 HD
HETATM   19  O   UNL     1       3.196  28.117  52.891  1.00  0.00    -0.272 OA
BRANCH  17  20
HETATM   20  C   UNL     1       5.350  25.436  53.922  1.00  0.00     0.035 A 
HETATM   21  C   UNL     1       6.135  24.575  53.155  1.00  0.00     0.037 A 
HETATM   22  C   UNL     1       7.090  23.720  53.749  1.00  0.00    -0.054 A 
HETATM   23  C   UNL     1       7.239  23.709  55.147  1.00  0.00    -0.056 A 
HETATM   24  C   UNL     1       7.864  22.779  52.863  1.00  0.00     0.049 C 
HETATM   25  C   UNL     1       8.221  22.799  55.833  1.00  0.00     0.049 C 
HETATM   26  C   UNL     1       6.446  24.567  55.917  1.00  0.00     0.009 A 
HETATM   27  C   UNL     1       5.512  25.411  55.312  1.00  0.00     0.030 A 
ENDBRANCH  17  20
ENDBRANCH  15  16
ENDBRANCH  14  15
ENDBRANCH   1  14
BRANCH   6  28
HETATM   28  C   UNL     1       8.407  31.430  61.611  1.00  0.00     0.273 C 
BRANCH  28  29
HETATM   29  C   UNL     1       7.437  31.970  62.630  1.00  0.00    -0.030 A 
HETATM   30  C   UNL     1       7.899  32.718  63.729  1.00  0.00     0.048 A 
HETATM   31  C   UNL     1       6.966  33.225  64.609  1.00  0.00     0.105 A 
HETATM   32  C   UNL     1       5.622  33.002  64.453  1.00  0.00     0.105 A 
HETATM   33  O   UNL     1       7.244  33.987  65.700  1.00  0.00    -0.323 OA
HETATM   34  O   UNL     1       4.882  33.591  65.427  1.00  0.00    -0.323 OA
HETATM   35  C   UNL     1       5.131  32.254  63.406  1.00  0.00     0.040 A 
HETATM   36  C   UNL     1       5.913  34.210  66.224  1.00  0.00     0.352 A 
HETATM   37  C   UNL     1       6.049  31.735  62.486  1.00  0.00     0.012 A 
ENDBRANCH  28  29
ENDBRANCH   6  28
TORSDOF 6
ENDMDL
MODEL 6
REMARK VINA RESULT:     -10.3      6.567     10.917
REMARK  6 active torsions:
REMARK  status: ('A' for Active; 'I' for Inactive)
REMARK    1  A    between atoms: C_6  and  N_7 
REMARK       I    between atoms: N_7  and  C_8 
REMARK    2  A    between atoms: C_8  and  C_9 
REMARK    3  A    between atoms: C_9  and  S_10 
REMARK    4  A    between atoms: S_10  and  C_11 
REMARK    5  A    between atoms: N_16  and  C_18 
REMARK    6  A    between atoms: C_18  and  C_19 
ROOT
HETATM    1  C   UNL     1       7.737  30.164  58.521  1.00  0.00     0.169 A 
HETATM    2  N   UNL     1       8.368  29.067  58.258  1.00  0.00    -0.228 NA
HETATM    3  C   UNL     1       7.678  28.106  57.561  1.00  0.00     0.052 A 
HETATM    4  C   UNL     1       6.402  28.244  57.169  1.00  0.00     0.060 A 
HETATM    5  C   UNL     1       5.659  27.259  56.341  1.00  0.00     0.281 C 
HETATM    6  N   UNL     1       6.585  26.249  55.686  1.00  0.00    -0.063 N 
HETATM    7  H   UNL     1       7.116  26.765  54.974  1.00  0.00     0.280 HD
HETATM    8  C   UNL     1       7.588  25.717  56.689  1.00  0.00     0.241 C 
HETATM    9  C   UNL     1       8.461  26.864  57.211  1.00  0.00     0.088 C 
HETATM   10  C   UNL     1       5.691  29.482  57.535  1.00  0.00     0.257 A 
HETATM   11  O   UNL     1       4.517  29.634  57.226  1.00  0.00    -0.267 OA
HETATM   12  N   UNL     1       6.435  30.396  58.207  1.00  0.00    -0.302 N 
HETATM   13  H   UNL     1       6.023  31.284  58.451  1.00  0.00     0.171 HD
ENDROOT
BRANCH   1  14
HETATM   14  S   UNL     1       8.476  31.506  59.324  1.00  0.00    -0.083 SA
BRANCH  14  15
HETATM   15  C   UNL     1       7.518  31.503  60.873  1.00  0.00     0.185 C 
BRANCH  15  16
HETATM   16  C   UNL     1       8.369  31.296  62.115  1.00  0.00     0.231 C 
HETATM   17  N   UNL     1       8.142  32.021  63.252  1.00  0.00    -0.327 N 
HETATM   18  H   UNL     1       8.750  31.698  63.998  1.00  0.00     0.169 HD
HETATM   19  O   UNL     1       9.269  30.448  62.174  1.00  0.00    -0.272 OA
BRANCH  17  20
HETATM   20  C   UNL     1       7.281  33.080  63.595  1.00  0.00     0.035 A 
HETATM   21  C   UNL     1       6.651  33.944  62.701  1.00  0.00     0.037 A 
HETATM   22  C   UNL     1       5.806  34.983  63.149  1.00  0.00    -0.054 A 
HETATM   23  C   UNL     1       5.612  35.175  64.529  1.00  0.00    -0.056 A 
HETATM   24  C   UNL     1       5.201  35.911  62.128  1.00  0.00     0.049 C 
HETATM   25  C   UNL     1       4.744  36.283  65.061  1.00  0.00     0.049 C 
HETATM   26  C   UNL     1       6.250  34.313  65.426  1.00  0.00     0.009 A 
HETATM   27  C   UNL     1       7.076  33.286  64.964  1.00  0.00     0.030 A 
ENDBRANCH  17  20
ENDBRANCH  15  16
ENDBRANCH  14  15
ENDBRANCH   1  14
BRANCH   6  28
HETATM   28  C   UNL     1       5.813  25.178  54.953  1.00  0.00     0.273 C 
BRANCH  28  29
HETATM   29  C   UNL     1       6.681  24.038  54.487  1.00  0.00    -0.030 A 
HETATM   30  C   UNL     1       7.020  22.993  55.366  1.00  0.00     0.048 A 
HETATM   31  C   UNL     1       7.782  21.953  54.877  1.00  0.00     0.105 A 
HETATM   32  C   UNL     1       8.228  21.925  53.580  1.00  0.00     0.105 A 
HETATM   33  O   UNL     1       8.170  20.859  55.584  1.00  0.00    -0.323 OA
HETATM   34  O   UNL     1       8.958  20.812  53.306  1.00  0.00    -0.323 OA
HETATM   35  C   UNL     1       7.940  22.940  52.695  1.00  0.00     0.040 A 
HETATM   36  C   UNL     1       8.927  20.140  54.582  1.00  0.00     0.352 A 
HETATM   37  C   UNL     1       7.158  24.006  53.155  1.00  0.00     0.012 A 
ENDBRANCH  28  29
ENDBRANCH   6  28
TORSDOF 6
ENDMDL
MODEL 7
REMARK VINA RESULT:     -10.3      6.255     10.570
REMARK  6 active torsions:
REMARK  status: ('A' for Active; 'I' for Inactive)
REMARK    1  A    between atoms: C_6  and  N_7 
REMARK       I    between atoms: N_7  and  C_8 
REMARK    2  A    between atoms: C_8  and  C_9 
REMARK    3  A    between atoms: C_9  and  S_10 
REMARK    4  A    between atoms: S_10  and  C_11 
REMARK    5  A    between atoms: N_16  and  C_18 
REMARK    6  A    between atoms: C_18  and  C_19 
ROOT
HETATM    1  C   UNL     1       9.104  30.486  57.944  1.00  0.00     0.169 A 
HETATM    2  N   UNL     1       7.970  29.906  58.163  1.00  0.00    -0.228 NA
HETATM    3  C   UNL     1       7.531  29.023  57.208  1.00  0.00     0.052 A 
HETATM    4  C   UNL     1       8.200  28.759  56.075  1.00  0.00     0.060 A 
HETATM    5  C   UNL     1       7.792  27.747  55.067  1.00  0.00     0.281 C 
HETATM    6  N   UNL     1       6.739  26.795  55.606  1.00  0.00    -0.063 N 
HETATM    7  H   UNL     1       7.210  26.213  56.309  1.00  0.00     0.280 HD
HETATM    8  C   UNL     1       5.645  27.560  56.323  1.00  0.00     0.241 C 
HETATM    9  C   UNL     1       6.237  28.312  57.521  1.00  0.00     0.088 C 
HETATM   10  C   UNL     1       9.461  29.480  55.826  1.00  0.00     0.257 A 
HETATM   11  O   UNL     1      10.086  29.294  54.791  1.00  0.00    -0.267 OA
HETATM   12  N   UNL     1       9.846  30.324  56.818  1.00  0.00    -0.302 N 
HETATM   13  H   UNL     1      10.722  30.817  56.732  1.00  0.00     0.171 HD
ENDROOT
BRANCH   1  14
HETATM   14  S   UNL     1       9.841  31.569  59.075  1.00  0.00    -0.083 SA
BRANCH  14  15
HETATM   15  C   UNL     1       8.485  31.724  60.281  1.00  0.00     0.185 C 
BRANCH  15  16
HETATM   16  C   UNL     1       8.718  30.941  61.562  1.00  0.00     0.231 C 
HETATM   17  N   UNL     1       8.108  31.305  62.730  1.00  0.00    -0.327 N 
HETATM   18  H   UNL     1       8.316  30.630  63.458  1.00  0.00     0.169 HD
HETATM   19  O   UNL     1       9.428  29.928  61.606  1.00  0.00    -0.272 OA
BRANCH  17  20
HETATM   20  C   UNL     1       7.285  32.377  63.124  1.00  0.00     0.035 A 
HETATM   21  C   UNL     1       6.126  32.801  62.475  1.00  0.00     0.037 A 
HETATM   22  C   UNL     1       5.371  33.895  62.950  1.00  0.00    -0.054 A 
HETATM   23  C   UNL     1       5.807  34.599  64.088  1.00  0.00    -0.056 A 
HETATM   24  C   UNL     1       4.160  34.329  62.167  1.00  0.00     0.049 C 
HETATM   25  C   UNL     1       5.057  35.789  64.620  1.00  0.00     0.049 C 
HETATM   26  C   UNL     1       6.975  34.179  64.734  1.00  0.00     0.009 A 
HETATM   27  C   UNL     1       7.704  33.089  64.254  1.00  0.00     0.030 A 
ENDBRANCH  17  20
ENDBRANCH  15  16
ENDBRANCH  14  15
ENDBRANCH   1  14
BRANCH   6  28
HETATM   28  C   UNL     1       6.239  25.853  54.537  1.00  0.00     0.273 C 
BRANCH  28  29
HETATM   29  C   UNL     1       6.842  24.476  54.632  1.00  0.00    -0.030 A 
HETATM   30  C   UNL     1       7.039  23.701  53.474  1.00  0.00     0.048 A 
HETATM   31  C   UNL     1       7.634  22.464  53.612  1.00  0.00     0.105 A 
HETATM   32  C   UNL     1       8.011  21.970  54.836  1.00  0.00     0.105 A 
HETATM   33  O   UNL     1       7.919  21.609  52.595  1.00  0.00    -0.323 OA
HETATM   34  O   UNL     1       8.577  20.740  54.746  1.00  0.00    -0.323 OA
HETATM   35  C   UNL     1       7.812  22.686  55.995  1.00  0.00     0.040 A 
HETATM   36  C   UNL     1       8.511  20.507  53.323  1.00  0.00     0.352 A 
HETATM   37  C   UNL     1       7.222  23.951  55.891  1.00  0.00     0.012 A 
ENDBRANCH  28  29
ENDBRANCH   6  28
TORSDOF 6
ENDMDL
MODEL 8
REMARK VINA RESULT:     -10.3      1.331      2.014
REMARK  6 active torsions:
REMARK  status: ('A' for Active; 'I' for Inactive)
REMARK    1  A    between atoms: C_6  and  N_7 
REMARK       I    between atoms: N_7  and  C_8 
REMARK    2  A    between atoms: C_8  and  C_9 
REMARK    3  A    between atoms: C_9  and  S_10 
REMARK    4  A    between atoms: S_10  and  C_11 
REMARK    5  A    between atoms: N_16  and  C_18 
REMARK    6  A    between atoms: C_18  and  C_19 
ROOT
HETATM    1  C   UNL     1       4.952  27.866  54.828  1.00  0.00     0.169 A 
HETATM    2  N   UNL     1       5.150  26.874  54.023  1.00  0.00    -0.228 NA
HETATM    3  C   UNL     1       5.085  27.144  52.679  1.00  0.00     0.052 A 
HETATM    4  C   UNL     1       4.810  28.358  52.176  1.00  0.00     0.060 A 
HETATM    5  C   UNL     1       4.818  28.697  50.730  1.00  0.00     0.281 C 
HETATM    6  N   UNL     1       5.508  27.632  49.896  1.00  0.00    -0.063 N 
HETATM    7  H   UNL     1       6.507  27.685  50.131  1.00  0.00     0.280 HD
HETATM    8  C   UNL     1       5.033  26.250  50.297  1.00  0.00     0.241 C 
HETATM    9  C   UNL     1       5.387  25.982  51.764  1.00  0.00     0.088 C 
HETATM   10  C   UNL     1       4.529  29.455  53.119  1.00  0.00     0.257 A 
HETATM   11  O   UNL     1       4.241  30.569  52.703  1.00  0.00    -0.267 OA
HETATM   12  N   UNL     1       4.628  29.125  54.432  1.00  0.00    -0.302 N 
HETATM   13  H   UNL     1       4.491  29.839  55.131  1.00  0.00     0.171 HD
ENDROOT
BRANCH   1  14
HETATM   14  S   UNL     1       5.069  27.721  56.548  1.00  0.00    -0.083 SA
BRANCH  14  15
HETATM   15  C   UNL     1       5.823  26.067  56.666  1.00  0.00     0.185 C 
BRANCH  15  16
HETATM   16  C   UNL     1       7.268  26.088  57.137  1.00  0.00     0.231 C 
HETATM   17  N   UNL     1       8.166  25.156  56.697  1.00  0.00    -0.327 N 
HETATM   18  H   UNL     1       9.092  25.369  57.052  1.00  0.00     0.169 HD
HETATM   19  O   UNL     1       7.709  26.959  57.899  1.00  0.00    -0.272 OA
BRANCH  17  20
HETATM   20  C   UNL     1       8.082  24.007  55.889  1.00  0.00     0.035 A 
HETATM   21  C   UNL     1       8.063  22.688  56.342  1.00  0.00     0.037 A 
HETATM   22  C   UNL     1       7.981  21.601  55.445  1.00  0.00    -0.054 A 
HETATM   23  C   UNL     1       7.947  21.843  54.059  1.00  0.00    -0.056 A 
HETATM   24  C   UNL     1       8.019  20.202  56.003  1.00  0.00     0.049 C 
HETATM   25  C   UNL     1       7.888  20.720  53.059  1.00  0.00     0.049 C 
HETATM   26  C   UNL     1       7.974  23.165  53.605  1.00  0.00     0.009 A 
HETATM   27  C   UNL     1       8.047  24.229  54.508  1.00  0.00     0.030 A 
ENDBRANCH  17  20
ENDBRANCH  15  16
ENDBRANCH  14  15
ENDBRANCH   1  14
BRANCH   6  28
HETATM   28  C   UNL     1       5.399  27.921  48.419  1.00  0.00     0.273 C 
BRANCH  28  29
HETATM   29  C   UNL     1       4.017  27.679  47.869  1.00  0.00    -0.030 A 
HETATM   30  C   UNL     1       3.112  28.746  47.717  1.00  0.00     0.048 A 
HETATM   31  C   UNL     1       1.875  28.478  47.170  1.00  0.00     0.105 A 
HETATM   32  C   UNL     1       1.503  27.210  46.798  1.00  0.00     0.105 A 
HETATM   33  O   UNL     1       0.902  29.396  46.932  1.00  0.00    -0.323 OA
HETATM   34  O   UNL     1       0.248  27.168  46.281  1.00  0.00    -0.323 OA
HETATM   35  C   UNL     1       2.350  26.135  46.953  1.00  0.00     0.040 A 
HETATM   36  C   UNL     1      -0.137  28.556  46.374  1.00  0.00     0.352 A 
HETATM   37  C   UNL     1       3.619  26.374  47.494  1.00  0.00     0.012 A 
ENDBRANCH  28  29
ENDBRANCH   6  28
TORSDOF 6
ENDMDL
MODEL 9
REMARK VINA RESULT:     -10.0      5.940      9.418
REMARK  6 active torsions:
REMARK  status: ('A' for Active; 'I' for Inactive)
REMARK    1  A    between atoms: C_6  and  N_7 
REMARK       I    between atoms: N_7  and  C_8 
REMARK    2  A    between atoms: C_8  and  C_9 
REMARK    3  A    between atoms: C_9  and  S_10 
REMARK    4  A    between atoms: S_10  and  C_11 
REMARK    5  A    between atoms: N_16  and  C_18 
REMARK    6  A    between atoms: C_18  and  C_19 
ROOT
HETATM    1  C   UNL     1       8.603  29.769  58.436  1.00  0.00     0.169 A 
HETATM    2  N   UNL     1       7.668  28.877  58.444  1.00  0.00    -0.228 NA
HETATM    3  C   UNL     1       7.490  28.156  57.289  1.00  0.00     0.052 A 
HETATM    4  C   UNL     1       8.211  28.348  56.174  1.00  0.00     0.060 A 
HETATM    5  C   UNL     1       8.098  27.526  54.941  1.00  0.00     0.281 C 
HETATM    6  N   UNL     1       7.341  26.232  55.184  1.00  0.00    -0.063 N 
HETATM    7  H   UNL     1       7.950  25.648  55.770  1.00  0.00     0.280 HD
HETATM    8  C   UNL     1       6.077  26.494  55.978  1.00  0.00     0.241 C 
HETATM    9  C   UNL     1       6.437  27.077  57.349  1.00  0.00     0.088 C 
HETATM   10  C   UNL     1       9.229  29.413  56.177  1.00  0.00     0.257 A 
HETATM   11  O   UNL     1       9.885  29.643  55.171  1.00  0.00    -0.267 OA
HETATM   12  N   UNL     1       9.366  30.074  57.354  1.00  0.00    -0.302 N 
HETATM   13  H   UNL     1      10.075  30.787  57.439  1.00  0.00     0.171 HD
ENDROOT
BRANCH   1  14
HETATM   14  S   UNL     1       9.013  30.716  59.826  1.00  0.00    -0.083 SA
BRANCH  14  15
HETATM   15  C   UNL     1       7.842  32.095  59.615  1.00  0.00     0.185 C 
BRANCH  15  16
HETATM   16  C   UNL     1       6.669  32.050  60.579  1.00  0.00     0.231 C 
HETATM   17  N   UNL     1       5.388  31.906  60.123  1.00  0.00    -0.327 N 
HETATM   18  H   UNL     1       4.747  31.820  60.905  1.00  0.00     0.169 HD
HETATM   19  O   UNL     1       6.812  32.100  61.808  1.00  0.00    -0.272 OA
BRANCH  17  20
HETATM   20  C   UNL     1       4.791  31.858  58.850  1.00  0.00     0.035 A 
HETATM   21  C   UNL     1       4.638  30.718  58.061  1.00  0.00     0.037 A 
HETATM   22  C   UNL     1       4.027  30.777  56.789  1.00  0.00    -0.054 A 
HETATM   23  C   UNL     1       3.586  32.015  56.286  1.00  0.00    -0.056 A 
HETATM   24  C   UNL     1       3.943  29.515  55.971  1.00  0.00     0.049 C 
HETATM   25  C   UNL     1       2.954  32.138  54.927  1.00  0.00     0.049 C 
HETATM   26  C   UNL     1       3.748  33.159  57.074  1.00  0.00     0.009 A 
HETATM   27  C   UNL     1       4.347  33.080  58.333  1.00  0.00     0.030 A 
ENDBRANCH  17  20
ENDBRANCH  15  16
ENDBRANCH  14  15
ENDBRANCH   1  14
BRANCH   6  28
HETATM   28  C   UNL     1       7.120  25.466  53.901  1.00  0.00     0.273 C 
BRANCH  28  29
HETATM   29  C   UNL     1       7.492  24.010  54.010  1.00  0.00    -0.030 A 
HETATM   30  C   UNL     1       7.689  23.416  55.271  1.00  0.00     0.048 A 
HETATM   31  C   UNL     1       7.987  22.070  55.317  1.00  0.00     0.105 A 
HETATM   32  C   UNL     1       8.115  21.314  54.179  1.00  0.00     0.105 A 
HETATM   33  O   UNL     1       8.178  21.343  56.448  1.00  0.00    -0.323 OA
HETATM   34  O   UNL     1       8.408  20.016  54.449  1.00  0.00    -0.323 OA
HETATM   35  C   UNL     1       7.955  21.863  52.926  1.00  0.00     0.040 A 
HETATM   36  C   UNL     1       8.456  20.037  55.891  1.00  0.00     0.352 A 
HETATM   37  C   UNL     1       7.639  23.224  52.843  1.00  0.00     0.012 A 
ENDBRANCH  28  29
ENDBRANCH   6  28
TORSDOF 6
ENDMDL
MODEL 10
REMARK VINA RESULT:      -9.9      6.891     10.928
REMARK  6 active torsions:
REMARK  status: ('A' for Active; 'I' for Inactive)
REMARK    1  A    between atoms: C_6  and  N_7 
REMARK       I    between atoms: N_7  and  C_8 
REMARK    2  A    between atoms: C_8  and  C_9 
REMARK    3  A    between atoms: C_9  and  S_10 
REMARK    4  A    between atoms: S_10  and  C_11 
REMARK    5  A    between atoms: N_16  and  C_18 
REMARK    6  A    between atoms: C_18  and  C_19 
ROOT
HETATM    1  C   UNL     1       8.229  29.560  57.994  1.00  0.00     0.169 A 
HETATM    2  N   UNL     1       8.888  29.555  59.105  1.00  0.00    -0.228 NA
HETATM    3  C   UNL     1       8.559  30.520  60.025  1.00  0.00     0.052 A 
HETATM    4  C   UNL     1       7.622  31.458  59.815  1.00  0.00     0.060 A 
HETATM    5  C   UNL     1       7.186  32.460  60.823  1.00  0.00     0.281 C 
HETATM    6  N   UNL     1       7.649  32.100  62.224  1.00  0.00    -0.063 N 
HETATM    7  H   UNL     1       7.108  31.272  62.502  1.00  0.00     0.280 HD
HETATM    8  C   UNL     1       9.109  31.693  62.215  1.00  0.00     0.241 C 
HETATM    9  C   UNL     1       9.297  30.450  61.339  1.00  0.00     0.088 C 
HETATM   10  C   UNL     1       6.930  31.474  58.515  1.00  0.00     0.257 A 
HETATM   11  O   UNL     1       6.093  32.332  58.270  1.00  0.00    -0.267 OA
HETATM   12  N   UNL     1       7.289  30.482  57.660  1.00  0.00    -0.302 N 
HETATM   13  H   UNL     1       6.823  30.408  56.768  1.00  0.00     0.171 HD
ENDROOT
BRANCH   1  14
HETATM   14  S   UNL     1       8.462  28.372  56.757  1.00  0.00    -0.083 SA
BRANCH  14  15
HETATM   15  C   UNL     1       6.905  28.580  55.834  1.00  0.00     0.185 C 
BRANCH  15  16
HETATM   16  C   UNL     1       5.715  27.895  56.485  1.00  0.00     0.231 C 
HETATM   17  N   UNL     1       5.501  26.554  56.325  1.00  0.00    -0.327 N 
HETATM   18  H   UNL     1       4.711  26.258  56.888  1.00  0.00     0.169 HD
HETATM   19  O   UNL     1       4.915  28.496  57.214  1.00  0.00    -0.272 OA
BRANCH  17  20
HETATM   20  C   UNL     1       6.117  25.537  55.572  1.00  0.00     0.035 A 
HETATM   21  C   UNL     1       7.111  24.671  56.025  1.00  0.00     0.037 A 
HETATM   22  C   UNL     1       7.669  23.683  55.185  1.00  0.00    -0.054 A 
HETATM   23  C   UNL     1       7.240  23.583  53.849  1.00  0.00    -0.056 A 
HETATM   24  C   UNL     1       8.776  22.816  55.727  1.00  0.00     0.049 C 
HETATM   25  C   UNL     1       7.822  22.568  52.903  1.00  0.00     0.049 C 
HETATM   26  C   UNL     1       6.250  24.459  53.391  1.00  0.00     0.009 A 
HETATM   27  C   UNL     1       5.703  25.424  54.240  1.00  0.00     0.030 A 
ENDBRANCH  17  20
ENDBRANCH  15  16
ENDBRANCH  14  15
ENDBRANCH   1  14
BRANCH   6  28
HETATM   28  C   UNL     1       7.314  33.185  63.218  1.00  0.00     0.273 C 
BRANCH  28  29
HETATM   29  C   UNL     1       6.002  33.869  62.929  1.00  0.00    -0.030 A 
HETATM   30  C   UNL     1       4.784  33.232  63.230  1.00  0.00     0.048 A 
HETATM   31  C   UNL     1       3.613  33.918  62.983  1.00  0.00     0.105 A 
HETATM   32  C   UNL     1       3.608  35.178  62.440  1.00  0.00     0.105 A 
HETATM   33  O   UNL     1       2.361  33.459  63.242  1.00  0.00    -0.323 OA
HETATM   34  O   UNL     1       2.353  35.670  62.283  1.00  0.00    -0.323 OA
HETATM   35  C   UNL     1       4.778  35.825  62.107  1.00  0.00     0.040 A 
HETATM   36  C   UNL     1       1.560  34.574  62.785  1.00  0.00     0.352 A 
HETATM   37  C   UNL     1       5.986  35.162  62.356  1.00  0.00     0.012 A 
ENDBRANCH  28  29
ENDBRANCH   6  28
TORSDOF 6
ENDMDL
