MODEL 1
REMARK VINA RESULT:      -9.5      0.000      0.000
REMARK  8 active torsions:
REMARK  status: ('A' for Active; 'I' for Inactive)
REMARK    1  A    between atoms: O_2  and  C_3 
REMARK    2  A    between atoms: C_4  and  O_5 
REMARK    3  A    between atoms: C_13  and  C_14 
REMARK    4  A    between atoms: C_14  and  N_15 
REMARK    5  A    between atoms: N_15  and  C_16 
REMARK    6  A    between atoms: C_17  and  C_18 
REMARK       I    between atoms: C_18  and  N_19 
REMARK    7  A    between atoms: N_19  and  C_20 
REMARK    8  A    between atoms: C_20  and  C_21 
ROOT
HETATM    1  N   UNL     1       7.313  24.234  56.757  1.00  0.00    -0.285 NA
HETATM    2  H   UNL     1       6.386  24.636  56.579  1.00  0.00     0.128 HD
ENDROOT
BRANCH   1   3
HETATM    3  C   UNL     1       8.277  25.277  57.151  1.00  0.00     0.171 C 
BRANCH   3   4
HETATM    4  C   UNL     1       7.675  26.672  57.281  1.00  0.00     0.120 A 
HETATM    5  N   UNL     1       6.382  26.866  56.879  1.00  0.00    -0.310 N 
HETATM    6  C   UNL     1       5.745  28.079  56.969  1.00  0.00     0.259 A 
HETATM    7  H   UNL     1       5.832  26.092  56.527  1.00  0.00     0.170 HD
HETATM    8  C   UNL     1       6.538  29.180  57.535  1.00  0.00     0.064 A 
HETATM    9  O   UNL     1       4.586  28.251  56.616  1.00  0.00    -0.267 OA
HETATM   10  C   UNL     1       7.845  28.896  57.919  1.00  0.00     0.077 A 
HETATM   11  C   UNL     1       5.993  30.453  57.704  1.00  0.00     0.059 A 
HETATM   12  C   UNL     1       8.618  29.918  58.476  1.00  0.00     0.072 A 
HETATM   13  N   UNL     1       8.410  27.620  57.774  1.00  0.00    -0.233 NA
HETATM   14  C   UNL     1       8.095  31.209  58.641  1.00  0.00     0.103 A 
HETATM   15  C   UNL     1       6.760  31.464  58.286  1.00  0.00     0.102 A 
BRANCH  14  16
HETATM   16  O   UNL     1       8.839  32.229  59.175  1.00  0.00    -0.353 OA
HETATM   17  C   UNL     1       9.486  31.923  60.406  1.00  0.00     0.210 C 
ENDBRANCH  14  16
BRANCH  15  18
HETATM   18  O   UNL     1       6.111  32.668  58.386  1.00  0.00    -0.353 OA
HETATM   19  C   UNL     1       5.372  32.867  59.587  1.00  0.00     0.210 C 
ENDBRANCH  15  18
ENDBRANCH   3   4
ENDBRANCH   1   3
BRANCH   1  20
HETATM   20  C   UNL     1       7.650  23.450  55.612  1.00  0.00     0.024 A 
HETATM   21  C   UNL     1       7.244  23.843  54.311  1.00  0.00     0.053 A 
HETATM   22  C   UNL     1       7.607  23.082  53.182  1.00  0.00     0.019 A 
HETATM   23  C   UNL     1       8.350  21.915  53.318  1.00  0.00     0.001 A 
HETATM   24  C   UNL     1       8.739  21.500  54.583  1.00  0.00     0.002 A 
HETATM   25  C   UNL     1       8.392  22.255  55.711  1.00  0.00     0.024 A 
BRANCH  21  26
HETATM   26  C   UNL     1       6.392  25.033  54.023  1.00  0.00     0.253 C 
HETATM   27  N   UNL     1       6.884  25.916  53.095  1.00  0.00    -0.351 N 
HETATM   28  H   UNL     1       7.740  25.673  52.608  1.00  0.00     0.163 HD
HETATM   29  O   UNL     1       5.344  25.210  54.633  1.00  0.00    -0.268 OA
BRANCH  27  30
HETATM   30  C   UNL     1       6.205  27.145  52.767  1.00  0.00     0.187 C 
BRANCH  30  31
HETATM   31  C   UNL     1       5.600  27.013  51.422  1.00  0.00     0.070 A 
HETATM   32  O   UNL     1       5.507  28.153  50.683  1.00  0.00    -0.325 OA
HETATM   33  C   UNL     1       4.894  27.822  49.517  1.00  0.00     0.142 A 
HETATM   34  C   UNL     1       4.611  26.477  49.487  1.00  0.00     0.027 A 
HETATM   35  C   UNL     1       5.070  25.950  50.718  1.00  0.00     0.036 A 
ENDBRANCH  30  31
ENDBRANCH  27  30
ENDBRANCH  21  26
ENDBRANCH   1  20
TORSDOF 8
ENDMDL
MODEL 2
REMARK VINA RESULT:      -9.3      2.656      9.416
REMARK  8 active torsions:
REMARK  status: ('A' for Active; 'I' for Inactive)
REMARK    1  A    between atoms: O_2  and  C_3 
REMARK    2  A    between atoms: C_4  and  O_5 
REMARK    3  A    between atoms: C_13  and  C_14 
REMARK    4  A    between atoms: C_14  and  N_15 
REMARK    5  A    between atoms: N_15  and  C_16 
REMARK    6  A    between atoms: C_17  and  C_18 
REMARK       I    between atoms: C_18  and  N_19 
REMARK    7  A    between atoms: N_19  and  C_20 
REMARK    8  A    between atoms: C_20  and  C_21 
ROOT
HETATM    1  N   UNL     1       7.268  28.518  57.649  1.00  0.00    -0.285 NA
HETATM    2  H   UNL     1       7.534  27.592  58.002  1.00  0.00     0.128 HD
ENDROOT
BRANCH   1   3
HETATM    3  C   UNL     1       6.586  28.414  56.346  1.00  0.00     0.171 C 
BRANCH   3   4
HETATM    4  C   UNL     1       6.931  27.158  55.555  1.00  0.00     0.120 A 
HETATM    5  N   UNL     1       6.721  27.158  54.204  1.00  0.00    -0.310 N 
HETATM    6  C   UNL     1       7.013  26.082  53.401  1.00  0.00     0.259 A 
HETATM    7  H   UNL     1       6.367  27.984  53.738  1.00  0.00     0.170 HD
HETATM    8  C   UNL     1       7.579  24.909  54.082  1.00  0.00     0.064 A 
HETATM    9  O   UNL     1       6.831  26.084  52.191  1.00  0.00    -0.267 OA
HETATM   10  C   UNL     1       7.762  24.993  55.459  1.00  0.00     0.077 A 
HETATM   11  C   UNL     1       7.944  23.765  53.372  1.00  0.00     0.059 A 
HETATM   12  C   UNL     1       8.314  23.900  56.132  1.00  0.00     0.072 A 
HETATM   13  N   UNL     1       7.418  26.139  56.193  1.00  0.00    -0.233 NA
HETATM   14  C   UNL     1       8.673  22.734  55.439  1.00  0.00     0.103 A 
HETATM   15  C   UNL     1       8.521  22.685  54.044  1.00  0.00     0.102 A 
BRANCH  14  16
HETATM   16  O   UNL     1       9.206  21.646  56.080  1.00  0.00    -0.353 OA
HETATM   17  C   UNL     1       8.262  20.824  56.759  1.00  0.00     0.210 C 
ENDBRANCH  14  16
BRANCH  15  18
HETATM   18  O   UNL     1       8.823  21.622  53.233  1.00  0.00    -0.353 OA
HETATM   19  C   UNL     1       7.782  20.666  53.062  1.00  0.00     0.210 C 
ENDBRANCH  15  18
ENDBRANCH   3   4
ENDBRANCH   1   3
BRANCH   1  20
HETATM   20  C   UNL     1       8.442  29.330  57.695  1.00  0.00     0.024 A 
HETATM   21  C   UNL     1       8.437  30.587  58.353  1.00  0.00     0.053 A 
HETATM   22  C   UNL     1       9.608  31.368  58.421  1.00  0.00     0.019 A 
HETATM   23  C   UNL     1      10.788  30.938  57.825  1.00  0.00     0.001 A 
HETATM   24  C   UNL     1      10.809  29.723  57.158  1.00  0.00     0.002 A 
HETATM   25  C   UNL     1       9.653  28.934  57.093  1.00  0.00     0.024 A 
BRANCH  21  26
HETATM   26  C   UNL     1       7.230  31.200  58.978  1.00  0.00     0.253 C 
HETATM   27  N   UNL     1       7.295  31.411  60.332  1.00  0.00    -0.351 N 
HETATM   28  H   UNL     1       8.171  31.219  60.807  1.00  0.00     0.163 HD
HETATM   29  O   UNL     1       6.236  31.442  58.304  1.00  0.00    -0.268 OA
BRANCH  27  30
HETATM   30  C   UNL     1       6.180  31.932  61.085  1.00  0.00     0.187 C 
BRANCH  30  31
HETATM   31  C   UNL     1       6.669  32.406  62.399  1.00  0.00     0.070 A 
HETATM   32  O   UNL     1       5.723  32.824  63.284  1.00  0.00    -0.325 OA
HETATM   33  C   UNL     1       6.378  33.251  64.395  1.00  0.00     0.142 A 
HETATM   34  C   UNL     1       7.735  33.091  64.244  1.00  0.00     0.027 A 
HETATM   35  C   UNL     1       7.926  32.541  62.954  1.00  0.00     0.036 A 
ENDBRANCH  30  31
ENDBRANCH  27  30
ENDBRANCH  21  26
ENDBRANCH   1  20
TORSDOF 8
ENDMDL
MODEL 3
REMARK VINA RESULT:      -9.1      2.730      7.681
REMARK  8 active torsions:
REMARK  status: ('A' for Active; 'I' for Inactive)
REMARK    1  A    between atoms: O_2  and  C_3 
REMARK    2  A    between atoms: C_4  and  O_5 
REMARK    3  A    between atoms: C_13  and  C_14 
REMARK    4  A    between atoms: C_14  and  N_15 
REMARK    5  A    between atoms: N_15  and  C_16 
REMARK    6  A    between atoms: C_17  and  C_18 
REMARK       I    between atoms: C_18  and  N_19 
REMARK    7  A    between atoms: N_19  and  C_20 
REMARK    8  A    between atoms: C_20  and  C_21 
ROOT
HETATM    1  N   UNL     1       7.213  24.551  53.712  1.00  0.00    -0.285 NA
HETATM    2  H   UNL     1       7.548  25.188  54.444  1.00  0.00     0.128 HD
ENDROOT
BRANCH   1   3
HETATM    3  C   UNL     1       5.788  24.785  53.416  1.00  0.00     0.171 C 
BRANCH   3   4
HETATM    4  C   UNL     1       5.536  25.832  52.337  1.00  0.00     0.120 A 
HETATM    5  N   UNL     1       5.898  27.127  52.585  1.00  0.00    -0.310 N 
HETATM    6  C   UNL     1       5.726  28.140  51.673  1.00  0.00     0.259 A 
HETATM    7  H   UNL     1       6.346  27.378  53.458  1.00  0.00     0.170 HD
HETATM    8  C   UNL     1       5.126  27.752  50.388  1.00  0.00     0.064 A 
HETATM    9  O   UNL     1       6.056  29.298  51.892  1.00  0.00    -0.267 OA
HETATM   10  C   UNL     1       4.788  26.413  50.218  1.00  0.00     0.077 A 
HETATM   11  C   UNL     1       4.926  28.684  49.371  1.00  0.00     0.059 A 
HETATM   12  C   UNL     1       4.230  26.010  49.002  1.00  0.00     0.072 A 
HETATM   13  N   UNL     1       4.993  25.453  51.221  1.00  0.00    -0.233 NA
HETATM   14  C   UNL     1       4.008  26.934  47.970  1.00  0.00     0.103 A 
HETATM   15  C   UNL     1       4.395  28.273  48.146  1.00  0.00     0.102 A 
BRANCH  14  16
HETATM   16  O   UNL     1       3.452  26.563  46.773  1.00  0.00    -0.353 OA
HETATM   17  C   UNL     1       2.653  25.385  46.818  1.00  0.00     0.210 C 
ENDBRANCH  14  16
BRANCH  15  18
HETATM   18  O   UNL     1       4.241  29.287  47.237  1.00  0.00    -0.353 OA
HETATM   19  C   UNL     1       4.612  30.583  47.695  1.00  0.00     0.210 C 
ENDBRANCH  15  18
ENDBRANCH   3   4
ENDBRANCH   1   3
BRANCH   1  20
HETATM   20  C   UNL     1       7.574  23.230  54.117  1.00  0.00     0.024 A 
HETATM   21  C   UNL     1       7.956  22.954  55.456  1.00  0.00     0.053 A 
HETATM   22  C   UNL     1       8.280  21.642  55.856  1.00  0.00     0.019 A 
HETATM   23  C   UNL     1       8.258  20.592  54.944  1.00  0.00     0.001 A 
HETATM   24  C   UNL     1       7.910  20.844  53.626  1.00  0.00     0.002 A 
HETATM   25  C   UNL     1       7.576  22.143  53.220  1.00  0.00     0.024 A 
BRANCH  21  26
HETATM   26  C   UNL     1       8.084  23.989  56.521  1.00  0.00     0.253 C 
HETATM   27  N   UNL     1       7.065  24.905  56.596  1.00  0.00    -0.351 N 
HETATM   28  H   UNL     1       6.261  24.780  55.991  1.00  0.00     0.163 HD
HETATM   29  O   UNL     1       9.077  24.024  57.238  1.00  0.00    -0.268 OA
BRANCH  27  30
HETATM   30  C   UNL     1       7.086  26.005  57.529  1.00  0.00     0.187 C 
BRANCH  30  31
HETATM   31  C   UNL     1       7.615  27.205  56.843  1.00  0.00     0.070 A 
HETATM   32  O   UNL     1       7.426  27.266  55.495  1.00  0.00    -0.325 OA
HETATM   33  C   UNL     1       8.014  28.412  55.063  1.00  0.00     0.142 A 
HETATM   34  C   UNL     1       8.560  29.101  56.120  1.00  0.00     0.027 A 
HETATM   35  C   UNL     1       8.300  28.323  57.274  1.00  0.00     0.036 A 
ENDBRANCH  30  31
ENDBRANCH  27  30
ENDBRANCH  21  26
ENDBRANCH   1  20
TORSDOF 8
ENDMDL
MODEL 4
REMARK VINA RESULT:      -9.0      1.636      2.078
REMARK  8 active torsions:
REMARK  status: ('A' for Active; 'I' for Inactive)
REMARK    1  A    between atoms: O_2  and  C_3 
REMARK    2  A    between atoms: C_4  and  O_5 
REMARK    3  A    between atoms: C_13  and  C_14 
REMARK    4  A    between atoms: C_14  and  N_15 
REMARK    5  A    between atoms: N_15  and  C_16 
REMARK    6  A    between atoms: C_17  and  C_18 
REMARK       I    between atoms: C_18  and  N_19 
REMARK    7  A    between atoms: N_19  and  C_20 
REMARK    8  A    between atoms: C_20  and  C_21 
ROOT
HETATM    1  N   UNL     1       7.829  24.298  56.104  1.00  0.00    -0.285 NA
HETATM    2  H   UNL     1       8.605  24.533  56.733  1.00  0.00     0.128 HD
ENDROOT
BRANCH   1   3
HETATM    3  C   UNL     1       6.532  24.659  56.702  1.00  0.00     0.171 C 
BRANCH   3   4
HETATM    4  C   UNL     1       6.310  26.159  56.862  1.00  0.00     0.120 A 
HETATM    5  N   UNL     1       5.138  26.698  56.407  1.00  0.00    -0.310 N 
HETATM    6  C   UNL     1       4.837  28.034  56.518  1.00  0.00     0.259 A 
HETATM    7  H   UNL     1       4.426  26.108  55.996  1.00  0.00     0.170 HD
HETATM    8  C   UNL     1       5.857  28.870  57.168  1.00  0.00     0.064 A 
HETATM    9  O   UNL     1       3.786  28.516  56.116  1.00  0.00    -0.267 OA
HETATM   10  C   UNL     1       7.019  28.240  57.603  1.00  0.00     0.077 A 
HETATM   11  C   UNL     1       5.656  30.236  57.364  1.00  0.00     0.059 A 
HETATM   12  C   UNL     1       8.000  29.006  58.239  1.00  0.00     0.072 A 
HETATM   13  N   UNL     1       7.238  26.864  57.430  1.00  0.00    -0.233 NA
HETATM   14  C   UNL     1       7.825  30.383  58.434  1.00  0.00     0.103 A 
HETATM   15  C   UNL     1       6.626  30.992  58.026  1.00  0.00     0.102 A 
BRANCH  14  16
HETATM   16  O   UNL     1       8.778  31.155  59.046  1.00  0.00    -0.353 OA
HETATM   17  C   UNL     1       9.984  31.322  58.307  1.00  0.00     0.210 C 
ENDBRANCH  14  16
BRANCH  15  18
HETATM   18  O   UNL     1       6.311  32.321  58.146  1.00  0.00    -0.353 OA
HETATM   19  C   UNL     1       5.133  32.735  57.462  1.00  0.00     0.210 C 
ENDBRANCH  15  18
ENDBRANCH   3   4
ENDBRANCH   1   3
BRANCH   1  20
HETATM   20  C   UNL     1       8.003  22.931  55.728  1.00  0.00     0.024 A 
HETATM   21  C   UNL     1       7.819  22.512  54.385  1.00  0.00     0.053 A 
HETATM   22  C   UNL     1       8.023  21.167  54.016  1.00  0.00     0.019 A 
HETATM   23  C   UNL     1       8.386  20.215  54.962  1.00  0.00     0.001 A 
HETATM   24  C   UNL     1       8.549  20.599  56.284  1.00  0.00     0.002 A 
HETATM   25  C   UNL     1       8.359  21.934  56.660  1.00  0.00     0.024 A 
BRANCH  21  26
HETATM   26  C   UNL     1       7.370  23.409  53.282  1.00  0.00     0.253 C 
HETATM   27  N   UNL     1       6.190  24.077  53.491  1.00  0.00    -0.351 N 
HETATM   28  H   UNL     1       5.741  23.987  54.397  1.00  0.00     0.163 HD
HETATM   29  O   UNL     1       8.014  23.486  52.243  1.00  0.00    -0.268 OA
BRANCH  27  30
HETATM   30  C   UNL     1       5.597  24.924  52.487  1.00  0.00     0.187 C 
BRANCH  30  31
HETATM   31  C   UNL     1       5.879  26.337  52.826  1.00  0.00     0.070 A 
HETATM   32  O   UNL     1       7.107  26.602  53.351  1.00  0.00    -0.325 OA
HETATM   33  C   UNL     1       7.145  27.932  53.624  1.00  0.00     0.142 A 
HETATM   34  C   UNL     1       5.962  28.531  53.261  1.00  0.00     0.027 A 
HETATM   35  C   UNL     1       5.143  27.502  52.740  1.00  0.00     0.036 A 
ENDBRANCH  30  31
ENDBRANCH  27  30
ENDBRANCH  21  26
ENDBRANCH   1  20
TORSDOF 8
ENDMDL
MODEL 5
REMARK VINA RESULT:      -8.8      2.802      6.812
REMARK  8 active torsions:
REMARK  status: ('A' for Active; 'I' for Inactive)
REMARK    1  A    between atoms: O_2  and  C_3 
REMARK    2  A    between atoms: C_4  and  O_5 
REMARK    3  A    between atoms: C_13  and  C_14 
REMARK    4  A    between atoms: C_14  and  N_15 
REMARK    5  A    between atoms: N_15  and  C_16 
REMARK    6  A    between atoms: C_17  and  C_18 
REMARK       I    between atoms: C_18  and  N_19 
REMARK    7  A    between atoms: N_19  and  C_20 
REMARK    8  A    between atoms: C_20  and  C_21 
ROOT
HETATM    1  N   UNL     1       7.757  24.568  53.589  1.00  0.00    -0.285 NA
HETATM    2  H   UNL     1       7.123  24.988  54.278  1.00  0.00     0.128 HD
ENDROOT
BRANCH   1   3
HETATM    3  C   UNL     1       7.353  24.915  52.214  1.00  0.00     0.171 C 
BRANCH   3   4
HETATM    4  C   UNL     1       6.244  25.958  52.130  1.00  0.00     0.120 A 
HETATM    5  N   UNL     1       5.765  26.498  53.293  1.00  0.00    -0.310 N 
HETATM    6  C   UNL     1       4.779  27.454  53.323  1.00  0.00     0.259 A 
HETATM    7  H   UNL     1       6.158  26.227  54.186  1.00  0.00     0.170 HD
HETATM    8  C   UNL     1       4.258  27.879  52.016  1.00  0.00     0.064 A 
HETATM    9  O   UNL     1       4.355  27.942  54.362  1.00  0.00    -0.267 OA
HETATM   10  C   UNL     1       4.801  27.280  50.884  1.00  0.00     0.077 A 
HETATM   11  C   UNL     1       3.274  28.863  51.914  1.00  0.00     0.059 A 
HETATM   12  C   UNL     1       4.337  27.675  49.626  1.00  0.00     0.072 A 
HETATM   13  N   UNL     1       5.802  26.299  50.960  1.00  0.00    -0.233 NA
HETATM   14  C   UNL     1       3.339  28.653  49.501  1.00  0.00     0.103 A 
HETATM   15  C   UNL     1       2.834  29.276  50.655  1.00  0.00     0.102 A 
BRANCH  14  16
HETATM   16  O   UNL     1       2.861  29.048  48.279  1.00  0.00    -0.353 OA
HETATM   17  C   UNL     1       2.850  28.033  47.279  1.00  0.00     0.210 C 
ENDBRANCH  14  16
BRANCH  15  18
HETATM   18  O   UNL     1       1.861  30.241  50.693  1.00  0.00    -0.353 OA
HETATM   19  C   UNL     1       2.331  31.585  50.708  1.00  0.00     0.210 C 
ENDBRANCH  15  18
ENDBRANCH   3   4
ENDBRANCH   1   3
BRANCH   1  20
HETATM   20  C   UNL     1       7.841  23.176  53.899  1.00  0.00     0.024 A 
HETATM   21  C   UNL     1       7.797  22.722  55.243  1.00  0.00     0.053 A 
HETATM   22  C   UNL     1       7.848  21.346  55.540  1.00  0.00     0.019 A 
HETATM   23  C   UNL     1       7.967  20.401  54.526  1.00  0.00     0.001 A 
HETATM   24  C   UNL     1       8.034  20.825  53.208  1.00  0.00     0.002 A 
HETATM   25  C   UNL     1       7.973  22.190  52.900  1.00  0.00     0.024 A 
BRANCH  21  26
HETATM   26  C   UNL     1       7.735  23.623  56.429  1.00  0.00     0.253 C 
HETATM   27  N   UNL     1       6.823  24.646  56.362  1.00  0.00    -0.351 N 
HETATM   28  H   UNL     1       6.200  24.682  55.562  1.00  0.00     0.163 HD
HETATM   29  O   UNL     1       8.501  23.463  57.372  1.00  0.00    -0.268 OA
BRANCH  27  30
HETATM   30  C   UNL     1       6.699  25.637  57.403  1.00  0.00     0.187 C 
BRANCH  30  31
HETATM   31  C   UNL     1       7.278  26.911  56.922  1.00  0.00     0.070 A 
HETATM   32  O   UNL     1       7.428  27.040  55.575  1.00  0.00    -0.325 OA
HETATM   33  C   UNL     1       8.005  28.250  55.353  1.00  0.00     0.142 A 
HETATM   34  C   UNL     1       8.208  28.911  56.541  1.00  0.00     0.027 A 
HETATM   35  C   UNL     1       7.734  28.048  57.558  1.00  0.00     0.036 A 
ENDBRANCH  30  31
ENDBRANCH  27  30
ENDBRANCH  21  26
ENDBRANCH   1  20
TORSDOF 8
ENDMDL
MODEL 6
REMARK VINA RESULT:      -8.7      1.965      4.821
REMARK  8 active torsions:
REMARK  status: ('A' for Active; 'I' for Inactive)
REMARK    1  A    between atoms: O_2  and  C_3 
REMARK    2  A    between atoms: C_4  and  O_5 
REMARK    3  A    between atoms: C_13  and  C_14 
REMARK    4  A    between atoms: C_14  and  N_15 
REMARK    5  A    between atoms: N_15  and  C_16 
REMARK    6  A    between atoms: C_17  and  C_18 
REMARK       I    between atoms: C_18  and  N_19 
REMARK    7  A    between atoms: N_19  and  C_20 
REMARK    8  A    between atoms: C_20  and  C_21 
ROOT
HETATM    1  N   UNL     1       4.411  27.729  54.729  1.00  0.00    -0.285 NA
HETATM    2  H   UNL     1       3.413  27.534  54.870  1.00  0.00     0.128 HD
ENDROOT
BRANCH   1   3
HETATM    3  C   UNL     1       4.725  29.138  55.031  1.00  0.00     0.171 C 
BRANCH   3   4
HETATM    4  C   UNL     1       5.717  29.329  56.172  1.00  0.00     0.120 A 
HETATM    5  N   UNL     1       6.738  28.428  56.308  1.00  0.00    -0.310 N 
HETATM    6  C   UNL     1       7.691  28.521  57.293  1.00  0.00     0.259 A 
HETATM    7  H   UNL     1       6.843  27.666  55.649  1.00  0.00     0.170 HD
HETATM    8  C   UNL     1       7.559  29.663  58.208  1.00  0.00     0.064 A 
HETATM    9  O   UNL     1       8.608  27.718  57.412  1.00  0.00    -0.267 OA
HETATM   10  C   UNL     1       6.493  30.533  57.998  1.00  0.00     0.077 A 
HETATM   11  C   UNL     1       8.481  29.882  59.232  1.00  0.00     0.059 A 
HETATM   12  C   UNL     1       6.350  31.637  58.842  1.00  0.00     0.072 A 
HETATM   13  N   UNL     1       5.561  30.342  56.965  1.00  0.00    -0.233 NA
HETATM   14  C   UNL     1       7.257  31.868  59.886  1.00  0.00     0.103 A 
HETATM   15  C   UNL     1       8.351  31.003  60.055  1.00  0.00     0.102 A 
BRANCH  14  16
HETATM   16  O   UNL     1       7.131  32.939  60.732  1.00  0.00    -0.353 OA
HETATM   17  C   UNL     1       5.795  33.246  61.120  1.00  0.00     0.210 C 
ENDBRANCH  14  16
BRANCH  15  18
HETATM   18  O   UNL     1       9.315  31.096  61.025  1.00  0.00    -0.353 OA
HETATM   19  C   UNL     1       9.112  30.276  62.172  1.00  0.00     0.210 C 
ENDBRANCH  15  18
ENDBRANCH   3   4
ENDBRANCH   1   3
BRANCH   1  20
HETATM   20  C   UNL     1       4.740  27.267  53.418  1.00  0.00     0.024 A 
HETATM   21  C   UNL     1       5.552  26.119  53.229  1.00  0.00     0.053 A 
HETATM   22  C   UNL     1       5.846  25.650  51.933  1.00  0.00     0.019 A 
HETATM   23  C   UNL     1       5.369  26.314  50.809  1.00  0.00     0.001 A 
HETATM   24  C   UNL     1       4.592  27.451  50.971  1.00  0.00     0.002 A 
HETATM   25  C   UNL     1       4.285  27.920  52.254  1.00  0.00     0.024 A 
BRANCH  21  26
HETATM   26  C   UNL     1       6.182  25.348  54.339  1.00  0.00     0.253 C 
HETATM   27  N   UNL     1       7.213  24.515  53.985  1.00  0.00    -0.351 N 
HETATM   28  H   UNL     1       7.535  24.533  53.023  1.00  0.00     0.163 HD
HETATM   29  O   UNL     1       5.749  25.436  55.482  1.00  0.00    -0.268 OA
BRANCH  27  30
HETATM   30  C   UNL     1       7.872  23.657  54.938  1.00  0.00     0.187 C 
BRANCH  30  31
HETATM   31  C   UNL     1       8.052  22.319  54.332  1.00  0.00     0.070 A 
HETATM   32  O   UNL     1       8.470  21.326  55.165  1.00  0.00    -0.325 OA
HETATM   33  C   UNL     1       8.609  20.205  54.410  1.00  0.00     0.142 A 
HETATM   34  C   UNL     1       8.264  20.459  53.104  1.00  0.00     0.027 A 
HETATM   35  C   UNL     1       7.899  21.826  53.051  1.00  0.00     0.036 A 
ENDBRANCH  30  31
ENDBRANCH  27  30
ENDBRANCH  21  26
ENDBRANCH   1  20
TORSDOF 8
ENDMDL
MODEL 7
REMARK VINA RESULT:      -8.6      2.839      7.022
REMARK  8 active torsions:
REMARK  status: ('A' for Active; 'I' for Inactive)
REMARK    1  A    between atoms: O_2  and  C_3 
REMARK    2  A    between atoms: C_4  and  O_5 
REMARK    3  A    between atoms: C_13  and  C_14 
REMARK    4  A    between atoms: C_14  and  N_15 
REMARK    5  A    between atoms: N_15  and  C_16 
REMARK    6  A    between atoms: C_17  and  C_18 
REMARK       I    between atoms: C_18  and  N_19 
REMARK    7  A    between atoms: N_19  and  C_20 
REMARK    8  A    between atoms: C_20  and  C_21 
ROOT
HETATM    1  N   UNL     1       5.258  28.351  56.400  1.00  0.00    -0.285 NA
HETATM    2  H   UNL     1       4.665  29.015  56.910  1.00  0.00     0.128 HD
ENDROOT
BRANCH   1   3
HETATM    3  C   UNL     1       4.915  26.959  56.743  1.00  0.00     0.171 C 
BRANCH   3   4
HETATM    4  C   UNL     1       5.519  25.915  55.810  1.00  0.00     0.120 A 
HETATM    5  N   UNL     1       5.058  25.842  54.525  1.00  0.00    -0.310 N 
HETATM    6  C   UNL     1       5.547  24.948  53.604  1.00  0.00     0.259 A 
HETATM    7  H   UNL     1       4.348  26.486  54.196  1.00  0.00     0.170 HD
HETATM    8  C   UNL     1       6.617  24.059  54.079  1.00  0.00     0.064 A 
HETATM    9  O   UNL     1       5.139  24.887  52.451  1.00  0.00    -0.267 OA
HETATM   10  C   UNL     1       7.028  24.200  55.401  1.00  0.00     0.077 A 
HETATM   11  C   UNL     1       7.214  23.127  53.230  1.00  0.00     0.059 A 
HETATM   12  C   UNL     1       8.053  23.379  55.876  1.00  0.00     0.072 A 
HETATM   13  N   UNL     1       6.453  25.141  56.269  1.00  0.00    -0.233 NA
HETATM   14  C   UNL     1       8.658  22.426  55.044  1.00  0.00     0.103 A 
HETATM   15  C   UNL     1       8.258  22.328  53.701  1.00  0.00     0.102 A 
BRANCH  14  16
HETATM   16  O   UNL     1       9.659  21.603  55.493  1.00  0.00    -0.353 OA
HETATM   17  C   UNL     1       9.222  20.486  56.262  1.00  0.00     0.210 C 
ENDBRANCH  14  16
BRANCH  15  18
HETATM   18  O   UNL     1       8.751  21.449  52.771  1.00  0.00    -0.353 OA
HETATM   19  C   UNL     1       8.151  20.157  52.772  1.00  0.00     0.210 C 
ENDBRANCH  15  18
ENDBRANCH   3   4
ENDBRANCH   1   3
BRANCH   1  20
HETATM   20  C   UNL     1       6.611  28.751  56.622  1.00  0.00     0.024 A 
HETATM   21  C   UNL     1       7.554  28.764  55.562  1.00  0.00     0.053 A 
HETATM   22  C   UNL     1       8.879  29.191  55.782  1.00  0.00     0.019 A 
HETATM   23  C   UNL     1       9.300  29.584  57.047  1.00  0.00     0.001 A 
HETATM   24  C   UNL     1       8.401  29.557  58.102  1.00  0.00     0.002 A 
HETATM   25  C   UNL     1       7.079  29.145  57.892  1.00  0.00     0.024 A 
BRANCH  21  26
HETATM   26  C   UNL     1       7.258  28.309  54.173  1.00  0.00     0.253 C 
HETATM   27  N   UNL     1       6.226  28.950  53.535  1.00  0.00    -0.351 N 
HETATM   28  H   UNL     1       5.786  29.735  54.004  1.00  0.00     0.163 HD
HETATM   29  O   UNL     1       7.885  27.381  53.676  1.00  0.00    -0.268 OA
BRANCH  27  30
HETATM   30  C   UNL     1       5.781  28.571  52.217  1.00  0.00     0.187 C 
BRANCH  30  31
HETATM   31  C   UNL     1       5.342  29.785  51.493  1.00  0.00     0.070 A 
HETATM   32  O   UNL     1       6.141  30.207  50.474  1.00  0.00    -0.325 OA
HETATM   33  C   UNL     1       5.586  31.342  49.977  1.00  0.00     0.142 A 
HETATM   34  C   UNL     1       4.425  31.645  50.650  1.00  0.00     0.027 A 
HETATM   35  C   UNL     1       4.264  30.636  51.629  1.00  0.00     0.036 A 
ENDBRANCH  30  31
ENDBRANCH  27  30
ENDBRANCH  21  26
ENDBRANCH   1  20
TORSDOF 8
ENDMDL
MODEL 8
REMARK VINA RESULT:      -8.5      1.617      2.686
REMARK  8 active torsions:
REMARK  status: ('A' for Active; 'I' for Inactive)
REMARK    1  A    between atoms: O_2  and  C_3 
REMARK    2  A    between atoms: C_4  and  O_5 
REMARK    3  A    between atoms: C_13  and  C_14 
REMARK    4  A    between atoms: C_14  and  N_15 
REMARK    5  A    between atoms: N_15  and  C_16 
REMARK    6  A    between atoms: C_17  and  C_18 
REMARK       I    between atoms: C_18  and  N_19 
REMARK    7  A    between atoms: N_19  and  C_20 
REMARK    8  A    between atoms: C_20  and  C_21 
ROOT
HETATM    1  N   UNL     1       6.807  24.832  55.833  1.00  0.00    -0.285 NA
HETATM    2  H   UNL     1       6.219  25.443  55.255  1.00  0.00     0.128 HD
ENDROOT
BRANCH   1   3
HETATM    3  C   UNL     1       7.842  25.604  56.544  1.00  0.00     0.171 C 
BRANCH   3   4
HETATM    4  C   UNL     1       7.455  27.049  56.837  1.00  0.00     0.120 A 
HETATM    5  N   UNL     1       8.073  27.694  57.874  1.00  0.00    -0.310 N 
HETATM    6  C   UNL     1       7.807  28.998  58.209  1.00  0.00     0.259 A 
HETATM    7  H   UNL     1       8.789  27.226  58.416  1.00  0.00     0.170 HD
HETATM    8  C   UNL     1       6.806  29.683  57.377  1.00  0.00     0.064 A 
HETATM    9  O   UNL     1       8.364  29.578  59.132  1.00  0.00    -0.267 OA
HETATM   10  C   UNL     1       6.226  28.955  56.343  1.00  0.00     0.077 A 
HETATM   11  C   UNL     1       6.469  31.018  57.601  1.00  0.00     0.059 A 
HETATM   12  C   UNL     1       5.284  29.583  55.525  1.00  0.00     0.072 A 
HETATM   13  N   UNL     1       6.560  27.615  56.089  1.00  0.00    -0.233 NA
HETATM   14  C   UNL     1       4.920  30.920  55.741  1.00  0.00     0.103 A 
HETATM   15  C   UNL     1       5.548  31.651  56.764  1.00  0.00     0.102 A 
BRANCH  14  16
HETATM   16  O   UNL     1       3.990  31.553  54.958  1.00  0.00    -0.353 OA
HETATM   17  C   UNL     1       2.648  31.468  55.427  1.00  0.00     0.210 C 
ENDBRANCH  14  16
BRANCH  15  18
HETATM   18  O   UNL     1       5.299  32.957  57.096  1.00  0.00    -0.353 OA
HETATM   19  C   UNL     1       4.811  33.171  58.416  1.00  0.00     0.210 C 
ENDBRANCH  15  18
ENDBRANCH   3   4
ENDBRANCH   1   3
BRANCH   1  20
HETATM   20  C   UNL     1       7.264  23.777  54.985  1.00  0.00     0.024 A 
HETATM   21  C   UNL     1       7.636  24.030  53.639  1.00  0.00     0.053 A 
HETATM   22  C   UNL     1       8.117  22.991  52.818  1.00  0.00     0.019 A 
HETATM   23  C   UNL     1       8.214  21.689  53.298  1.00  0.00     0.001 A 
HETATM   24  C   UNL     1       7.834  21.416  54.603  1.00  0.00     0.002 A 
HETATM   25  C   UNL     1       7.365  22.444  55.431  1.00  0.00     0.024 A 
BRANCH  21  26
HETATM   26  C   UNL     1       7.524  25.360  52.975  1.00  0.00     0.253 C 
HETATM   27  N   UNL     1       6.356  26.046  53.194  1.00  0.00    -0.351 N 
HETATM   28  H   UNL     1       5.684  25.655  53.846  1.00  0.00     0.163 HD
HETATM   29  O   UNL     1       8.418  25.767  52.243  1.00  0.00    -0.268 OA
BRANCH  27  30
HETATM   30  C   UNL     1       6.076  27.312  52.563  1.00  0.00     0.187 C 
BRANCH  30  31
HETATM   31  C   UNL     1       5.460  27.062  51.241  1.00  0.00     0.070 A 
HETATM   32  O   UNL     1       5.363  28.131  50.404  1.00  0.00    -0.325 OA
HETATM   33  C   UNL     1       4.740  27.699  49.276  1.00  0.00     0.142 A 
HETATM   34  C   UNL     1       4.454  26.358  49.369  1.00  0.00     0.027 A 
HETATM   35  C   UNL     1       4.922  25.942  50.638  1.00  0.00     0.036 A 
ENDBRANCH  30  31
ENDBRANCH  27  30
ENDBRANCH  21  26
ENDBRANCH   1  20
TORSDOF 8
ENDMDL
MODEL 9
REMARK VINA RESULT:      -8.5      2.441      5.161
REMARK  8 active torsions:
REMARK  status: ('A' for Active; 'I' for Inactive)
REMARK    1  A    between atoms: O_2  and  C_3 
REMARK    2  A    between atoms: C_4  and  O_5 
REMARK    3  A    between atoms: C_13  and  C_14 
REMARK    4  A    between atoms: C_14  and  N_15 
REMARK    5  A    between atoms: N_15  and  C_16 
REMARK    6  A    between atoms: C_17  and  C_18 
REMARK       I    between atoms: C_18  and  N_19 
REMARK    7  A    between atoms: N_19  and  C_20 
REMARK    8  A    between atoms: C_20  and  C_21 
ROOT
HETATM    1  N   UNL     1       6.925  24.676  53.132  1.00  0.00    -0.285 NA
HETATM    2  H   UNL     1       7.228  25.406  53.787  1.00  0.00     0.128 HD
ENDROOT
BRANCH   1   3
HETATM    3  C   UNL     1       5.507  24.844  52.767  1.00  0.00     0.171 C 
BRANCH   3   4
HETATM    4  C   UNL     1       4.997  26.276  52.872  1.00  0.00     0.120 A 
HETATM    5  N   UNL     1       4.639  26.928  51.724  1.00  0.00    -0.310 N 
HETATM    6  C   UNL     1       4.155  28.213  51.713  1.00  0.00     0.259 A 
HETATM    7  H   UNL     1       4.690  26.458  50.828  1.00  0.00     0.170 HD
HETATM    8  C   UNL     1       4.032  28.864  53.026  1.00  0.00     0.064 A 
HETATM    9  O   UNL     1       3.829  28.795  50.687  1.00  0.00    -0.267 OA
HETATM   10  C   UNL     1       4.417  28.129  54.143  1.00  0.00     0.077 A 
HETATM   11  C   UNL     1       3.526  30.158  53.149  1.00  0.00     0.059 A 
HETATM   12  C   UNL     1       4.297  28.714  55.406  1.00  0.00     0.072 A 
HETATM   13  N   UNL     1       4.914  26.820  54.047  1.00  0.00    -0.233 NA
HETATM   14  C   UNL     1       3.804  30.019  55.552  1.00  0.00     0.103 A 
HETATM   15  C   UNL     1       3.382  30.729  54.415  1.00  0.00     0.102 A 
BRANCH  14  16
HETATM   16  O   UNL     1       3.688  30.617  56.780  1.00  0.00    -0.353 OA
HETATM   17  C   UNL     1       4.915  31.059  57.354  1.00  0.00     0.210 C 
ENDBRANCH  14  16
BRANCH  15  18
HETATM   18  O   UNL     1       2.883  32.006  54.397  1.00  0.00    -0.353 OA
HETATM   19  C   UNL     1       2.389  32.452  53.138  1.00  0.00     0.210 C 
ENDBRANCH  15  18
ENDBRANCH   3   4
ENDBRANCH   1   3
BRANCH   1  20
HETATM   20  C   UNL     1       7.294  23.424  53.712  1.00  0.00     0.024 A 
HETATM   21  C   UNL     1       7.270  23.232  55.117  1.00  0.00     0.053 A 
HETATM   22  C   UNL     1       7.604  21.985  55.680  1.00  0.00     0.019 A 
HETATM   23  C   UNL     1       7.990  20.919  54.874  1.00  0.00     0.001 A 
HETATM   24  C   UNL     1       8.042  21.091  53.499  1.00  0.00     0.002 A 
HETATM   25  C   UNL     1       7.702  22.324  52.929  1.00  0.00     0.024 A 
BRANCH  21  26
HETATM   26  C   UNL     1       6.939  24.302  56.102  1.00  0.00     0.253 C 
HETATM   27  N   UNL     1       8.002  24.858  56.768  1.00  0.00    -0.351 N 
HETATM   28  H   UNL     1       8.938  24.575  56.499  1.00  0.00     0.163 HD
HETATM   29  O   UNL     1       5.772  24.609  56.318  1.00  0.00    -0.268 OA
BRANCH  27  30
HETATM   30  C   UNL     1       7.830  25.853  57.797  1.00  0.00     0.187 C 
BRANCH  30  31
HETATM   31  C   UNL     1       7.967  27.197  57.192  1.00  0.00     0.070 A 
HETATM   32  O   UNL     1       8.209  28.227  58.049  1.00  0.00    -0.325 OA
HETATM   33  C   UNL     1       8.258  29.362  57.303  1.00  0.00     0.142 A 
HETATM   34  C   UNL     1       8.072  29.071  55.973  1.00  0.00     0.027 A 
HETATM   35  C   UNL     1       7.887  27.670  55.898  1.00  0.00     0.036 A 
ENDBRANCH  30  31
ENDBRANCH  27  30
ENDBRANCH  21  26
ENDBRANCH   1  20
TORSDOF 8
ENDMDL
MODEL 10
REMARK VINA RESULT:      -8.5      2.388      8.153
REMARK  8 active torsions:
REMARK  status: ('A' for Active; 'I' for Inactive)
REMARK    1  A    between atoms: O_2  and  C_3 
REMARK    2  A    between atoms: C_4  and  O_5 
REMARK    3  A    between atoms: C_13  and  C_14 
REMARK    4  A    between atoms: C_14  and  N_15 
REMARK    5  A    between atoms: N_15  and  C_16 
REMARK    6  A    between atoms: C_17  and  C_18 
REMARK       I    between atoms: C_18  and  N_19 
REMARK    7  A    between atoms: N_19  and  C_20 
REMARK    8  A    between atoms: C_20  and  C_21 
ROOT
HETATM    1  N   UNL     1       6.186  26.676  54.489  1.00  0.00    -0.285 NA
HETATM    2  H   UNL     1       5.314  26.345  54.059  1.00  0.00     0.128 HD
ENDROOT
BRANCH   1   3
HETATM    3  C   UNL     1       6.763  27.797  53.726  1.00  0.00     0.171 C 
BRANCH   3   4
HETATM    4  C   UNL     1       5.998  28.152  52.456  1.00  0.00     0.120 A 
HETATM    5  N   UNL     1       5.661  29.460  52.241  1.00  0.00    -0.310 N 
HETATM    6  C   UNL     1       4.986  29.884  51.122  1.00  0.00     0.259 A 
HETATM    7  H   UNL     1       5.937  30.178  52.900  1.00  0.00     0.170 HD
HETATM    8  C   UNL     1       4.642  28.840  50.146  1.00  0.00     0.064 A 
HETATM    9  O   UNL     1       4.690  31.055  50.926  1.00  0.00    -0.267 OA
HETATM   10  C   UNL     1       5.023  27.535  50.443  1.00  0.00     0.077 A 
HETATM   11  C   UNL     1       3.981  29.149  48.957  1.00  0.00     0.059 A 
HETATM   12  C   UNL     1       4.724  26.523  49.527  1.00  0.00     0.072 A 
HETATM   13  N   UNL     1       5.702  27.202  51.625  1.00  0.00    -0.233 NA
HETATM   14  C   UNL     1       4.048  26.810  48.332  1.00  0.00     0.103 A 
HETATM   15  C   UNL     1       3.709  28.140  48.032  1.00  0.00     0.102 A 
BRANCH  14  16
HETATM   16  O   UNL     1       3.735  25.831  47.425  1.00  0.00    -0.353 OA
HETATM   17  C   UNL     1       3.026  24.717  47.959  1.00  0.00     0.210 C 
ENDBRANCH  14  16
BRANCH  15  18
HETATM   18  O   UNL     1       3.049  28.574  46.911  1.00  0.00    -0.353 OA
HETATM   19  C   UNL     1       2.427  29.849  47.023  1.00  0.00     0.210 C 
ENDBRANCH  15  18
ENDBRANCH   3   4
ENDBRANCH   1   3
BRANCH   1  20
HETATM   20  C   UNL     1       7.017  25.529  54.671  1.00  0.00     0.024 A 
HETATM   21  C   UNL     1       7.659  25.280  55.912  1.00  0.00     0.053 A 
HETATM   22  C   UNL     1       8.452  24.130  56.094  1.00  0.00     0.019 A 
HETATM   23  C   UNL     1       8.645  23.225  55.057  1.00  0.00     0.001 A 
HETATM   24  C   UNL     1       8.045  23.461  53.829  1.00  0.00     0.002 A 
HETATM   25  C   UNL     1       7.246  24.595  53.640  1.00  0.00     0.024 A 
BRANCH  21  26
HETATM   26  C   UNL     1       7.592  26.195  57.087  1.00  0.00     0.253 C 
HETATM   27  N   UNL     1       7.689  27.536  56.813  1.00  0.00    -0.351 N 
HETATM   28  H   UNL     1       7.718  27.827  55.842  1.00  0.00     0.163 HD
HETATM   29  O   UNL     1       7.506  25.743  58.223  1.00  0.00    -0.268 OA
BRANCH  27  30
HETATM   30  C   UNL     1       7.710  28.535  57.853  1.00  0.00     0.187 C 
BRANCH  30  31
HETATM   31  C   UNL     1       8.919  29.372  57.688  1.00  0.00     0.070 A 
HETATM   32  O   UNL     1       9.930  28.840  56.948  1.00  0.00    -0.325 OA
HETATM   33  C   UNL     1      10.946  29.741  56.955  1.00  0.00     0.142 A 
HETATM   34  C   UNL     1      10.593  30.859  57.674  1.00  0.00     0.027 A 
HETATM   35  C   UNL     1       9.279  30.624  58.146  1.00  0.00     0.036 A 
ENDBRANCH  30  31
ENDBRANCH  27  30
ENDBRANCH  21  26
ENDBRANCH   1  20
TORSDOF 8
ENDMDL
