MODEL 1
REMARK VINA RESULT:     -12.4      0.000      0.000
REMARK  6 active torsions:
REMARK  status: ('A' for Active; 'I' for Inactive)
REMARK    1  A    between atoms: C_4  and  C_5 
REMARK    2  A    between atoms: N_8  and  C_9 
REMARK    3  A    between atoms: C_12  and  N_13 
REMARK       I    between atoms: N_13  and  C_14 
REMARK       I    between atoms: C_14  and  N_15 
REMARK    4  A    between atoms: N_15  and  C_16 
REMARK    5  A    between atoms: C_19  and  O_20 
REMARK    6  A    between atoms: O_20  and  C_21 
ROOT
HETATM    1  C   UNL     1       7.008  27.936  55.443  1.00  0.00     0.161 C 
HETATM    2  C   UNL     1       7.628  28.068  56.825  1.00  0.00     0.179 C 
HETATM    3  C   UNL     1       7.057  29.354  57.407  1.00  0.00     0.177 C 
HETATM    4  C   UNL     1       8.275  30.206  57.748  1.00  0.00     0.141 C 
HETATM    5  C   UNL     1       9.443  29.225  57.639  1.00  0.00     0.196 C 
HETATM    6  O   UNL     1       9.053  28.215  56.706  1.00  0.00    -0.379 OA
HETATM    7  O   UNL     1       6.247  29.952  56.375  1.00  0.00    -0.379 OA
HETATM    8  C   UNL     1       5.808  28.861  55.540  1.00  0.00     0.198 C 
ENDROOT
BRANCH   4   9
HETATM    9  N   UNL     1       8.241  30.906  59.030  1.00  0.00    -0.334 N 
HETATM   10  C   UNL     1       9.173  31.845  59.361  1.00  0.00     0.321 C 
HETATM   11  N   UNL     1       8.876  32.685  60.390  1.00  0.00    -0.309 N 
HETATM   12  O   UNL     1      10.194  32.031  58.704  1.00  0.00    -0.247 OA
HETATM   13  H   UNL     1       9.471  33.505  60.373  1.00  0.00     0.170 HD
HETATM   14  H   UNL     1       7.316  31.098  59.386  1.00  0.00     0.164 HD
BRANCH  11  15
HETATM   15  C   UNL     1       7.867  32.656  61.365  1.00  0.00     0.036 A 
HETATM   16  C   UNL     1       6.503  32.708  61.072  1.00  0.00     0.032 A 
HETATM   17  C   UNL     1       5.560  32.682  62.105  1.00  0.00     0.039 A 
HETATM   18  C   UNL     1       5.971  32.611  63.437  1.00  0.00     0.076 A 
HETATM   19  C   UNL     1       7.332  32.518  63.731  1.00  0.00     0.039 A 
HETATM   20  C   UNL     1       8.273  32.523  62.696  1.00  0.00     0.032 A 
BRANCH  18  21
HETATM   21  O   UNL     1       4.962  32.570  64.376  1.00  0.00    -0.311 OA
BRANCH  21  22
HETATM   22  C   UNL     1       4.722  33.719  65.088  1.00  0.00     0.076 A 
HETATM   23  C   UNL     1       4.043  34.778  64.487  1.00  0.00     0.037 A 
HETATM   24  C   UNL     1       3.765  35.927  65.228  1.00  0.00     0.003 A 
HETATM   25  C   UNL     1       4.162  36.008  66.565  1.00  0.00     0.000 A 
HETATM   26  C   UNL     1       4.823  34.935  67.167  1.00  0.00     0.003 A 
HETATM   27  C   UNL     1       5.091  33.781  66.432  1.00  0.00     0.037 A 
ENDBRANCH  21  22
ENDBRANCH  18  21
ENDBRANCH  11  15
ENDBRANCH   4   9
BRANCH   1  28
HETATM   28  N   UNL     1       6.736  26.568  55.083  1.00  0.00    -0.273 N 
HETATM   29  N   UNL     1       5.516  26.169  54.685  1.00  0.00     0.005 NA
HETATM   30  N   UNL     1       5.587  24.867  54.434  1.00  0.00    -0.158 NA
HETATM   31  C   UNL     1       6.876  24.450  54.659  1.00  0.00     0.101 A 
HETATM   32  C   UNL     1       7.630  25.537  55.041  1.00  0.00     0.142 A 
BRANCH  31  33
HETATM   33  C   UNL     1       7.336  23.082  54.504  1.00  0.00    -0.005 A 
HETATM   34  C   UNL     1       7.596  22.574  53.224  1.00  0.00     0.014 A 
HETATM   35  C   UNL     1       8.030  21.257  53.053  1.00  0.00     0.001 A 
HETATM   36  C   UNL     1       8.205  20.430  54.160  1.00  0.00     0.000 A 
HETATM   37  C   UNL     1       7.946  20.918  55.438  1.00  0.00     0.001 A 
HETATM   38  C   UNL     1       7.516  22.236  55.611  1.00  0.00     0.014 A 
ENDBRANCH  31  33
ENDBRANCH   1  28
TORSDOF 6
ENDMDL
MODEL 2
REMARK VINA RESULT:     -11.7      2.053     12.012
REMARK  6 active torsions:
REMARK  status: ('A' for Active; 'I' for Inactive)
REMARK    1  A    between atoms: C_4  and  C_5 
REMARK    2  A    between atoms: N_8  and  C_9 
REMARK    3  A    between atoms: C_12  and  N_13 
REMARK       I    between atoms: N_13  and  C_14 
REMARK       I    between atoms: C_14  and  N_15 
REMARK    4  A    between atoms: N_15  and  C_16 
REMARK    5  A    between atoms: C_19  and  O_20 
REMARK    6  A    between atoms: O_20  and  C_21 
ROOT
HETATM    1  C   UNL     1       8.138  30.930  58.640  1.00  0.00     0.161 C 
HETATM    2  C   UNL     1       7.017  30.048  58.114  1.00  0.00     0.179 C 
HETATM    3  C   UNL     1       7.630  29.244  56.976  1.00  0.00     0.177 C 
HETATM    4  C   UNL     1       6.761  29.554  55.762  1.00  0.00     0.141 C 
HETATM    5  C   UNL     1       5.538  30.247  56.363  1.00  0.00     0.196 C 
HETATM    6  O   UNL     1       5.964  30.868  57.578  1.00  0.00    -0.379 OA
HETATM    7  O   UNL     1       8.981  29.721  56.814  1.00  0.00    -0.379 OA
HETATM    8  C   UNL     1       9.374  30.232  58.103  1.00  0.00     0.198 C 
ENDROOT
BRANCH   4   9
HETATM    9  N   UNL     1       6.409  28.423  54.907  1.00  0.00    -0.334 N 
HETATM   10  C   UNL     1       5.542  28.554  53.862  1.00  0.00     0.321 C 
HETATM   11  N   UNL     1       5.543  27.569  52.923  1.00  0.00    -0.309 N 
HETATM   12  O   UNL     1       4.864  29.561  53.681  1.00  0.00    -0.247 OA
HETATM   13  H   UNL     1       5.101  27.883  52.067  1.00  0.00     0.170 HD
HETATM   14  H   UNL     1       7.155  27.763  54.745  1.00  0.00     0.164 HD
BRANCH  11  15
HETATM   15  C   UNL     1       6.114  26.287  52.907  1.00  0.00     0.036 A 
HETATM   16  C   UNL     1       5.466  25.143  53.376  1.00  0.00     0.032 A 
HETATM   17  C   UNL     1       6.111  23.902  53.331  1.00  0.00     0.039 A 
HETATM   18  C   UNL     1       7.407  23.795  52.824  1.00  0.00     0.076 A 
HETATM   19  C   UNL     1       8.041  24.930  52.317  1.00  0.00     0.039 A 
HETATM   20  C   UNL     1       7.388  26.166  52.344  1.00  0.00     0.032 A 
BRANCH  18  21
HETATM   21  O   UNL     1       7.943  22.525  52.806  1.00  0.00    -0.311 OA
BRANCH  21  22
HETATM   22  C   UNL     1       8.181  21.927  54.018  1.00  0.00     0.076 A 
HETATM   23  C   UNL     1       8.506  22.709  55.126  1.00  0.00     0.037 A 
HETATM   24  C   UNL     1       8.706  22.099  56.364  1.00  0.00     0.003 A 
HETATM   25  C   UNL     1       8.575  20.714  56.489  1.00  0.00     0.000 A 
HETATM   26  C   UNL     1       8.230  19.939  55.380  1.00  0.00     0.003 A 
HETATM   27  C   UNL     1       8.017  20.547  54.144  1.00  0.00     0.037 A 
ENDBRANCH  21  22
ENDBRANCH  18  21
ENDBRANCH  11  15
ENDBRANCH   4   9
BRANCH   1  28
HETATM   28  N   UNL     1       8.076  31.118  60.067  1.00  0.00    -0.273 N 
HETATM   29  N   UNL     1       8.839  30.403  60.910  1.00  0.00     0.005 NA
HETATM   30  N   UNL     1       8.549  30.800  62.143  1.00  0.00    -0.158 NA
HETATM   31  C   UNL     1       7.603  31.795  62.068  1.00  0.00     0.101 A 
HETATM   32  C   UNL     1       7.318  32.032  60.743  1.00  0.00     0.142 A 
BRANCH  31  33
HETATM   33  C   UNL     1       7.026  32.467  63.217  1.00  0.00    -0.005 A 
HETATM   34  C   UNL     1       5.633  32.530  63.361  1.00  0.00     0.014 A 
HETATM   35  C   UNL     1       5.056  33.180  64.455  1.00  0.00     0.001 A 
HETATM   36  C   UNL     1       5.866  33.780  65.417  1.00  0.00     0.000 A 
HETATM   37  C   UNL     1       7.251  33.730  65.287  1.00  0.00     0.001 A 
HETATM   38  C   UNL     1       7.829  33.076  64.195  1.00  0.00     0.014 A 
ENDBRANCH  31  33
ENDBRANCH   1  28
TORSDOF 6
ENDMDL
MODEL 3
REMARK VINA RESULT:     -11.2      1.837      2.513
REMARK  6 active torsions:
REMARK  status: ('A' for Active; 'I' for Inactive)
REMARK    1  A    between atoms: C_4  and  C_5 
REMARK    2  A    between atoms: N_8  and  C_9 
REMARK    3  A    between atoms: C_12  and  N_13 
REMARK       I    between atoms: N_13  and  C_14 
REMARK       I    between atoms: C_14  and  N_15 
REMARK    4  A    between atoms: N_15  and  C_16 
REMARK    5  A    between atoms: C_19  and  O_20 
REMARK    6  A    between atoms: O_20  and  C_21 
ROOT
HETATM    1  C   UNL     1       6.957  27.865  55.989  1.00  0.00     0.161 C 
HETATM    2  C   UNL     1       6.780  28.500  57.359  1.00  0.00     0.179 C 
HETATM    3  C   UNL     1       5.924  29.737  57.128  1.00  0.00     0.177 C 
HETATM    4  C   UNL     1       6.751  30.895  57.676  1.00  0.00     0.141 C 
HETATM    5  C   UNL     1       7.863  30.202  58.465  1.00  0.00     0.196 C 
HETATM    6  O   UNL     1       8.057  28.916  57.870  1.00  0.00    -0.379 OA
HETATM    7  O   UNL     1       5.721  29.840  55.704  1.00  0.00    -0.379 OA
HETATM    8  C   UNL     1       5.827  28.495  55.195  1.00  0.00     0.198 C 
ENDROOT
BRANCH   4   9
HETATM    9  N   UNL     1       6.033  31.892  58.466  1.00  0.00    -0.334 N 
HETATM   10  C   UNL     1       5.299  32.881  57.880  1.00  0.00     0.321 C 
HETATM   11  N   UNL     1       4.395  33.534  58.661  1.00  0.00    -0.309 N 
HETATM   12  O   UNL     1       5.339  33.116  56.676  1.00  0.00    -0.247 OA
HETATM   13  H   UNL     1       3.715  34.027  58.095  1.00  0.00     0.170 HD
HETATM   14  H   UNL     1       5.649  31.551  59.334  1.00  0.00     0.164 HD
BRANCH  11  15
HETATM   15  C   UNL     1       4.198  33.557  60.050  1.00  0.00     0.036 A 
HETATM   16  C   UNL     1       4.247  34.719  60.822  1.00  0.00     0.032 A 
HETATM   17  C   UNL     1       4.047  34.653  62.206  1.00  0.00     0.039 A 
HETATM   18  C   UNL     1       3.802  33.428  62.828  1.00  0.00     0.076 A 
HETATM   19  C   UNL     1       3.712  32.271  62.053  1.00  0.00     0.039 A 
HETATM   20  C   UNL     1       3.893  32.341  60.669  1.00  0.00     0.032 A 
BRANCH  18  21
HETATM   21  O   UNL     1       3.597  33.476  64.191  1.00  0.00    -0.311 OA
BRANCH  21  22
HETATM   22  C   UNL     1       4.695  33.708  64.982  1.00  0.00     0.076 A 
HETATM   23  C   UNL     1       4.531  34.252  66.255  1.00  0.00     0.037 A 
HETATM   24  C   UNL     1       5.647  34.448  67.069  1.00  0.00     0.003 A 
HETATM   25  C   UNL     1       6.917  34.092  66.609  1.00  0.00     0.000 A 
HETATM   26  C   UNL     1       7.072  33.528  65.341  1.00  0.00     0.003 A 
HETATM   27  C   UNL     1       5.957  33.320  64.529  1.00  0.00     0.037 A 
ENDBRANCH  21  22
ENDBRANCH  18  21
ENDBRANCH  11  15
ENDBRANCH   4   9
BRANCH   1  28
HETATM   28  N   UNL     1       6.979  26.425  56.041  1.00  0.00    -0.273 N 
HETATM   29  N   UNL     1       6.596  25.749  57.136  1.00  0.00     0.005 NA
HETATM   30  N   UNL     1       6.736  24.455  56.874  1.00  0.00    -0.158 NA
HETATM   31  C   UNL     1       7.195  24.320  55.587  1.00  0.00     0.101 A 
HETATM   32  C   UNL     1       7.321  25.572  55.030  1.00  0.00     0.142 A 
BRANCH  31  33
HETATM   33  C   UNL     1       7.484  23.049  54.947  1.00  0.00    -0.005 A 
HETATM   34  C   UNL     1       7.596  22.981  53.552  1.00  0.00     0.014 A 
HETATM   35  C   UNL     1       7.865  21.765  52.916  1.00  0.00     0.001 A 
HETATM   36  C   UNL     1       8.020  20.603  53.668  1.00  0.00     0.000 A 
HETATM   37  C   UNL     1       7.907  20.654  55.055  1.00  0.00     0.001 A 
HETATM   38  C   UNL     1       7.642  21.869  55.692  1.00  0.00     0.014 A 
ENDBRANCH  31  33
ENDBRANCH   1  28
TORSDOF 6
ENDMDL
MODEL 4
REMARK VINA RESULT:     -11.0      1.960     12.494
REMARK  6 active torsions:
REMARK  status: ('A' for Active; 'I' for Inactive)
REMARK    1  A    between atoms: C_4  and  C_5 
REMARK    2  A    between atoms: N_8  and  C_9 
REMARK    3  A    between atoms: C_12  and  N_13 
REMARK       I    between atoms: N_13  and  C_14 
REMARK       I    between atoms: C_14  and  N_15 
REMARK    4  A    between atoms: N_15  and  C_16 
REMARK    5  A    between atoms: C_19  and  O_20 
REMARK    6  A    between atoms: O_20  and  C_21 
ROOT
HETATM    1  C   UNL     1       7.469  32.803  60.691  1.00  0.00     0.161 C 
HETATM    2  C   UNL     1       6.521  31.707  60.231  1.00  0.00     0.179 C 
HETATM    3  C   UNL     1       7.250  30.981  59.109  1.00  0.00     0.177 C 
HETATM    4  C   UNL     1       6.314  31.072  57.908  1.00  0.00     0.141 C 
HETATM    5  C   UNL     1       4.996  31.553  58.515  1.00  0.00     0.196 C 
HETATM    6  O   UNL     1       5.324  32.294  59.693  1.00  0.00    -0.379 OA
HETATM    7  O   UNL     1       8.486  31.692  58.890  1.00  0.00    -0.379 OA
HETATM    8  C   UNL     1       8.802  32.322  60.148  1.00  0.00     0.198 C 
ENDROOT
BRANCH   4   9
HETATM    9  N   UNL     1       6.161  29.860  57.109  1.00  0.00    -0.334 N 
HETATM   10  C   UNL     1       5.721  29.900  55.818  1.00  0.00     0.321 C 
HETATM   11  N   UNL     1       5.941  28.799  55.048  1.00  0.00    -0.309 N 
HETATM   12  O   UNL     1       5.253  30.913  55.305  1.00  0.00    -0.247 OA
HETATM   13  H   UNL     1       5.853  29.021  54.063  1.00  0.00     0.170 HD
HETATM   14  H   UNL     1       6.846  29.141  57.290  1.00  0.00     0.164 HD
BRANCH  11  15
HETATM   15  C   UNL     1       6.349  27.495  55.369  1.00  0.00     0.036 A 
HETATM   16  C   UNL     1       7.609  27.179  55.876  1.00  0.00     0.032 A 
HETATM   17  C   UNL     1       7.940  25.850  56.162  1.00  0.00     0.039 A 
HETATM   18  C   UNL     1       7.016  24.827  55.937  1.00  0.00     0.076 A 
HETATM   19  C   UNL     1       5.741  25.145  55.468  1.00  0.00     0.039 A 
HETATM   20  C   UNL     1       5.406  26.476  55.202  1.00  0.00     0.032 A 
BRANCH  18  21
HETATM   21  O   UNL     1       7.433  23.556  56.272  1.00  0.00    -0.311 OA
BRANCH  21  22
HETATM   22  C   UNL     1       7.623  22.667  55.243  1.00  0.00     0.076 A 
HETATM   23  C   UNL     1       7.753  23.136  53.936  1.00  0.00     0.037 A 
HETATM   24  C   UNL     1       7.986  22.231  52.901  1.00  0.00     0.003 A 
HETATM   25  C   UNL     1       8.093  20.866  53.178  1.00  0.00     0.000 A 
HETATM   26  C   UNL     1       7.982  20.405  54.491  1.00  0.00     0.003 A 
HETATM   27  C   UNL     1       7.761  21.309  55.530  1.00  0.00     0.037 A 
ENDBRANCH  21  22
ENDBRANCH  18  21
ENDBRANCH  11  15
ENDBRANCH   4   9
BRANCH   1  28
HETATM   28  N   UNL     1       7.402  33.038  62.111  1.00  0.00    -0.273 N 
HETATM   29  N   UNL     1       8.317  32.537  62.956  1.00  0.00     0.005 NA
HETATM   30  N   UNL     1       7.979  32.920  64.181  1.00  0.00    -0.158 NA
HETATM   31  C   UNL     1       6.845  33.691  64.098  1.00  0.00     0.101 A 
HETATM   32  C   UNL     1       6.485  33.803  62.774  1.00  0.00     0.142 A 
BRANCH  31  33
HETATM   33  C   UNL     1       6.165  34.279  65.238  1.00  0.00    -0.005 A 
HETATM   34  C   UNL     1       6.632  34.023  66.535  1.00  0.00     0.014 A 
HETATM   35  C   UNL     1       5.987  34.572  67.646  1.00  0.00     0.001 A 
HETATM   36  C   UNL     1       4.864  35.379  67.475  1.00  0.00     0.000 A 
HETATM   37  C   UNL     1       4.386  35.639  66.193  1.00  0.00     0.001 A 
HETATM   38  C   UNL     1       5.033  35.094  65.080  1.00  0.00     0.014 A 
ENDBRANCH  31  33
ENDBRANCH   1  28
TORSDOF 6
ENDMDL
MODEL 5
REMARK VINA RESULT:     -10.8      2.770     12.674
REMARK  6 active torsions:
REMARK  status: ('A' for Active; 'I' for Inactive)
REMARK    1  A    between atoms: C_4  and  C_5 
REMARK    2  A    between atoms: N_8  and  C_9 
REMARK    3  A    between atoms: C_12  and  N_13 
REMARK       I    between atoms: N_13  and  C_14 
REMARK       I    between atoms: C_14  and  N_15 
REMARK    4  A    between atoms: N_15  and  C_16 
REMARK    5  A    between atoms: C_19  and  O_20 
REMARK    6  A    between atoms: O_20  and  C_21 
ROOT
HETATM    1  C   UNL     1       6.822  33.415  63.142  1.00  0.00     0.161 C 
HETATM    2  C   UNL     1       5.835  32.677  62.252  1.00  0.00     0.179 C 
HETATM    3  C   UNL     1       6.685  31.846  61.301  1.00  0.00     0.177 C 
HETATM    4  C   UNL     1       6.258  32.287  59.905  1.00  0.00     0.141 C 
HETATM    5  C   UNL     1       4.981  33.090  60.155  1.00  0.00     0.196 C 
HETATM    6  O   UNL     1       5.076  33.622  61.479  1.00  0.00    -0.379 OA
HETATM    7  O   UNL     1       8.061  32.179  61.578  1.00  0.00    -0.379 OA
HETATM    8  C   UNL     1       8.091  32.604  62.955  1.00  0.00     0.198 C 
ENDROOT
BRANCH   4   9
HETATM    9  N   UNL     1       6.076  31.228  58.915  1.00  0.00    -0.334 N 
HETATM   10  C   UNL     1       5.834  31.504  57.602  1.00  0.00     0.321 C 
HETATM   11  N   UNL     1       6.028  30.499  56.705  1.00  0.00    -0.309 N 
HETATM   12  O   UNL     1       5.569  32.633  57.196  1.00  0.00    -0.247 OA
HETATM   13  H   UNL     1       6.109  30.863  55.763  1.00  0.00     0.170 HD
HETATM   14  H   UNL     1       6.636  30.402  59.067  1.00  0.00     0.164 HD
BRANCH  11  15
HETATM   15  C   UNL     1       6.225  29.119  56.870  1.00  0.00     0.036 A 
HETATM   16  C   UNL     1       7.448  28.547  57.224  1.00  0.00     0.032 A 
HETATM   17  C   UNL     1       7.562  27.159  57.359  1.00  0.00     0.039 A 
HETATM   18  C   UNL     1       6.459  26.333  57.136  1.00  0.00     0.076 A 
HETATM   19  C   UNL     1       5.226  26.905  56.821  1.00  0.00     0.039 A 
HETATM   20  C   UNL     1       5.109  28.294  56.706  1.00  0.00     0.032 A 
BRANCH  18  21
HETATM   21  O   UNL     1       6.672  24.982  57.316  1.00  0.00    -0.311 OA
BRANCH  21  22
HETATM   22  C   UNL     1       7.246  24.294  56.276  1.00  0.00     0.076 A 
HETATM   23  C   UNL     1       8.355  23.482  56.509  1.00  0.00     0.037 A 
HETATM   24  C   UNL     1       8.908  22.754  55.455  1.00  0.00     0.003 A 
HETATM   25  C   UNL     1       8.346  22.836  54.179  1.00  0.00     0.000 A 
HETATM   26  C   UNL     1       7.223  23.635  53.957  1.00  0.00     0.003 A 
HETATM   27  C   UNL     1       6.660  24.355  55.010  1.00  0.00     0.037 A 
ENDBRANCH  21  22
ENDBRANCH  18  21
ENDBRANCH  11  15
ENDBRANCH   4   9
BRANCH   1  28
HETATM   28  N   UNL     1       6.348  33.565  64.495  1.00  0.00    -0.273 N 
HETATM   29  N   UNL     1       5.078  33.293  64.835  1.00  0.00     0.005 NA
HETATM   30  N   UNL     1       4.955  33.532  66.135  1.00  0.00    -0.158 NA
HETATM   31  C   UNL     1       6.174  33.941  66.619  1.00  0.00     0.101 A 
HETATM   32  C   UNL     1       7.083  33.932  65.586  1.00  0.00     0.142 A 
BRANCH  31  33
HETATM   33  C   UNL     1       6.427  34.309  68.000  1.00  0.00    -0.005 A 
HETATM   34  C   UNL     1       7.717  34.691  68.394  1.00  0.00     0.014 A 
HETATM   35  C   UNL     1       7.985  35.040  69.720  1.00  0.00     0.001 A 
HETATM   36  C   UNL     1       6.966  35.007  70.670  1.00  0.00     0.000 A 
HETATM   37  C   UNL     1       5.681  34.626  70.295  1.00  0.00     0.001 A 
HETATM   38  C   UNL     1       5.411  34.280  68.968  1.00  0.00     0.014 A 
ENDBRANCH  31  33
ENDBRANCH   1  28
TORSDOF 6
ENDMDL
MODEL 6
REMARK VINA RESULT:     -10.8      2.719     12.157
REMARK  6 active torsions:
REMARK  status: ('A' for Active; 'I' for Inactive)
REMARK    1  A    between atoms: C_4  and  C_5 
REMARK    2  A    between atoms: N_8  and  C_9 
REMARK    3  A    between atoms: C_12  and  N_13 
REMARK       I    between atoms: N_13  and  C_14 
REMARK       I    between atoms: C_14  and  N_15 
REMARK    4  A    between atoms: N_15  and  C_16 
REMARK    5  A    between atoms: C_19  and  O_20 
REMARK    6  A    between atoms: O_20  and  C_21 
ROOT
HETATM    1  C   UNL     1       5.233  31.370  57.705  1.00  0.00     0.161 C 
HETATM    2  C   UNL     1       5.579  29.925  57.379  1.00  0.00     0.179 C 
HETATM    3  C   UNL     1       5.439  29.803  55.868  1.00  0.00     0.177 C 
HETATM    4  C   UNL     1       4.427  28.682  55.656  1.00  0.00     0.141 C 
HETATM    5  C   UNL     1       4.312  28.035  57.037  1.00  0.00     0.196 C 
HETATM    6  O   UNL     1       4.625  29.046  57.998  1.00  0.00    -0.379 OA
HETATM    7  O   UNL     1       4.949  31.074  55.394  1.00  0.00    -0.379 OA
HETATM    8  C   UNL     1       5.394  32.049  56.357  1.00  0.00     0.198 C 
ENDROOT
BRANCH   4   9
HETATM    9  N   UNL     1       4.735  27.717  54.603  1.00  0.00    -0.334 N 
HETATM   10  C   UNL     1       4.280  27.875  53.327  1.00  0.00     0.321 C 
HETATM   11  N   UNL     1       4.889  27.147  52.352  1.00  0.00    -0.309 N 
HETATM   12  O   UNL     1       3.441  28.717  53.019  1.00  0.00    -0.247 OA
HETATM   13  H   UNL     1       4.695  27.534  51.435  1.00  0.00     0.170 HD
HETATM   14  H   UNL     1       5.650  27.296  54.666  1.00  0.00     0.164 HD
BRANCH  11  15
HETATM   15  C   UNL     1       5.780  26.064  52.405  1.00  0.00     0.036 A 
HETATM   16  C   UNL     1       7.140  26.163  52.111  1.00  0.00     0.032 A 
HETATM   17  C   UNL     1       7.959  25.030  52.180  1.00  0.00     0.039 A 
HETATM   18  C   UNL     1       7.425  23.791  52.539  1.00  0.00     0.076 A 
HETATM   19  C   UNL     1       6.073  23.698  52.873  1.00  0.00     0.039 A 
HETATM   20  C   UNL     1       5.260  24.835  52.822  1.00  0.00     0.032 A 
BRANCH  18  21
HETATM   21  O   UNL     1       8.320  22.744  52.598  1.00  0.00    -0.311 OA
BRANCH  21  22
HETATM   22  C   UNL     1       8.429  22.079  53.793  1.00  0.00     0.076 A 
HETATM   23  C   UNL     1       8.639  22.796  54.970  1.00  0.00     0.037 A 
HETATM   24  C   UNL     1       8.708  22.118  56.187  1.00  0.00     0.003 A 
HETATM   25  C   UNL     1       8.559  20.729  56.221  1.00  0.00     0.000 A 
HETATM   26  C   UNL     1       8.328  20.019  55.041  1.00  0.00     0.003 A 
HETATM   27  C   UNL     1       8.247  20.696  53.824  1.00  0.00     0.037 A 
ENDBRANCH  21  22
ENDBRANCH  18  21
ENDBRANCH  11  15
ENDBRANCH   4   9
BRANCH   1  28
HETATM   28  N   UNL     1       6.020  31.900  58.789  1.00  0.00    -0.273 N 
HETATM   29  N   UNL     1       7.346  32.081  58.679  1.00  0.00     0.005 NA
HETATM   30  N   UNL     1       7.777  32.572  59.835  1.00  0.00    -0.158 NA
HETATM   31  C   UNL     1       6.699  32.718  60.674  1.00  0.00     0.101 A 
HETATM   32  C   UNL     1       5.563  32.324  60.004  1.00  0.00     0.142 A 
BRANCH  31  33
HETATM   33  C   UNL     1       6.780  33.213  62.036  1.00  0.00    -0.005 A 
HETATM   34  C   UNL     1       7.645  32.599  62.951  1.00  0.00     0.014 A 
HETATM   35  C   UNL     1       7.731  33.055  64.270  1.00  0.00     0.001 A 
HETATM   36  C   UNL     1       6.949  34.128  64.690  1.00  0.00     0.000 A 
HETATM   37  C   UNL     1       6.082  34.747  63.794  1.00  0.00     0.001 A 
HETATM   38  C   UNL     1       5.997  34.294  62.474  1.00  0.00     0.014 A 
ENDBRANCH  31  33
ENDBRANCH   1  28
TORSDOF 6
ENDMDL
MODEL 7
REMARK VINA RESULT:     -10.2      2.939     12.147
REMARK  6 active torsions:
REMARK  status: ('A' for Active; 'I' for Inactive)
REMARK    1  A    between atoms: C_4  and  C_5 
REMARK    2  A    between atoms: N_8  and  C_9 
REMARK    3  A    between atoms: C_12  and  N_13 
REMARK       I    between atoms: N_13  and  C_14 
REMARK       I    between atoms: C_14  and  N_15 
REMARK    4  A    between atoms: N_15  and  C_16 
REMARK    5  A    between atoms: C_19  and  O_20 
REMARK    6  A    between atoms: O_20  and  C_21 
ROOT
HETATM    1  C   UNL     1       4.164  33.195  58.141  1.00  0.00     0.161 C 
HETATM    2  C   UNL     1       4.293  31.680  58.122  1.00  0.00     0.179 C 
HETATM    3  C   UNL     1       4.791  31.331  56.726  1.00  0.00     0.177 C 
HETATM    4  C   UNL     1       3.751  30.365  56.168  1.00  0.00     0.141 C 
HETATM    5  C   UNL     1       2.919  29.985  57.393  1.00  0.00     0.196 C 
HETATM    6  O   UNL     1       3.001  31.080  58.309  1.00  0.00    -0.379 OA
HETATM    7  O   UNL     1       4.840  32.566  55.983  1.00  0.00    -0.379 OA
HETATM    8  C   UNL     1       5.029  33.606  56.963  1.00  0.00     0.198 C 
ENDROOT
BRANCH   4   9
HETATM    9  N   UNL     1       4.263  29.202  55.448  1.00  0.00    -0.334 N 
HETATM   10  C   UNL     1       4.075  29.046  54.106  1.00  0.00     0.321 C 
HETATM   11  N   UNL     1       4.867  28.144  53.465  1.00  0.00    -0.309 N 
HETATM   12  O   UNL     1       3.318  29.758  53.453  1.00  0.00    -0.247 OA
HETATM   13  H   UNL     1       4.862  28.304  52.464  1.00  0.00     0.170 HD
HETATM   14  H   UNL     1       5.145  28.847  55.786  1.00  0.00     0.164 HD
BRANCH  11  15
HETATM   15  C   UNL     1       5.725  27.141  53.942  1.00  0.00     0.036 A 
HETATM   16  C   UNL     1       5.348  26.177  54.877  1.00  0.00     0.032 A 
HETATM   17  C   UNL     1       6.270  25.216  55.307  1.00  0.00     0.039 A 
HETATM   18  C   UNL     1       7.575  25.215  54.811  1.00  0.00     0.076 A 
HETATM   19  C   UNL     1       7.943  26.153  53.846  1.00  0.00     0.039 A 
HETATM   20  C   UNL     1       7.015  27.101  53.403  1.00  0.00     0.032 A 
BRANCH  18  21
HETATM   21  O   UNL     1       8.397  24.214  55.284  1.00  0.00    -0.311 OA
BRANCH  21  22
HETATM   22  C   UNL     1       8.231  22.961  54.748  1.00  0.00     0.076 A 
HETATM   23  C   UNL     1       8.075  21.861  55.590  1.00  0.00     0.037 A 
HETATM   24  C   UNL     1       7.866  20.597  55.039  1.00  0.00     0.003 A 
HETATM   25  C   UNL     1       7.807  20.441  53.652  1.00  0.00     0.000 A 
HETATM   26  C   UNL     1       7.943  21.550  52.815  1.00  0.00     0.003 A 
HETATM   27  C   UNL     1       8.140  22.817  53.362  1.00  0.00     0.037 A 
ENDBRANCH  21  22
ENDBRANCH  18  21
ENDBRANCH  11  15
ENDBRANCH   4   9
BRANCH   1  28
HETATM   28  N   UNL     1       4.505  33.767  59.419  1.00  0.00    -0.273 N 
HETATM   29  N   UNL     1       4.143  35.016  59.755  1.00  0.00     0.005 NA
HETATM   30  N   UNL     1       4.607  35.248  60.977  1.00  0.00    -0.158 NA
HETATM   31  C   UNL     1       5.252  34.118  61.419  1.00  0.00     0.101 A 
HETATM   32  C   UNL     1       5.163  33.151  60.444  1.00  0.00     0.142 A 
BRANCH  31  33
HETATM   33  C   UNL     1       5.905  33.997  62.710  1.00  0.00    -0.005 A 
HETATM   34  C   UNL     1       7.070  33.228  62.832  1.00  0.00     0.014 A 
HETATM   35  C   UNL     1       7.709  33.091  64.068  1.00  0.00     0.001 A 
HETATM   36  C   UNL     1       7.187  33.718  65.197  1.00  0.00     0.000 A 
HETATM   37  C   UNL     1       6.028  34.482  65.093  1.00  0.00     0.001 A 
HETATM   38  C   UNL     1       5.390  34.623  63.857  1.00  0.00     0.014 A 
ENDBRANCH  31  33
ENDBRANCH   1  28
TORSDOF 6
ENDMDL
MODEL 8
REMARK VINA RESULT:     -10.1      8.441     12.596
REMARK  6 active torsions:
REMARK  status: ('A' for Active; 'I' for Inactive)
REMARK    1  A    between atoms: C_4  and  C_5 
REMARK    2  A    between atoms: N_8  and  C_9 
REMARK    3  A    between atoms: C_12  and  N_13 
REMARK       I    between atoms: N_13  and  C_14 
REMARK       I    between atoms: C_14  and  N_15 
REMARK    4  A    between atoms: N_15  and  C_16 
REMARK    5  A    between atoms: C_19  and  O_20 
REMARK    6  A    between atoms: O_20  and  C_21 
ROOT
HETATM    1  C   UNL     1       4.961  26.689  52.609  1.00  0.00     0.161 C 
HETATM    2  C   UNL     1       5.521  27.368  51.369  1.00  0.00     0.179 C 
HETATM    3  C   UNL     1       4.917  28.765  51.360  1.00  0.00     0.177 C 
HETATM    4  C   UNL     1       4.202  28.876  50.018  1.00  0.00     0.141 C 
HETATM    5  C   UNL     1       4.719  27.670  49.233  1.00  0.00     0.196 C 
HETATM    6  O   UNL     1       5.077  26.671  50.192  1.00  0.00    -0.379 OA
HETATM    7  O   UNL     1       4.000  28.827  52.471  1.00  0.00    -0.379 OA
HETATM    8  C   UNL     1       4.488  27.872  53.435  1.00  0.00     0.198 C 
ENDROOT
BRANCH   4   9
HETATM    9  N   UNL     1       4.366  30.135  49.295  1.00  0.00    -0.334 N 
HETATM   10  C   UNL     1       3.584  31.222  49.555  1.00  0.00     0.321 C 
HETATM   11  N   UNL     1       4.022  32.429  49.106  1.00  0.00    -0.309 N 
HETATM   12  O   UNL     1       2.584  31.168  50.265  1.00  0.00    -0.247 OA
HETATM   13  H   UNL     1       3.549  33.188  49.583  1.00  0.00     0.170 HD
HETATM   14  H   UNL     1       5.317  30.361  49.044  1.00  0.00     0.164 HD
BRANCH  11  15
HETATM   15  C   UNL     1       5.042  32.784  48.209  1.00  0.00     0.036 A 
HETATM   16  C   UNL     1       6.289  33.270  48.604  1.00  0.00     0.032 A 
HETATM   17  C   UNL     1       7.248  33.609  47.644  1.00  0.00     0.039 A 
HETATM   18  C   UNL     1       6.968  33.471  46.283  1.00  0.00     0.076 A 
HETATM   19  C   UNL     1       5.737  32.947  45.887  1.00  0.00     0.039 A 
HETATM   20  C   UNL     1       4.786  32.590  46.848  1.00  0.00     0.032 A 
BRANCH  18  21
HETATM   21  O   UNL     1       7.988  33.813  45.421  1.00  0.00    -0.311 OA
BRANCH  21  22
HETATM   22  C   UNL     1       7.780  34.893  44.600  1.00  0.00     0.076 A 
HETATM   23  C   UNL     1       8.182  36.164  45.010  1.00  0.00     0.037 A 
HETATM   24  C   UNL     1       8.004  37.251  44.154  1.00  0.00     0.003 A 
HETATM   25  C   UNL     1       7.433  37.061  42.894  1.00  0.00     0.000 A 
HETATM   26  C   UNL     1       7.052  35.783  42.482  1.00  0.00     0.003 A 
HETATM   27  C   UNL     1       7.239  34.692  43.330  1.00  0.00     0.037 A 
ENDBRANCH  21  22
ENDBRANCH  18  21
ENDBRANCH  11  15
ENDBRANCH   4   9
BRANCH   1  28
HETATM   28  N   UNL     1       5.910  25.806  53.237  1.00  0.00    -0.273 N 
HETATM   29  N   UNL     1       6.890  26.267  54.031  1.00  0.00     0.005 NA
HETATM   30  N   UNL     1       7.591  25.220  54.446  1.00  0.00    -0.158 NA
HETATM   31  C   UNL     1       7.028  24.083  53.919  1.00  0.00     0.101 A 
HETATM   32  C   UNL     1       5.930  24.442  53.171  1.00  0.00     0.142 A 
BRANCH  31  33
HETATM   33  C   UNL     1       7.532  22.739  54.138  1.00  0.00    -0.005 A 
HETATM   34  C   UNL     1       7.949  21.965  53.047  1.00  0.00     0.014 A 
HETATM   35  C   UNL     1       8.429  20.666  53.236  1.00  0.00     0.001 A 
HETATM   36  C   UNL     1       8.492  20.123  54.518  1.00  0.00     0.000 A 
HETATM   37  C   UNL     1       8.077  20.879  55.611  1.00  0.00     0.001 A 
HETATM   38  C   UNL     1       7.601  22.179  55.424  1.00  0.00     0.014 A 
ENDBRANCH  31  33
ENDBRANCH   1  28
TORSDOF 6
ENDMDL
MODEL 9
REMARK VINA RESULT:      -9.4      7.559      9.045
REMARK  6 active torsions:
REMARK  status: ('A' for Active; 'I' for Inactive)
REMARK    1  A    between atoms: C_4  and  C_5 
REMARK    2  A    between atoms: N_8  and  C_9 
REMARK    3  A    between atoms: C_12  and  N_13 
REMARK       I    between atoms: N_13  and  C_14 
REMARK       I    between atoms: C_14  and  N_15 
REMARK    4  A    between atoms: N_15  and  C_16 
REMARK    5  A    between atoms: C_19  and  O_20 
REMARK    6  A    between atoms: O_20  and  C_21 
ROOT
HETATM    1  C   UNL     1       5.266  26.841  53.233  1.00  0.00     0.161 C 
HETATM    2  C   UNL     1       5.727  28.065  52.457  1.00  0.00     0.179 C 
HETATM    3  C   UNL     1       5.169  29.262  53.215  1.00  0.00     0.177 C 
HETATM    4  C   UNL     1       4.333  30.021  52.190  1.00  0.00     0.141 C 
HETATM    5  C   UNL     1       4.736  29.388  50.857  1.00  0.00     0.196 C 
HETATM    6  O   UNL     1       5.152  28.050  51.140  1.00  0.00    -0.379 OA
HETATM    7  O   UNL     1       4.365  28.734  54.288  1.00  0.00    -0.379 OA
HETATM    8  C   UNL     1       4.912  27.433  54.585  1.00  0.00     0.198 C 
ENDROOT
BRANCH   4   9
HETATM    9  N   UNL     1       4.467  31.475  52.189  1.00  0.00    -0.334 N 
HETATM   10  C   UNL     1       3.805  32.260  53.087  1.00  0.00     0.321 C 
HETATM   11  N   UNL     1       4.247  33.537  53.248  1.00  0.00    -0.309 N 
HETATM   12  O   UNL     1       2.921  31.829  53.823  1.00  0.00    -0.247 OA
HETATM   13  H   UNL     1       3.900  33.935  54.113  1.00  0.00     0.170 HD
HETATM   14  H   UNL     1       5.382  31.819  51.937  1.00  0.00     0.164 HD
BRANCH  11  15
HETATM   15  C   UNL     1       5.140  34.322  52.503  1.00  0.00     0.036 A 
HETATM   16  C   UNL     1       4.987  34.594  51.143  1.00  0.00     0.032 A 
HETATM   17  C   UNL     1       5.930  35.381  50.472  1.00  0.00     0.039 A 
HETATM   18  C   UNL     1       7.035  35.895  51.153  1.00  0.00     0.076 A 
HETATM   19  C   UNL     1       7.169  35.658  52.521  1.00  0.00     0.039 A 
HETATM   20  C   UNL     1       6.216  34.889  53.195  1.00  0.00     0.032 A 
BRANCH  18  21
HETATM   21  O   UNL     1       7.892  36.674  50.405  1.00  0.00    -0.311 OA
BRANCH  21  22
HETATM   22  C   UNL     1       8.523  37.709  51.050  1.00  0.00     0.076 A 
HETATM   23  C   UNL     1       9.900  37.658  51.262  1.00  0.00     0.037 A 
HETATM   24  C   UNL     1      10.541  38.731  51.882  1.00  0.00     0.003 A 
HETATM   25  C   UNL     1       9.804  39.849  52.278  1.00  0.00     0.000 A 
HETATM   26  C   UNL     1       8.429  39.903  52.044  1.00  0.00     0.003 A 
HETATM   27  C   UNL     1       7.787  38.837  51.414  1.00  0.00     0.037 A 
ENDBRANCH  21  22
ENDBRANCH  18  21
ENDBRANCH  11  15
ENDBRANCH   4   9
BRANCH   1  28
HETATM   28  N   UNL     1       6.243  25.781  53.233  1.00  0.00    -0.273 N 
HETATM   29  N   UNL     1       7.391  25.876  52.541  1.00  0.00     0.005 NA
HETATM   30  N   UNL     1       8.066  24.749  52.737  1.00  0.00    -0.158 NA
HETATM   31  C   UNL     1       7.337  23.947  53.580  1.00  0.00     0.101 A 
HETATM   32  C   UNL     1       6.184  24.611  53.933  1.00  0.00     0.142 A 
BRANCH  31  33
HETATM   33  C   UNL     1       7.747  22.623  54.012  1.00  0.00    -0.005 A 
HETATM   34  C   UNL     1       8.044  21.640  53.059  1.00  0.00     0.014 A 
HETATM   35  C   UNL     1       8.432  20.356  53.454  1.00  0.00     0.001 A 
HETATM   36  C   UNL     1       8.522  20.039  54.807  1.00  0.00     0.000 A 
HETATM   37  C   UNL     1       8.226  21.004  55.767  1.00  0.00     0.001 A 
HETATM   38  C   UNL     1       7.841  22.289  55.373  1.00  0.00     0.014 A 
ENDBRANCH  31  33
ENDBRANCH   1  28
TORSDOF 6
ENDMDL
MODEL 10
REMARK VINA RESULT:      -9.4      8.549     11.238
REMARK  6 active torsions:
REMARK  status: ('A' for Active; 'I' for Inactive)
REMARK    1  A    between atoms: C_4  and  C_5 
REMARK    2  A    between atoms: N_8  and  C_9 
REMARK    3  A    between atoms: C_12  and  N_13 
REMARK       I    between atoms: N_13  and  C_14 
REMARK       I    between atoms: C_14  and  N_15 
REMARK    4  A    between atoms: N_15  and  C_16 
REMARK    5  A    between atoms: C_19  and  O_20 
REMARK    6  A    between atoms: O_20  and  C_21 
ROOT
HETATM    1  C   UNL     1       4.850  26.374  52.705  1.00  0.00     0.161 C 
HETATM    2  C   UNL     1       5.460  26.757  51.366  1.00  0.00     0.179 C 
HETATM    3  C   UNL     1       5.046  28.203  51.128  1.00  0.00     0.177 C 
HETATM    4  C   UNL     1       4.314  28.188  49.790  1.00  0.00     0.141 C 
HETATM    5  C   UNL     1       4.644  26.810  49.215  1.00  0.00     0.196 C 
HETATM    6  O   UNL     1       4.894  25.943  50.324  1.00  0.00    -0.379 OA
HETATM    7  O   UNL     1       4.177  28.570  52.219  1.00  0.00    -0.379 OA
HETATM    8  C   UNL     1       4.562  27.729  53.325  1.00  0.00     0.198 C 
ENDROOT
BRANCH   4   9
HETATM    9  N   UNL     1       4.623  29.276  48.867  1.00  0.00    -0.334 N 
HETATM   10  C   UNL     1       3.871  29.510  47.753  1.00  0.00     0.321 C 
HETATM   11  N   UNL     1       4.002  30.724  47.153  1.00  0.00    -0.309 N 
HETATM   12  O   UNL     1       3.014  28.727  47.351  1.00  0.00    -0.247 OA
HETATM   13  H   UNL     1       3.220  30.912  46.536  1.00  0.00     0.170 HD
HETATM   14  H   UNL     1       4.991  30.110  49.300  1.00  0.00     0.164 HD
BRANCH  11  15
HETATM   15  C   UNL     1       4.941  31.755  47.315  1.00  0.00     0.036 A 
HETATM   16  C   UNL     1       5.456  32.149  48.551  1.00  0.00     0.032 A 
HETATM   17  C   UNL     1       6.384  33.193  48.625  1.00  0.00     0.039 A 
HETATM   18  C   UNL     1       6.800  33.855  47.468  1.00  0.00     0.076 A 
HETATM   19  C   UNL     1       6.318  33.436  46.228  1.00  0.00     0.039 A 
HETATM   20  C   UNL     1       5.406  32.379  46.153  1.00  0.00     0.032 A 
BRANCH  18  21
HETATM   21  O   UNL     1       7.733  34.854  47.649  1.00  0.00    -0.311 OA
BRANCH  21  22
HETATM   22  C   UNL     1       7.321  35.983  48.313  1.00  0.00     0.076 A 
HETATM   23  C   UNL     1       6.347  36.804  47.748  1.00  0.00     0.037 A 
HETATM   24  C   UNL     1       5.904  37.927  48.447  1.00  0.00     0.003 A 
HETATM   25  C   UNL     1       6.432  38.218  49.707  1.00  0.00     0.000 A 
HETATM   26  C   UNL     1       7.393  37.380  50.276  1.00  0.00     0.003 A 
HETATM   27  C   UNL     1       7.829  36.250  49.585  1.00  0.00     0.037 A 
ENDBRANCH  21  22
ENDBRANCH  18  21
ENDBRANCH  11  15
ENDBRANCH   4   9
BRANCH   1  28
HETATM   28  N   UNL     1       5.691  25.485  53.466  1.00  0.00    -0.273 N 
HETATM   29  N   UNL     1       6.171  25.825  54.674  1.00  0.00     0.005 NA
HETATM   30  N   UNL     1       6.908  24.810  55.108  1.00  0.00    -0.158 NA
HETATM   31  C   UNL     1       6.870  23.811  54.166  1.00  0.00     0.101 A 
HETATM   32  C   UNL     1       6.066  24.217  53.126  1.00  0.00     0.142 A 
BRANCH  31  33
HETATM   33  C   UNL     1       7.571  22.545  54.282  1.00  0.00    -0.005 A 
HETATM   34  C   UNL     1       8.105  22.155  55.518  1.00  0.00     0.014 A 
HETATM   35  C   UNL     1       8.791  20.945  55.650  1.00  0.00     0.001 A 
HETATM   36  C   UNL     1       8.957  20.113  54.546  1.00  0.00     0.000 A 
HETATM   37  C   UNL     1       8.437  20.488  53.310  1.00  0.00     0.001 A 
HETATM   38  C   UNL     1       7.747  21.696  53.178  1.00  0.00     0.014 A 
ENDBRANCH  31  33
ENDBRANCH   1  28
TORSDOF 6
ENDMDL
