MODEL 1
REMARK VINA RESULT:     -10.1      0.000      0.000
REMARK  6 active torsions:
REMARK  status: ('A' for Active; 'I' for Inactive)
REMARK    1  A    between atoms: C_2  and  O_3 
REMARK    2  A    between atoms: C_2  and  C_4 
REMARK    3  A    between atoms: C_7  and  N_8 
REMARK       I    between atoms: N_8  and  C_9 
REMARK    4  A    between atoms: C_9  and  C_10 
REMARK    5  A    between atoms: C_13  and  C_14 
REMARK    6  A    between atoms: C_19  and  C_20 
ROOT
HETATM    1  C   UNL     1       6.389  27.889  54.591  1.00  0.00     0.096 A 
HETATM    2  C   UNL     1       6.838  26.906  53.726  1.00  0.00     0.138 A 
HETATM    3  N   UNL     1       5.718  26.439  53.074  1.00  0.00    -0.240 N 
HETATM    4  C   UNL     1       5.731  25.457  52.006  1.00  0.00     0.221 C 
HETATM    5  C   UNL     1       7.175  25.229  51.510  1.00  0.00     0.066 C 
HETATM    6  C   UNL     1       8.156  25.130  52.688  1.00  0.00     0.118 C 
HETATM    7  N   UNL     1       8.079  26.408  53.432  1.00  0.00    -0.365 N 
HETATM    8  N   UNL     1       4.573  26.964  53.528  1.00  0.00    -0.181 NA
HETATM    9  C   UNL     1       4.981  27.866  54.424  1.00  0.00     0.160 A 
HETATM   10  H   UNL     1       8.761  27.085  53.079  1.00  0.00     0.161 HD
ENDROOT
BRANCH   1  11
HETATM   11  C   UNL     1       7.116  28.764  55.500  1.00  0.00     0.261 C 
HETATM   12  N   UNL     1       6.346  29.277  56.526  1.00  0.00    -0.323 N 
HETATM   13  H   UNL     1       5.357  29.068  56.470  1.00  0.00     0.169 HD
HETATM   14  O   UNL     1       8.310  28.973  55.323  1.00  0.00    -0.267 OA
BRANCH  12  15
HETATM   15  C   UNL     1       6.786  30.014  57.643  1.00  0.00     0.035 A 
HETATM   16  C   UNL     1       6.225  31.226  58.047  1.00  0.00     0.030 A 
HETATM   17  C   UNL     1       6.749  31.933  59.138  1.00  0.00     0.012 A 
HETATM   18  C   UNL     1       7.852  31.450  59.852  1.00  0.00    -0.030 A 
HETATM   19  C   UNL     1       8.399  30.221  59.448  1.00  0.00     0.012 A 
HETATM   20  C   UNL     1       7.870  29.509  58.365  1.00  0.00     0.030 A 
BRANCH  18  21
HETATM   21  C   UNL     1       8.497  32.205  60.997  1.00  0.00     0.147 C 
HETATM   22  C   UNL     1       8.368  31.581  62.384  1.00  0.00     0.044 C 
BRANCH  21  23
HETATM   23  O   UNL     1       9.886  32.363  60.703  1.00  0.00    -0.391 OA
HETATM   24  H   UNL     1      10.373  32.255  61.536  1.00  0.00     0.210 HD
ENDBRANCH  21  23
ENDBRANCH  18  21
ENDBRANCH  12  15
ENDBRANCH   1  11
BRANCH   4  25
HETATM   25  C   UNL     1       4.868  25.883  50.835  1.00  0.00     0.409 C 
HETATM   26  F   UNL     1       4.043  24.920  50.383  1.00  0.00    -0.169 F 
HETATM   27  F   UNL     1       4.134  26.984  51.114  1.00  0.00    -0.169 F 
HETATM   28  F   UNL     1       5.671  26.214  49.785  1.00  0.00    -0.169 F 
ENDBRANCH   4  25
BRANCH   6  29
HETATM   29  C   UNL     1       7.957  23.918  53.601  1.00  0.00    -0.035 A 
HETATM   30  C   UNL     1       7.965  22.606  53.087  1.00  0.00     0.012 A 
HETATM   31  C   UNL     1       7.784  21.500  53.923  1.00  0.00     0.043 A 
HETATM   32  C   UNL     1       7.622  21.690  55.288  1.00  0.00     0.116 A 
HETATM   33  F   UNL     1       7.451  20.629  56.087  1.00  0.00    -0.206 F 
HETATM   34  C   UNL     1       7.648  22.964  55.833  1.00  0.00     0.043 A 
HETATM   35  C   UNL     1       7.823  24.070  54.995  1.00  0.00     0.012 A 
ENDBRANCH   6  29
TORSDOF 6
ENDMDL
MODEL 2
REMARK VINA RESULT:     -10.1      4.048      8.290
REMARK  6 active torsions:
REMARK  status: ('A' for Active; 'I' for Inactive)
REMARK    1  A    between atoms: C_2  and  O_3 
REMARK    2  A    between atoms: C_2  and  C_4 
REMARK    3  A    between atoms: C_7  and  N_8 
REMARK       I    between atoms: N_8  and  C_9 
REMARK    4  A    between atoms: C_9  and  C_10 
REMARK    5  A    between atoms: C_13  and  C_14 
REMARK    6  A    between atoms: C_19  and  C_20 
ROOT
HETATM    1  C   UNL     1       5.229  27.967  54.163  1.00  0.00     0.096 A 
HETATM    2  C   UNL     1       5.255  28.585  55.401  1.00  0.00     0.138 A 
HETATM    3  N   UNL     1       4.939  29.905  55.168  1.00  0.00    -0.240 N 
HETATM    4  C   UNL     1       4.763  30.909  56.201  1.00  0.00     0.221 C 
HETATM    5  C   UNL     1       4.692  30.237  57.589  1.00  0.00     0.066 C 
HETATM    6  C   UNL     1       5.756  29.137  57.727  1.00  0.00     0.118 C 
HETATM    7  N   UNL     1       5.489  28.133  56.672  1.00  0.00    -0.365 N 
HETATM    8  N   UNL     1       4.819  30.209  53.870  1.00  0.00    -0.181 NA
HETATM    9  C   UNL     1       4.962  29.029  53.262  1.00  0.00     0.160 A 
HETATM   10  H   UNL     1       4.861  27.398  57.008  1.00  0.00     0.161 HD
ENDROOT
BRANCH   1  11
HETATM   11  C   UNL     1       5.434  26.575  53.787  1.00  0.00     0.261 C 
HETATM   12  N   UNL     1       6.665  26.067  54.156  1.00  0.00    -0.323 N 
HETATM   13  H   UNL     1       7.310  26.740  54.551  1.00  0.00     0.169 HD
HETATM   14  O   UNL     1       4.546  25.960  53.210  1.00  0.00    -0.267 OA
BRANCH  12  15
HETATM   15  C   UNL     1       7.099  24.728  54.081  1.00  0.00     0.035 A 
HETATM   16  C   UNL     1       7.099  23.847  55.163  1.00  0.00     0.030 A 
HETATM   17  C   UNL     1       7.597  22.543  55.029  1.00  0.00     0.012 A 
HETATM   18  C   UNL     1       8.114  22.088  53.811  1.00  0.00    -0.030 A 
HETATM   19  C   UNL     1       8.094  22.976  52.723  1.00  0.00     0.012 A 
HETATM   20  C   UNL     1       7.588  24.275  52.854  1.00  0.00     0.030 A 
BRANCH  18  21
HETATM   21  C   UNL     1       8.723  20.711  53.628  1.00  0.00     0.147 C 
HETATM   22  C   UNL     1       8.764  19.814  54.862  1.00  0.00     0.044 C 
BRANCH  21  23
HETATM   23  O   UNL     1       7.996  20.033  52.602  1.00  0.00    -0.391 OA
HETATM   24  H   UNL     1       8.096  19.080  52.759  1.00  0.00     0.210 HD
ENDBRANCH  21  23
ENDBRANCH  18  21
ENDBRANCH  12  15
ENDBRANCH   1  11
BRANCH   4  25
HETATM   25  C   UNL     1       3.507  31.728  55.985  1.00  0.00     0.409 C 
HETATM   26  F   UNL     1       3.640  32.704  55.067  1.00  0.00    -0.169 F 
HETATM   27  F   UNL     1       2.446  30.961  55.649  1.00  0.00    -0.169 F 
HETATM   28  F   UNL     1       3.173  32.352  57.150  1.00  0.00    -0.169 F 
ENDBRANCH   4  25
BRANCH   6  29
HETATM   29  C   UNL     1       7.205  29.627  57.704  1.00  0.00    -0.035 A 
HETATM   30  C   UNL     1       7.618  30.728  58.481  1.00  0.00     0.012 A 
HETATM   31  C   UNL     1       8.943  31.173  58.459  1.00  0.00     0.043 A 
HETATM   32  C   UNL     1       9.879  30.506  57.683  1.00  0.00     0.116 A 
HETATM   33  F   UNL     1      11.148  30.933  57.665  1.00  0.00    -0.206 F 
HETATM   34  C   UNL     1       9.517  29.396  56.937  1.00  0.00     0.043 A 
HETATM   35  C   UNL     1       8.190  28.954  56.954  1.00  0.00     0.012 A 
ENDBRANCH   6  29
TORSDOF 6
ENDMDL
MODEL 3
REMARK VINA RESULT:      -9.9      5.880      8.630
REMARK  6 active torsions:
REMARK  status: ('A' for Active; 'I' for Inactive)
REMARK    1  A    between atoms: C_2  and  O_3 
REMARK    2  A    between atoms: C_2  and  C_4 
REMARK    3  A    between atoms: C_7  and  N_8 
REMARK       I    between atoms: N_8  and  C_9 
REMARK    4  A    between atoms: C_9  and  C_10 
REMARK    5  A    between atoms: C_13  and  C_14 
REMARK    6  A    between atoms: C_19  and  C_20 
ROOT
HETATM    1  C   UNL     1       4.979  27.119  51.344  1.00  0.00     0.096 A 
HETATM    2  C   UNL     1       4.944  27.733  50.104  1.00  0.00     0.138 A 
HETATM    3  N   UNL     1       4.621  29.050  50.346  1.00  0.00    -0.240 N 
HETATM    4  C   UNL     1       4.562  30.088  49.334  1.00  0.00     0.221 C 
HETATM    5  C   UNL     1       5.186  29.582  48.016  1.00  0.00     0.066 C 
HETATM    6  C   UNL     1       4.736  28.146  47.705  1.00  0.00     0.118 C 
HETATM    7  N   UNL     1       5.182  27.293  48.830  1.00  0.00    -0.365 N 
HETATM    8  N   UNL     1       4.337  29.307  51.629  1.00  0.00    -0.181 NA
HETATM    9  C   UNL     1       4.586  28.146  52.239  1.00  0.00     0.160 A 
HETATM   10  H   UNL     1       6.115  26.908  48.656  1.00  0.00     0.161 HD
ENDROOT
BRANCH   1  11
HETATM   11  C   UNL     1       5.308  25.751  51.721  1.00  0.00     0.261 C 
HETATM   12  N   UNL     1       6.416  25.643  52.539  1.00  0.00    -0.323 N 
HETATM   13  H   UNL     1       6.923  26.505  52.698  1.00  0.00     0.169 HD
HETATM   14  O   UNL     1       4.611  24.824  51.327  1.00  0.00    -0.267 OA
BRANCH  12  15
HETATM   15  C   UNL     1       6.888  24.490  53.197  1.00  0.00     0.035 A 
HETATM   16  C   UNL     1       6.689  24.231  54.554  1.00  0.00     0.030 A 
HETATM   17  C   UNL     1       7.235  23.088  55.155  1.00  0.00     0.012 A 
HETATM   18  C   UNL     1       7.999  22.176  54.418  1.00  0.00    -0.030 A 
HETATM   19  C   UNL     1       8.179  22.437  53.049  1.00  0.00     0.012 A 
HETATM   20  C   UNL     1       7.626  23.572  52.446  1.00  0.00     0.030 A 
BRANCH  18  21
HETATM   21  C   UNL     1       8.665  20.960  55.031  1.00  0.00     0.147 C 
HETATM   22  C   UNL     1       8.001  20.373  56.274  1.00  0.00     0.044 C 
BRANCH  21  23
HETATM   23  O   UNL     1       8.737  19.939  54.035  1.00  0.00    -0.391 OA
HETATM   24  H   UNL     1       8.062  20.140  53.366  1.00  0.00     0.210 HD
ENDBRANCH  21  23
ENDBRANCH  18  21
ENDBRANCH  12  15
ENDBRANCH   1  11
BRANCH   4  25
HETATM   25  C   UNL     1       5.284  31.346  49.771  1.00  0.00     0.409 C 
HETATM   26  F   UNL     1       4.576  32.119  50.616  1.00  0.00    -0.169 F 
HETATM   27  F   UNL     1       6.484  31.079  50.333  1.00  0.00    -0.169 F 
HETATM   28  F   UNL     1       5.538  32.119  48.678  1.00  0.00    -0.169 F 
ENDBRANCH   4  25
BRANCH   6  29
HETATM   29  C   UNL     1       3.243  27.981  47.413  1.00  0.00    -0.035 A 
HETATM   30  C   UNL     1       2.476  29.045  46.898  1.00  0.00     0.012 A 
HETATM   31  C   UNL     1       1.112  28.891  46.631  1.00  0.00     0.043 A 
HETATM   32  C   UNL     1       0.504  27.664  46.848  1.00  0.00     0.116 A 
HETATM   33  F   UNL     1      -0.802  27.518  46.589  1.00  0.00    -0.206 F 
HETATM   34  C   UNL     1       1.236  26.584  47.317  1.00  0.00     0.043 A 
HETATM   35  C   UNL     1       2.599  26.740  47.589  1.00  0.00     0.012 A 
ENDBRANCH   6  29
TORSDOF 6
ENDMDL
MODEL 4
REMARK VINA RESULT:      -9.9      4.121      8.220
REMARK  6 active torsions:
REMARK  status: ('A' for Active; 'I' for Inactive)
REMARK    1  A    between atoms: C_2  and  O_3 
REMARK    2  A    between atoms: C_2  and  C_4 
REMARK    3  A    between atoms: C_7  and  N_8 
REMARK       I    between atoms: N_8  and  C_9 
REMARK    4  A    between atoms: C_9  and  C_10 
REMARK    5  A    between atoms: C_13  and  C_14 
REMARK    6  A    between atoms: C_19  and  C_20 
ROOT
HETATM    1  C   UNL     1       5.630  27.652  53.468  1.00  0.00     0.096 A 
HETATM    2  C   UNL     1       5.909  26.783  54.509  1.00  0.00     0.138 A 
HETATM    3  N   UNL     1       7.091  27.225  55.060  1.00  0.00    -0.240 N 
HETATM    4  C   UNL     1       7.715  26.660  56.242  1.00  0.00     0.221 C 
HETATM    5  C   UNL     1       6.738  25.701  56.954  1.00  0.00     0.066 C 
HETATM    6  C   UNL     1       6.003  24.807  55.942  1.00  0.00     0.118 C 
HETATM    7  N   UNL     1       5.253  25.701  55.030  1.00  0.00    -0.365 N 
HETATM    8  N   UNL     1       7.651  28.240  54.391  1.00  0.00    -0.181 NA
HETATM    9  C   UNL     1       6.750  28.521  53.446  1.00  0.00     0.160 A 
HETATM   10  H   UNL     1       4.306  25.876  55.378  1.00  0.00     0.161 HD
ENDROOT
BRANCH   1  11
HETATM   11  C   UNL     1       4.496  27.715  52.556  1.00  0.00     0.261 C 
HETATM   12  N   UNL     1       4.844  27.927  51.237  1.00  0.00    -0.323 N 
HETATM   13  H   UNL     1       5.827  28.111  51.072  1.00  0.00     0.169 HD
HETATM   14  O   UNL     1       3.358  27.568  52.985  1.00  0.00    -0.267 OA
BRANCH  12  15
HETATM   15  C   UNL     1       4.003  27.878  50.108  1.00  0.00     0.035 A 
HETATM   16  C   UNL     1       3.995  26.830  49.186  1.00  0.00     0.030 A 
HETATM   17  C   UNL     1       3.169  26.873  48.054  1.00  0.00     0.012 A 
HETATM   18  C   UNL     1       2.332  27.968  47.810  1.00  0.00    -0.030 A 
HETATM   19  C   UNL     1       2.334  29.011  48.752  1.00  0.00     0.012 A 
HETATM   20  C   UNL     1       3.151  28.964  49.888  1.00  0.00     0.030 A 
BRANCH  18  21
HETATM   21  C   UNL     1       1.467  28.095  46.571  1.00  0.00     0.147 C 
HETATM   22  C   UNL     1       0.019  27.631  46.700  1.00  0.00     0.044 C 
BRANCH  21  23
HETATM   23  O   UNL     1       1.466  29.464  46.165  1.00  0.00    -0.391 OA
HETATM   24  H   UNL     1       1.886  29.507  45.290  1.00  0.00     0.210 HD
ENDBRANCH  21  23
ENDBRANCH  18  21
ENDBRANCH  12  15
ENDBRANCH   1  11
BRANCH   4  25
HETATM   25  C   UNL     1       8.153  27.733  57.219  1.00  0.00     0.409 C 
HETATM   26  F   UNL     1       9.462  28.040  57.146  1.00  0.00    -0.169 F 
HETATM   27  F   UNL     1       7.434  28.871  57.085  1.00  0.00    -0.169 F 
HETATM   28  F   UNL     1       7.939  27.294  58.491  1.00  0.00    -0.169 F 
ENDBRANCH   4  25
BRANCH   6  29
HETATM   29  C   UNL     1       6.891  23.821  55.181  1.00  0.00    -0.035 A 
HETATM   30  C   UNL     1       7.735  22.919  55.862  1.00  0.00     0.012 A 
HETATM   31  C   UNL     1       8.544  22.018  55.164  1.00  0.00     0.043 A 
HETATM   32  C   UNL     1       8.500  21.986  53.778  1.00  0.00     0.116 A 
HETATM   33  F   UNL     1       9.275  21.120  53.112  1.00  0.00    -0.206 F 
HETATM   34  C   UNL     1       7.654  22.830  53.077  1.00  0.00     0.043 A 
HETATM   35  C   UNL     1       6.848  23.736  53.775  1.00  0.00     0.012 A 
ENDBRANCH   6  29
TORSDOF 6
ENDMDL
MODEL 5
REMARK VINA RESULT:      -9.7      3.474      6.235
REMARK  6 active torsions:
REMARK  status: ('A' for Active; 'I' for Inactive)
REMARK    1  A    between atoms: C_2  and  O_3 
REMARK    2  A    between atoms: C_2  and  C_4 
REMARK    3  A    between atoms: C_7  and  N_8 
REMARK       I    between atoms: N_8  and  C_9 
REMARK    4  A    between atoms: C_9  and  C_10 
REMARK    5  A    between atoms: C_13  and  C_14 
REMARK    6  A    between atoms: C_19  and  C_20 
ROOT
HETATM    1  C   UNL     1       7.912  29.900  58.210  1.00  0.00     0.096 A 
HETATM    2  C   UNL     1       6.870  29.129  57.726  1.00  0.00     0.138 A 
HETATM    3  N   UNL     1       7.456  28.135  56.974  1.00  0.00    -0.240 N 
HETATM    4  C   UNL     1       6.740  27.039  56.347  1.00  0.00     0.221 C 
HETATM    5  C   UNL     1       5.291  26.980  56.875  1.00  0.00     0.066 C 
HETATM    6  C   UNL     1       4.674  28.384  56.958  1.00  0.00     0.118 C 
HETATM    7  N   UNL     1       5.512  29.178  57.886  1.00  0.00    -0.365 N 
HETATM    8  N   UNL     1       8.782  28.269  56.844  1.00  0.00    -0.181 NA
HETATM    9  C   UNL     1       9.063  29.319  57.620  1.00  0.00     0.160 A 
HETATM   10  H   UNL     1       5.171  29.104  58.849  1.00  0.00     0.161 HD
ENDROOT
BRANCH   1  11
HETATM   11  C   UNL     1       7.912  31.057  59.095  1.00  0.00     0.261 C 
HETATM   12  N   UNL     1       7.168  30.885  60.247  1.00  0.00    -0.323 N 
HETATM   13  H   UNL     1       6.636  30.024  60.294  1.00  0.00     0.169 HD
HETATM   14  O   UNL     1       8.550  32.057  58.793  1.00  0.00    -0.267 OA
BRANCH  12  15
HETATM   15  C   UNL     1       7.101  31.744  61.361  1.00  0.00     0.035 A 
HETATM   16  C   UNL     1       8.067  31.794  62.366  1.00  0.00     0.030 A 
HETATM   17  C   UNL     1       7.908  32.635  63.477  1.00  0.00     0.012 A 
HETATM   18  C   UNL     1       6.775  33.445  63.614  1.00  0.00    -0.030 A 
HETATM   19  C   UNL     1       5.815  33.400  62.589  1.00  0.00     0.012 A 
HETATM   20  C   UNL     1       5.979  32.568  61.475  1.00  0.00     0.030 A 
BRANCH  18  21
HETATM   21  C   UNL     1       6.522  34.324  64.824  1.00  0.00     0.147 C 
HETATM   22  C   UNL     1       5.367  33.915  65.735  1.00  0.00     0.044 C 
BRANCH  21  23
HETATM   23  O   UNL     1       7.717  34.366  65.604  1.00  0.00    -0.391 OA
HETATM   24  H   UNL     1       8.259  35.097  65.264  1.00  0.00     0.210 HD
ENDBRANCH  21  23
ENDBRANCH  18  21
ENDBRANCH  12  15
ENDBRANCH   1  11
BRANCH   4  25
HETATM   25  C   UNL     1       7.413  25.705  56.600  1.00  0.00     0.409 C 
HETATM   26  F   UNL     1       8.189  25.281  55.585  1.00  0.00    -0.169 F 
HETATM   27  F   UNL     1       8.150  25.710  57.734  1.00  0.00    -0.169 F 
HETATM   28  F   UNL     1       6.458  24.747  56.770  1.00  0.00    -0.169 F 
ENDBRANCH   4  25
BRANCH   6  29
HETATM   29  C   UNL     1       4.476  29.089  55.615  1.00  0.00    -0.035 A 
HETATM   30  C   UNL     1       4.287  28.356  54.425  1.00  0.00     0.012 A 
HETATM   31  C   UNL     1       4.105  29.003  53.198  1.00  0.00     0.043 A 
HETATM   32  C   UNL     1       4.080  30.389  53.150  1.00  0.00     0.116 A 
HETATM   33  F   UNL     1       3.904  31.006  51.973  1.00  0.00    -0.206 F 
HETATM   34  C   UNL     1       4.223  31.140  54.305  1.00  0.00     0.043 A 
HETATM   35  C   UNL     1       4.411  30.494  55.530  1.00  0.00     0.012 A 
ENDBRANCH   6  29
TORSDOF 6
ENDMDL
MODEL 6
REMARK VINA RESULT:      -9.6      4.596      8.284
REMARK  6 active torsions:
REMARK  status: ('A' for Active; 'I' for Inactive)
REMARK    1  A    between atoms: C_2  and  O_3 
REMARK    2  A    between atoms: C_2  and  C_4 
REMARK    3  A    between atoms: C_7  and  N_8 
REMARK       I    between atoms: N_8  and  C_9 
REMARK    4  A    between atoms: C_9  and  C_10 
REMARK    5  A    between atoms: C_13  and  C_14 
REMARK    6  A    between atoms: C_19  and  C_20 
ROOT
HETATM    1  C   UNL     1       5.488  28.165  53.860  1.00  0.00     0.096 A 
HETATM    2  C   UNL     1       5.170  29.075  52.866  1.00  0.00     0.138 A 
HETATM    3  N   UNL     1       4.143  29.840  53.372  1.00  0.00    -0.240 N 
HETATM    4  C   UNL     1       3.553  30.983  52.701  1.00  0.00     0.221 C 
HETATM    5  C   UNL     1       4.419  31.394  51.490  1.00  0.00     0.066 C 
HETATM    6  C   UNL     1       4.883  30.162  50.698  1.00  0.00     0.118 C 
HETATM    7  N   UNL     1       5.680  29.321  51.620  1.00  0.00    -0.365 N 
HETATM    8  N   UNL     1       3.700  29.425  54.566  1.00  0.00    -0.181 NA
HETATM    9  C   UNL     1       4.536  28.431  54.877  1.00  0.00     0.160 A 
HETATM   10  H   UNL     1       6.673  29.568  51.583  1.00  0.00     0.161 HD
ENDROOT
BRANCH   1  11
HETATM   11  C   UNL     1       6.518  27.137  53.917  1.00  0.00     0.261 C 
HETATM   12  N   UNL     1       6.026  25.849  54.008  1.00  0.00    -0.323 N 
HETATM   13  H   UNL     1       5.022  25.777  54.122  1.00  0.00     0.169 HD
HETATM   14  O   UNL     1       7.700  27.453  53.869  1.00  0.00    -0.267 OA
BRANCH  12  15
HETATM   15  C   UNL     1       6.751  24.645  53.921  1.00  0.00     0.035 A 
HETATM   16  C   UNL     1       7.258  24.125  52.729  1.00  0.00     0.030 A 
HETATM   17  C   UNL     1       7.924  22.891  52.709  1.00  0.00     0.012 A 
HETATM   18  C   UNL     1       8.096  22.141  53.878  1.00  0.00    -0.030 A 
HETATM   19  C   UNL     1       7.597  22.681  55.075  1.00  0.00     0.012 A 
HETATM   20  C   UNL     1       6.940  23.917  55.098  1.00  0.00     0.030 A 
BRANCH  18  21
HETATM   21  C   UNL     1       8.751  20.774  53.901  1.00  0.00     0.147 C 
HETATM   22  C   UNL     1       8.552  19.944  55.166  1.00  0.00     0.044 C 
BRANCH  21  23
HETATM   23  O   UNL     1       8.260  20.024  52.789  1.00  0.00    -0.391 OA
HETATM   24  H   UNL     1       8.946  19.379  52.549  1.00  0.00     0.210 HD
ENDBRANCH  21  23
ENDBRANCH  18  21
ENDBRANCH  12  15
ENDBRANCH   1  11
BRANCH   4  25
HETATM   25  C   UNL     1       3.407  32.172  53.629  1.00  0.00     0.409 C 
HETATM   26  F   UNL     1       2.319  32.118  54.420  1.00  0.00    -0.169 F 
HETATM   27  F   UNL     1       4.498  32.351  54.407  1.00  0.00    -0.169 F 
HETATM   28  F   UNL     1       3.277  33.307  52.887  1.00  0.00    -0.169 F 
ENDBRANCH   4  25
BRANCH   6  29
HETATM   29  C   UNL     1       3.767  29.370  50.014  1.00  0.00    -0.035 A 
HETATM   30  C   UNL     1       2.488  29.929  49.817  1.00  0.00     0.012 A 
HETATM   31  C   UNL     1       1.470  29.203  49.190  1.00  0.00     0.043 A 
HETATM   32  C   UNL     1       1.726  27.921  48.727  1.00  0.00     0.116 A 
HETATM   33  F   UNL     1       0.750  27.229  48.125  1.00  0.00    -0.206 F 
HETATM   34  C   UNL     1       2.983  27.355  48.868  1.00  0.00     0.043 A 
HETATM   35  C   UNL     1       3.999  28.079  49.500  1.00  0.00     0.012 A 
ENDBRANCH   6  29
TORSDOF 6
ENDMDL
MODEL 7
REMARK VINA RESULT:      -9.3      4.757      8.802
REMARK  6 active torsions:
REMARK  status: ('A' for Active; 'I' for Inactive)
REMARK    1  A    between atoms: C_2  and  O_3 
REMARK    2  A    between atoms: C_2  and  C_4 
REMARK    3  A    between atoms: C_7  and  N_8 
REMARK       I    between atoms: N_8  and  C_9 
REMARK    4  A    between atoms: C_9  and  C_10 
REMARK    5  A    between atoms: C_13  and  C_14 
REMARK    6  A    between atoms: C_19  and  C_20 
ROOT
HETATM    1  C   UNL     1       5.009  27.663  51.506  1.00  0.00     0.096 A 
HETATM    2  C   UNL     1       5.091  27.017  52.727  1.00  0.00     0.138 A 
HETATM    3  N   UNL     1       5.990  27.743  53.476  1.00  0.00    -0.240 N 
HETATM    4  C   UNL     1       6.317  27.477  54.865  1.00  0.00     0.221 C 
HETATM    5  C   UNL     1       5.316  26.465  55.463  1.00  0.00     0.066 C 
HETATM    6  C   UNL     1       5.036  25.317  54.481  1.00  0.00     0.118 C 
HETATM    7  N   UNL     1       4.467  25.918  53.253  1.00  0.00    -0.365 N 
HETATM    8  N   UNL     1       6.576  28.738  52.798  1.00  0.00    -0.181 NA
HETATM    9  C   UNL     1       5.958  28.711  51.615  1.00  0.00     0.160 A 
HETATM   10  H   UNL     1       3.445  25.963  53.301  1.00  0.00     0.161 HD
ENDROOT
BRANCH   1  11
HETATM   11  C   UNL     1       4.190  27.386  50.333  1.00  0.00     0.261 C 
HETATM   12  N   UNL     1       3.085  28.205  50.211  1.00  0.00    -0.323 N 
HETATM   13  H   UNL     1       2.919  28.828  50.992  1.00  0.00     0.169 HD
HETATM   14  O   UNL     1       4.519  26.500  49.555  1.00  0.00    -0.267 OA
BRANCH  12  15
HETATM   15  C   UNL     1       2.199  28.294  49.120  1.00  0.00     0.035 A 
HETATM   16  C   UNL     1       1.654  27.189  48.465  1.00  0.00     0.030 A 
HETATM   17  C   UNL     1       0.821  27.352  47.349  1.00  0.00     0.012 A 
HETATM   18  C   UNL     1       0.515  28.625  46.854  1.00  0.00    -0.030 A 
HETATM   19  C   UNL     1       1.055  29.732  47.529  1.00  0.00     0.012 A 
HETATM   20  C   UNL     1       1.878  29.570  48.650  1.00  0.00     0.030 A 
BRANCH  18  21
HETATM   21  C   UNL     1      -0.327  28.855  45.614  1.00  0.00     0.147 C 
HETATM   22  C   UNL     1      -1.822  29.067  45.835  1.00  0.00     0.044 C 
BRANCH  21  23
HETATM   23  O   UNL     1       0.192  29.994  44.926  1.00  0.00    -0.391 OA
HETATM   24  H   UNL     1      -0.553  30.426  44.478  1.00  0.00     0.210 HD
ENDBRANCH  21  23
ENDBRANCH  18  21
ENDBRANCH  12  15
ENDBRANCH   1  11
BRANCH   4  25
HETATM   25  C   UNL     1       6.302  28.740  55.702  1.00  0.00     0.409 C 
HETATM   26  F   UNL     1       6.028  28.531  57.004  1.00  0.00    -0.169 F 
HETATM   27  F   UNL     1       7.461  29.430  55.610  1.00  0.00    -0.169 F 
HETATM   28  F   UNL     1       5.326  29.571  55.240  1.00  0.00    -0.169 F 
ENDBRANCH   4  25
BRANCH   6  29
HETATM   29  C   UNL     1       6.233  24.413  54.179  1.00  0.00    -0.035 A 
HETATM   30  C   UNL     1       6.660  24.181  52.855  1.00  0.00     0.012 A 
HETATM   31  C   UNL     1       7.754  23.355  52.582  1.00  0.00     0.043 A 
HETATM   32  C   UNL     1       8.454  22.774  53.629  1.00  0.00     0.116 A 
HETATM   33  F   UNL     1       9.504  21.984  53.365  1.00  0.00    -0.206 F 
HETATM   34  C   UNL     1       8.086  23.011  54.944  1.00  0.00     0.043 A 
HETATM   35  C   UNL     1       6.988  23.832  55.217  1.00  0.00     0.012 A 
ENDBRANCH   6  29
TORSDOF 6
ENDMDL
MODEL 8
REMARK VINA RESULT:      -9.2      5.658      8.596
REMARK  6 active torsions:
REMARK  status: ('A' for Active; 'I' for Inactive)
REMARK    1  A    between atoms: C_2  and  O_3 
REMARK    2  A    between atoms: C_2  and  C_4 
REMARK    3  A    between atoms: C_7  and  N_8 
REMARK       I    between atoms: N_8  and  C_9 
REMARK    4  A    between atoms: C_9  and  C_10 
REMARK    5  A    between atoms: C_13  and  C_14 
REMARK    6  A    between atoms: C_19  and  C_20 
ROOT
HETATM    1  C   UNL     1       4.644  27.149  50.426  1.00  0.00     0.096 A 
HETATM    2  C   UNL     1       3.876  28.265  50.142  1.00  0.00     0.138 A 
HETATM    3  N   UNL     1       3.364  28.056  48.880  1.00  0.00    -0.240 N 
HETATM    4  C   UNL     1       2.424  28.937  48.212  1.00  0.00     0.221 C 
HETATM    5  C   UNL     1       1.862  29.971  49.211  1.00  0.00     0.066 C 
HETATM    6  C   UNL     1       2.973  30.534  50.110  1.00  0.00     0.118 C 
HETATM    7  N   UNL     1       3.560  29.393  50.849  1.00  0.00    -0.365 N 
HETATM    8  N   UNL     1       3.828  26.949  48.287  1.00  0.00    -0.181 NA
HETATM    9  C   UNL     1       4.578  26.382  49.235  1.00  0.00     0.160 A 
HETATM   10  H   UNL     1       3.082  29.243  51.742  1.00  0.00     0.161 HD
ENDROOT
BRANCH   1  11
HETATM   11  C   UNL     1       5.389  26.784  51.624  1.00  0.00     0.261 C 
HETATM   12  N   UNL     1       5.468  25.422  51.845  1.00  0.00    -0.323 N 
HETATM   13  H   UNL     1       4.923  24.848  51.213  1.00  0.00     0.169 HD
HETATM   14  O   UNL     1       5.889  27.656  52.322  1.00  0.00    -0.267 OA
BRANCH  12  15
HETATM   15  C   UNL     1       6.243  24.754  52.813  1.00  0.00     0.035 A 
HETATM   16  C   UNL     1       5.945  24.740  54.176  1.00  0.00     0.030 A 
HETATM   17  C   UNL     1       6.792  24.098  55.092  1.00  0.00     0.012 A 
HETATM   18  C   UNL     1       7.963  23.459  54.669  1.00  0.00    -0.030 A 
HETATM   19  C   UNL     1       8.246  23.464  53.293  1.00  0.00     0.012 A 
HETATM   20  C   UNL     1       7.395  24.095  52.377  1.00  0.00     0.030 A 
BRANCH  18  21
HETATM   21  C   UNL     1       8.945  22.807  55.622  1.00  0.00     0.147 C 
HETATM   22  C   UNL     1       8.359  22.187  56.888  1.00  0.00     0.044 C 
BRANCH  21  23
HETATM   23  O   UNL     1       9.652  21.791  54.909  1.00  0.00    -0.391 OA
HETATM   24  H   UNL     1       9.957  21.139  55.561  1.00  0.00     0.210 HD
ENDBRANCH  21  23
ENDBRANCH  18  21
ENDBRANCH  12  15
ENDBRANCH   1  11
BRANCH   4  25
HETATM   25  C   UNL     1       1.272  28.171  47.593  1.00  0.00     0.409 C 
HETATM   26  F   UNL     1       1.578  27.567  46.430  1.00  0.00    -0.169 F 
HETATM   27  F   UNL     1       0.760  27.247  48.437  1.00  0.00    -0.169 F 
HETATM   28  F   UNL     1       0.258  29.037  47.313  1.00  0.00    -0.169 F 
ENDBRANCH   4  25
BRANCH   6  29
HETATM   29  C   UNL     1       4.037  31.363  49.388  1.00  0.00    -0.035 A 
HETATM   30  C   UNL     1       3.704  32.189  48.295  1.00  0.00     0.012 A 
HETATM   31  C   UNL     1       4.679  32.947  47.637  1.00  0.00     0.043 A 
HETATM   32  C   UNL     1       5.992  32.909  48.081  1.00  0.00     0.116 A 
HETATM   33  F   UNL     1       6.924  33.637  47.450  1.00  0.00    -0.206 F 
HETATM   34  C   UNL     1       6.348  32.138  49.176  1.00  0.00     0.043 A 
HETATM   35  C   UNL     1       5.375  31.376  49.830  1.00  0.00     0.012 A 
ENDBRANCH   6  29
TORSDOF 6
ENDMDL
MODEL 9
REMARK VINA RESULT:      -8.9      2.451      3.645
REMARK  6 active torsions:
REMARK  status: ('A' for Active; 'I' for Inactive)
REMARK    1  A    between atoms: C_2  and  O_3 
REMARK    2  A    between atoms: C_2  and  C_4 
REMARK    3  A    between atoms: C_7  and  N_8 
REMARK       I    between atoms: N_8  and  C_9 
REMARK    4  A    between atoms: C_9  and  C_10 
REMARK    5  A    between atoms: C_13  and  C_14 
REMARK    6  A    between atoms: C_19  and  C_20 
ROOT
HETATM    1  C   UNL     1       5.708  30.099  57.073  1.00  0.00     0.096 A 
HETATM    2  C   UNL     1       6.197  29.367  56.005  1.00  0.00     0.138 A 
HETATM    3  N   UNL     1       5.089  28.895  55.336  1.00  0.00    -0.240 N 
HETATM    4  C   UNL     1       5.129  28.147  54.092  1.00  0.00     0.221 C 
HETATM    5  C   UNL     1       6.546  28.205  53.482  1.00  0.00     0.066 C 
HETATM    6  C   UNL     1       7.623  28.008  54.560  1.00  0.00     0.118 C 
HETATM    7  N   UNL     1       7.459  29.098  55.549  1.00  0.00    -0.365 N 
HETATM    8  N   UNL     1       3.931  29.172  55.948  1.00  0.00    -0.181 NA
HETATM    9  C   UNL     1       4.303  29.930  56.983  1.00  0.00     0.160 A 
HETATM   10  H   UNL     1       8.029  29.911  55.302  1.00  0.00     0.161 HD
ENDROOT
BRANCH   1  11
HETATM   11  C   UNL     1       6.401  30.869  58.098  1.00  0.00     0.261 C 
HETATM   12  N   UNL     1       5.560  31.484  59.005  1.00  0.00    -0.323 N 
HETATM   13  H   UNL     1       4.571  31.412  58.797  1.00  0.00     0.169 HD
HETATM   14  O   UNL     1       7.624  30.912  58.107  1.00  0.00    -0.267 OA
BRANCH  12  15
HETATM   15  C   UNL     1       5.920  32.157  60.189  1.00  0.00     0.035 A 
HETATM   16  C   UNL     1       7.069  31.873  60.929  1.00  0.00     0.030 A 
HETATM   17  C   UNL     1       7.336  32.546  62.129  1.00  0.00     0.012 A 
HETATM   18  C   UNL     1       6.459  33.516  62.626  1.00  0.00    -0.030 A 
HETATM   19  C   UNL     1       5.314  33.807  61.867  1.00  0.00     0.012 A 
HETATM   20  C   UNL     1       5.051  33.143  60.662  1.00  0.00     0.030 A 
BRANCH  18  21
HETATM   21  C   UNL     1       6.667  34.227  63.949  1.00  0.00     0.147 C 
HETATM   22  C   UNL     1       5.424  34.451  64.806  1.00  0.00     0.044 C 
BRANCH  21  23
HETATM   23  O   UNL     1       7.613  33.479  64.715  1.00  0.00    -0.391 OA
HETATM   24  H   UNL     1       8.104  32.914  64.096  1.00  0.00     0.210 HD
ENDBRANCH  21  23
ENDBRANCH  18  21
ENDBRANCH  12  15
ENDBRANCH   1  11
BRANCH   4  25
HETATM   25  C   UNL     1       4.134  28.677  53.081  1.00  0.00     0.409 C 
HETATM   26  F   UNL     1       4.495  28.476  51.799  1.00  0.00    -0.169 F 
HETATM   27  F   UNL     1       2.895  28.166  53.265  1.00  0.00    -0.169 F 
HETATM   28  F   UNL     1       4.017  30.026  53.232  1.00  0.00    -0.169 F 
ENDBRANCH   4  25
BRANCH   6  29
HETATM   29  C   UNL     1       7.637  26.627  55.221  1.00  0.00    -0.035 A 
HETATM   30  C   UNL     1       7.404  25.456  54.472  1.00  0.00     0.012 A 
HETATM   31  C   UNL     1       7.419  24.195  55.078  1.00  0.00     0.043 A 
HETATM   32  C   UNL     1       7.694  24.088  56.433  1.00  0.00     0.116 A 
HETATM   33  F   UNL     1       7.709  22.879  57.011  1.00  0.00    -0.206 F 
HETATM   34  C   UNL     1       7.965  25.215  57.192  1.00  0.00     0.043 A 
HETATM   35  C   UNL     1       7.945  26.476  56.587  1.00  0.00     0.012 A 
ENDBRANCH   6  29
TORSDOF 6
ENDMDL
MODEL 10
REMARK VINA RESULT:      -8.7      3.391      6.171
REMARK  6 active torsions:
REMARK  status: ('A' for Active; 'I' for Inactive)
REMARK    1  A    between atoms: C_2  and  O_3 
REMARK    2  A    between atoms: C_2  and  C_4 
REMARK    3  A    between atoms: C_7  and  N_8 
REMARK       I    between atoms: N_8  and  C_9 
REMARK    4  A    between atoms: C_9  and  C_10 
REMARK    5  A    between atoms: C_13  and  C_14 
REMARK    6  A    between atoms: C_19  and  C_20 
ROOT
HETATM    1  C   UNL     1       6.693  30.349  57.939  1.00  0.00     0.096 A 
HETATM    2  C   UNL     1       5.973  29.307  57.382  1.00  0.00     0.138 A 
HETATM    3  N   UNL     1       6.900  28.344  57.052  1.00  0.00    -0.240 N 
HETATM    4  C   UNL     1       6.580  27.033  56.518  1.00  0.00     0.221 C 
HETATM    5  C   UNL     1       5.065  26.763  56.644  1.00  0.00     0.066 C 
HETATM    6  C   UNL     1       4.247  28.002  56.247  1.00  0.00     0.118 C 
HETATM    7  N   UNL     1       4.638  29.098  57.162  1.00  0.00    -0.365 N 
HETATM    8  N   UNL     1       8.168  28.727  57.250  1.00  0.00    -0.181 NA
HETATM    9  C   UNL     1       8.042  29.929  57.818  1.00  0.00     0.160 A 
HETATM   10  H   UNL     1       4.039  29.120  57.993  1.00  0.00     0.161 HD
ENDROOT
BRANCH   1  11
HETATM   11  C   UNL     1       6.252  31.613  58.513  1.00  0.00     0.261 C 
HETATM   12  N   UNL     1       6.053  31.573  59.879  1.00  0.00    -0.323 N 
HETATM   13  H   UNL     1       6.139  30.657  60.303  1.00  0.00     0.169 HD
HETATM   14  O   UNL     1       6.105  32.593  57.793  1.00  0.00    -0.267 OA
BRANCH  12  15
HETATM   15  C   UNL     1       5.786  32.656  60.740  1.00  0.00     0.035 A 
HETATM   16  C   UNL     1       4.648  33.460  60.652  1.00  0.00     0.030 A 
HETATM   17  C   UNL     1       4.474  34.556  61.509  1.00  0.00     0.012 A 
HETATM   18  C   UNL     1       5.435  34.882  62.473  1.00  0.00    -0.030 A 
HETATM   19  C   UNL     1       6.569  34.057  62.564  1.00  0.00     0.012 A 
HETATM   20  C   UNL     1       6.739  32.956  61.716  1.00  0.00     0.030 A 
BRANCH  18  21
HETATM   21  C   UNL     1       5.327  36.092  63.380  1.00  0.00     0.147 C 
HETATM   22  C   UNL     1       3.929  36.451  63.874  1.00  0.00     0.044 C 
BRANCH  21  23
HETATM   23  O   UNL     1       6.164  35.874  64.517  1.00  0.00    -0.391 OA
HETATM   24  H   UNL     1       6.912  35.327  64.225  1.00  0.00     0.210 HD
ENDBRANCH  21  23
ENDBRANCH  18  21
ENDBRANCH  12  15
ENDBRANCH   1  11
BRANCH   4  25
HETATM   25  C   UNL     1       7.338  25.931  57.230  1.00  0.00     0.409 C 
HETATM   26  F   UNL     1       8.522  25.627  56.665  1.00  0.00    -0.169 F 
HETATM   27  F   UNL     1       7.543  26.212  58.537  1.00  0.00    -0.169 F 
HETATM   28  F   UNL     1       6.600  24.786  57.197  1.00  0.00    -0.169 F 
ENDBRANCH   4  25
BRANCH   6  29
HETATM   29  C   UNL     1       4.358  28.411  54.777  1.00  0.00    -0.035 A 
HETATM   30  C   UNL     1       4.189  29.752  54.376  1.00  0.00     0.012 A 
HETATM   31  C   UNL     1       4.292  30.124  53.032  1.00  0.00     0.043 A 
HETATM   32  C   UNL     1       4.594  29.165  52.075  1.00  0.00     0.116 A 
HETATM   33  F   UNL     1       4.694  29.524  50.789  1.00  0.00    -0.206 F 
HETATM   34  C   UNL     1       4.805  27.845  52.439  1.00  0.00     0.043 A 
HETATM   35  C   UNL     1       4.697  27.473  53.782  1.00  0.00     0.012 A 
ENDBRANCH   6  29
TORSDOF 6
ENDMDL
