MODEL 1
REMARK VINA RESULT:      -9.5      0.000      0.000
REMARK  8 active torsions:
REMARK  status: ('A' for Active; 'I' for Inactive)
REMARK    1  A    between atoms: O_2  and  C_3 
REMARK    2  A    between atoms: C_4  and  O_5 
REMARK    3  A    between atoms: C_6  and  C_7 
REMARK    4  A    between atoms: C_7  and  C_8 
REMARK    5  A    between atoms: C_11  and  C_12 
REMARK    6  A    between atoms: C_12  and  N_13 
REMARK    7  A    between atoms: C_16  and  N_17 
REMARK       I    between atoms: N_17  and  C_18 
REMARK       I    between atoms: C_18  and  N_19 
REMARK    8  A    between atoms: N_19  and  C_20 
ROOT
HETATM    1  N   UNL     1       8.866  28.742  56.365  1.00  0.00    -0.065 N 
HETATM    2  H   UNL     1       9.207  27.769  56.373  1.00  0.00     0.280 HD
HETATM    3  C   UNL     1       7.912  28.850  57.548  1.00  0.00     0.260 C 
HETATM    4  C   UNL     1       8.464  30.010  58.392  1.00  0.00     0.113 C 
HETATM    5  C   UNL     1       9.963  29.935  58.142  1.00  0.00     0.054 C 
HETATM    6  C   UNL     1      10.044  29.645  56.657  1.00  0.00     0.237 C 
ENDROOT
BRANCH   1   7
HETATM    7  C   UNL     1       8.252  28.985  55.014  1.00  0.00     0.273 C 
BRANCH   7   8
HETATM    8  C   UNL     1       7.247  27.938  54.616  1.00  0.00    -0.029 A 
HETATM    9  C   UNL     1       7.558  26.575  54.750  1.00  0.00     0.019 A 
HETATM   10  C   UNL     1       6.625  25.582  54.410  1.00  0.00    -0.018 A 
HETATM   11  C   UNL     1       5.370  25.985  53.950  1.00  0.00     0.105 A 
HETATM   12  C   UNL     1       5.038  27.338  53.793  1.00  0.00     0.102 A 
HETATM   13  C   UNL     1       5.981  28.310  54.125  1.00  0.00     0.048 A 
BRANCH  10  14
HETATM   14  C   UNL     1       6.986  24.123  54.571  1.00  0.00     0.068 C 
BRANCH  14  15
HETATM   15  C   UNL     1       7.789  23.610  53.408  1.00  0.00    -0.032 C 
HETATM   16  C   UNL     1       7.829  22.330  53.017  1.00  0.00     0.007 C 
ENDBRANCH  14  15
ENDBRANCH  10  14
BRANCH  11  17
HETATM   17  O   UNL     1       4.435  25.033  53.640  1.00  0.00    -0.357 OA
HETATM   18  H   UNL     1       4.910  24.179  53.641  1.00  0.00     0.218 HD
ENDBRANCH  11  17
BRANCH  12  19
HETATM   19  O   UNL     1       3.771  27.570  53.327  1.00  0.00    -0.353 OA
HETATM   20  C   UNL     1       3.462  28.891  52.899  1.00  0.00     0.210 C 
ENDBRANCH  12  19
ENDBRANCH   7   8
ENDBRANCH   1   7
BRANCH   4  21
HETATM   21  N   UNL     1       8.077  30.020  59.791  1.00  0.00    -0.337 N 
HETATM   22  C   UNL     1       7.841  31.193  60.482  1.00  0.00     0.321 C 
HETATM   23  N   UNL     1       7.463  30.933  61.776  1.00  0.00    -0.309 N 
HETATM   24  O   UNL     1       7.991  32.285  59.951  1.00  0.00    -0.247 OA
HETATM   25  H   UNL     1       7.682  30.012  62.128  1.00  0.00     0.170 HD
HETATM   26  H   UNL     1       7.555  29.222  60.133  1.00  0.00     0.164 HD
BRANCH  23  27
HETATM   27  C   UNL     1       6.991  31.857  62.731  1.00  0.00     0.036 A 
HETATM   28  C   UNL     1       5.635  32.084  62.983  1.00  0.00     0.032 A 
HETATM   29  C   UNL     1       5.246  32.996  63.970  1.00  0.00     0.044 A 
HETATM   30  C   UNL     1       6.211  33.677  64.700  1.00  0.00     0.116 A 
HETATM   31  F   UNL     1       5.835  34.547  65.645  1.00  0.00    -0.206 F 
HETATM   32  C   UNL     1       7.562  33.463  64.464  1.00  0.00     0.044 A 
HETATM   33  C   UNL     1       7.952  32.549  63.482  1.00  0.00     0.032 A 
ENDBRANCH  23  27
ENDBRANCH   4  21
TORSDOF 8
ENDMDL
MODEL 2
REMARK VINA RESULT:      -8.9      1.611      2.836
REMARK  8 active torsions:
REMARK  status: ('A' for Active; 'I' for Inactive)
REMARK    1  A    between atoms: O_2  and  C_3 
REMARK    2  A    between atoms: C_4  and  O_5 
REMARK    3  A    between atoms: C_6  and  C_7 
REMARK    4  A    between atoms: C_7  and  C_8 
REMARK    5  A    between atoms: C_11  and  C_12 
REMARK    6  A    between atoms: C_12  and  N_13 
REMARK    7  A    between atoms: C_16  and  N_17 
REMARK       I    between atoms: N_17  and  C_18 
REMARK       I    between atoms: C_18  and  N_19 
REMARK    8  A    between atoms: N_19  and  C_20 
ROOT
HETATM    1  N   UNL     1       8.379  28.440  56.554  1.00  0.00    -0.065 N 
HETATM    2  H   UNL     1       8.874  27.537  56.581  1.00  0.00     0.280 HD
HETATM    3  C   UNL     1       7.685  28.566  57.904  1.00  0.00     0.260 C 
HETATM    4  C   UNL     1       8.194  29.894  58.485  1.00  0.00     0.113 C 
HETATM    5  C   UNL     1       9.600  30.005  57.913  1.00  0.00     0.054 C 
HETATM    6  C   UNL     1       9.421  29.534  56.483  1.00  0.00     0.237 C 
ENDROOT
BRANCH   1   7
HETATM    7  C   UNL     1       7.468  28.410  55.359  1.00  0.00     0.273 C 
BRANCH   7   8
HETATM    8  C   UNL     1       7.316  27.039  54.755  1.00  0.00    -0.029 A 
HETATM    9  C   UNL     1       6.773  26.892  53.468  1.00  0.00     0.019 A 
HETATM   10  C   UNL     1       6.648  25.625  52.876  1.00  0.00    -0.018 A 
HETATM   11  C   UNL     1       7.095  24.514  53.593  1.00  0.00     0.105 A 
HETATM   12  C   UNL     1       7.626  24.630  54.885  1.00  0.00     0.102 A 
HETATM   13  C   UNL     1       7.733  25.895  55.462  1.00  0.00     0.048 A 
BRANCH  10  14
HETATM   14  C   UNL     1       6.066  25.498  51.487  1.00  0.00     0.068 C 
BRANCH  14  15
HETATM   15  C   UNL     1       5.139  26.635  51.158  1.00  0.00    -0.032 C 
HETATM   16  C   UNL     1       5.063  27.233  49.962  1.00  0.00     0.007 C 
ENDBRANCH  14  15
ENDBRANCH  10  14
BRANCH  11  17
HETATM   17  O   UNL     1       7.007  23.272  53.022  1.00  0.00    -0.357 OA
HETATM   18  H   UNL     1       7.822  22.798  53.281  1.00  0.00     0.218 HD
ENDBRANCH  11  17
BRANCH  12  19
HETATM   19  O   UNL     1       8.013  23.447  55.458  1.00  0.00    -0.353 OA
HETATM   20  C   UNL     1       8.384  23.475  56.831  1.00  0.00     0.210 C 
ENDBRANCH  12  19
ENDBRANCH   7   8
ENDBRANCH   1   7
BRANCH   4  21
HETATM   21  N   UNL     1       8.109  30.035  59.926  1.00  0.00    -0.337 N 
HETATM   22  C   UNL     1       7.616  31.177  60.528  1.00  0.00     0.321 C 
HETATM   23  N   UNL     1       7.613  31.049  61.896  1.00  0.00    -0.309 N 
HETATM   24  O   UNL     1       7.268  32.145  59.866  1.00  0.00    -0.247 OA
HETATM   25  H   UNL     1       8.204  30.325  62.276  1.00  0.00     0.170 HD
HETATM   26  H   UNL     1       7.975  29.188  60.467  1.00  0.00     0.164 HD
BRANCH  23  27
HETATM   27  C   UNL     1       7.043  31.932  62.835  1.00  0.00     0.036 A 
HETATM   28  C   UNL     1       5.666  32.085  63.017  1.00  0.00     0.032 A 
HETATM   29  C   UNL     1       5.177  32.960  63.993  1.00  0.00     0.044 A 
HETATM   30  C   UNL     1       6.064  33.679  64.782  1.00  0.00     0.116 A 
HETATM   31  F   UNL     1       5.594  34.513  65.717  1.00  0.00    -0.206 F 
HETATM   32  C   UNL     1       7.435  33.539  64.617  1.00  0.00     0.044 A 
HETATM   33  C   UNL     1       7.925  32.661  63.646  1.00  0.00     0.032 A 
ENDBRANCH  23  27
ENDBRANCH   4  21
TORSDOF 8
ENDMDL
MODEL 3
REMARK VINA RESULT:      -8.8      1.493      2.042
REMARK  8 active torsions:
REMARK  status: ('A' for Active; 'I' for Inactive)
REMARK    1  A    between atoms: O_2  and  C_3 
REMARK    2  A    between atoms: C_4  and  O_5 
REMARK    3  A    between atoms: C_6  and  C_7 
REMARK    4  A    between atoms: C_7  and  C_8 
REMARK    5  A    between atoms: C_11  and  C_12 
REMARK    6  A    between atoms: C_12  and  N_13 
REMARK    7  A    between atoms: C_16  and  N_17 
REMARK       I    between atoms: N_17  and  C_18 
REMARK       I    between atoms: C_18  and  N_19 
REMARK    8  A    between atoms: N_19  and  C_20 
ROOT
HETATM    1  N   UNL     1       8.121  28.155  56.627  1.00  0.00    -0.065 N 
HETATM    2  H   UNL     1       8.683  27.292  56.638  1.00  0.00     0.280 HD
HETATM    3  C   UNL     1       7.648  28.354  58.061  1.00  0.00     0.260 C 
HETATM    4  C   UNL     1       8.139  29.759  58.445  1.00  0.00     0.113 C 
HETATM    5  C   UNL     1       9.420  29.909  57.638  1.00  0.00     0.054 C 
HETATM    6  C   UNL     1       9.048  29.304  56.298  1.00  0.00     0.237 C 
ENDROOT
BRANCH   1   7
HETATM    7  C   UNL     1       7.033  27.961  55.608  1.00  0.00     0.273 C 
BRANCH   7   8
HETATM    8  C   UNL     1       7.196  26.710  54.788  1.00  0.00    -0.029 A 
HETATM    9  C   UNL     1       7.873  25.601  55.321  1.00  0.00     0.019 A 
HETATM   10  C   UNL     1       8.013  24.414  54.584  1.00  0.00    -0.018 A 
HETATM   11  C   UNL     1       7.444  24.358  53.310  1.00  0.00     0.105 A 
HETATM   12  C   UNL     1       6.777  25.454  52.747  1.00  0.00     0.102 A 
HETATM   13  C   UNL     1       6.657  26.629  53.489  1.00  0.00     0.048 A 
BRANCH  10  14
HETATM   14  C   UNL     1       8.741  23.235  55.187  1.00  0.00     0.068 C 
BRANCH  14  15
HETATM   15  C   UNL     1       7.805  22.301  55.903  1.00  0.00    -0.032 C 
HETATM   16  C   UNL     1       7.539  21.047  55.517  1.00  0.00     0.007 C 
ENDBRANCH  14  15
ENDBRANCH  10  14
BRANCH  11  17
HETATM   17  O   UNL     1       7.545  23.200  52.585  1.00  0.00    -0.357 OA
HETATM   18  H   UNL     1       8.353  22.751  52.904  1.00  0.00     0.218 HD
ENDBRANCH  11  17
BRANCH  12  19
HETATM   19  O   UNL     1       6.281  25.242  51.487  1.00  0.00    -0.353 OA
HETATM   20  C   UNL     1       5.510  26.285  50.903  1.00  0.00     0.210 C 
ENDBRANCH  12  19
ENDBRANCH   7   8
ENDBRANCH   1   7
BRANCH   4  21
HETATM   21  N   UNL     1       8.278  30.020  59.865  1.00  0.00    -0.337 N 
HETATM   22  C   UNL     1       7.639  31.074  60.488  1.00  0.00     0.321 C 
HETATM   23  N   UNL     1       7.908  31.087  61.835  1.00  0.00    -0.309 N 
HETATM   24  O   UNL     1       6.956  31.867  59.854  1.00  0.00    -0.247 OA
HETATM   25  H   UNL     1       8.714  30.557  62.132  1.00  0.00     0.170 HD
HETATM   26  H   UNL     1       8.450  29.223  60.468  1.00  0.00     0.164 HD
BRANCH  23  27
HETATM   27  C   UNL     1       7.316  31.907  62.817  1.00  0.00     0.036 A 
HETATM   28  C   UNL     1       8.044  32.748  63.663  1.00  0.00     0.032 A 
HETATM   29  C   UNL     1       7.381  33.556  64.593  1.00  0.00     0.044 A 
HETATM   30  C   UNL     1       5.996  33.520  64.675  1.00  0.00     0.116 A 
HETATM   31  F   UNL     1       5.364  34.296  65.564  1.00  0.00    -0.206 F 
HETATM   32  C   UNL     1       5.256  32.692  63.842  1.00  0.00     0.044 A 
HETATM   33  C   UNL     1       5.917  31.888  62.909  1.00  0.00     0.032 A 
ENDBRANCH  23  27
ENDBRANCH   4  21
TORSDOF 8
ENDMDL
MODEL 4
REMARK VINA RESULT:      -8.7      2.786      4.601
REMARK  8 active torsions:
REMARK  status: ('A' for Active; 'I' for Inactive)
REMARK    1  A    between atoms: O_2  and  C_3 
REMARK    2  A    between atoms: C_4  and  O_5 
REMARK    3  A    between atoms: C_6  and  C_7 
REMARK    4  A    between atoms: C_7  and  C_8 
REMARK    5  A    between atoms: C_11  and  C_12 
REMARK    6  A    between atoms: C_12  and  N_13 
REMARK    7  A    between atoms: C_16  and  N_17 
REMARK       I    between atoms: N_17  and  C_18 
REMARK       I    between atoms: C_18  and  N_19 
REMARK    8  A    between atoms: N_19  and  C_20 
ROOT
HETATM    1  N   UNL     1       5.013  27.416  52.993  1.00  0.00    -0.065 N 
HETATM    2  H   UNL     1       5.351  27.672  52.054  1.00  0.00     0.280 HD
HETATM    3  C   UNL     1       6.109  27.854  53.956  1.00  0.00     0.260 C 
HETATM    4  C   UNL     1       5.406  28.790  54.951  1.00  0.00     0.113 C 
HETATM    5  C   UNL     1       4.308  29.426  54.110  1.00  0.00     0.054 C 
HETATM    6  C   UNL     1       3.793  28.260  53.289  1.00  0.00     0.237 C 
ENDROOT
BRANCH   1   7
HETATM    7  C   UNL     1       4.722  25.941  52.972  1.00  0.00     0.273 C 
BRANCH   7   8
HETATM    8  C   UNL     1       5.729  25.120  53.731  1.00  0.00    -0.029 A 
HETATM    9  C   UNL     1       6.595  24.255  53.044  1.00  0.00     0.019 A 
HETATM   10  C   UNL     1       7.561  23.501  53.730  1.00  0.00    -0.018 A 
HETATM   11  C   UNL     1       7.650  23.647  55.116  1.00  0.00     0.105 A 
HETATM   12  C   UNL     1       6.789  24.492  55.829  1.00  0.00     0.102 A 
HETATM   13  C   UNL     1       5.829  25.225  55.132  1.00  0.00     0.048 A 
BRANCH  10  14
HETATM   14  C   UNL     1       8.484  22.582  52.962  1.00  0.00     0.068 C 
BRANCH  14  15
HETATM   15  C   UNL     1       7.991  21.162  52.960  1.00  0.00    -0.032 C 
HETATM   16  C   UNL     1       8.700  20.110  53.391  1.00  0.00     0.007 C 
ENDBRANCH  14  15
ENDBRANCH  10  14
BRANCH  11  17
HETATM   17  O   UNL     1       8.604  22.942  55.801  1.00  0.00    -0.357 OA
HETATM   18  H   UNL     1       8.144  22.170  56.187  1.00  0.00     0.218 HD
ENDBRANCH  11  17
BRANCH  12  19
HETATM   19  O   UNL     1       7.000  24.521  57.182  1.00  0.00    -0.353 OA
HETATM   20  C   UNL     1       7.456  25.743  57.748  1.00  0.00     0.210 C 
ENDBRANCH  12  19
ENDBRANCH   7   8
ENDBRANCH   1   7
BRANCH   4  21
HETATM   21  N   UNL     1       6.259  29.730  55.654  1.00  0.00    -0.337 N 
HETATM   22  C   UNL     1       6.294  29.808  57.033  1.00  0.00     0.321 C 
HETATM   23  N   UNL     1       7.199  30.752  57.450  1.00  0.00    -0.309 N 
HETATM   24  O   UNL     1       5.567  29.109  57.726  1.00  0.00    -0.247 OA
HETATM   25  H   UNL     1       7.481  31.433  56.760  1.00  0.00     0.170 HD
HETATM   26  H   UNL     1       7.124  29.999  55.200  1.00  0.00     0.164 HD
BRANCH  23  27
HETATM   27  C   UNL     1       7.624  31.004  58.770  1.00  0.00     0.036 A 
HETATM   28  C   UNL     1       8.704  30.353  59.373  1.00  0.00     0.032 A 
HETATM   29  C   UNL     1       9.085  30.681  60.678  1.00  0.00     0.044 A 
HETATM   30  C   UNL     1       8.385  31.656  61.377  1.00  0.00     0.116 A 
HETATM   31  F   UNL     1       8.754  31.970  62.624  1.00  0.00    -0.206 F 
HETATM   32  C   UNL     1       7.311  32.314  60.794  1.00  0.00     0.044 A 
HETATM   33  C   UNL     1       6.933  31.991  59.488  1.00  0.00     0.032 A 
ENDBRANCH  23  27
ENDBRANCH   4  21
TORSDOF 8
ENDMDL
MODEL 5
REMARK VINA RESULT:      -8.5      4.423     10.350
REMARK  8 active torsions:
REMARK  status: ('A' for Active; 'I' for Inactive)
REMARK    1  A    between atoms: O_2  and  C_3 
REMARK    2  A    between atoms: C_4  and  O_5 
REMARK    3  A    between atoms: C_6  and  C_7 
REMARK    4  A    between atoms: C_7  and  C_8 
REMARK    5  A    between atoms: C_11  and  C_12 
REMARK    6  A    between atoms: C_12  and  N_13 
REMARK    7  A    between atoms: C_16  and  N_17 
REMARK       I    between atoms: N_17  and  C_18 
REMARK       I    between atoms: C_18  and  N_19 
REMARK    8  A    between atoms: N_19  and  C_20 
ROOT
HETATM    1  N   UNL     1       5.098  30.223  57.757  1.00  0.00    -0.065 N 
HETATM    2  H   UNL     1       4.631  30.126  58.670  1.00  0.00     0.280 HD
HETATM    3  C   UNL     1       5.671  28.847  57.442  1.00  0.00     0.260 C 
HETATM    4  C   UNL     1       5.073  28.477  56.076  1.00  0.00     0.113 C 
HETATM    5  C   UNL     1       3.717  29.168  56.093  1.00  0.00     0.054 C 
HETATM    6  C   UNL     1       4.031  30.511  56.723  1.00  0.00     0.237 C 
ENDROOT
BRANCH   1   7
HETATM    7  C   UNL     1       6.107  31.330  57.891  1.00  0.00     0.273 C 
BRANCH   7   8
HETATM    8  C   UNL     1       6.035  32.050  59.210  1.00  0.00    -0.029 A 
HETATM    9  C   UNL     1       7.047  31.871  60.167  1.00  0.00     0.019 A 
HETATM   10  C   UNL     1       7.013  32.554  61.393  1.00  0.00    -0.018 A 
HETATM   11  C   UNL     1       5.954  33.432  61.631  1.00  0.00     0.105 A 
HETATM   12  C   UNL     1       4.923  33.618  60.700  1.00  0.00     0.102 A 
HETATM   13  C   UNL     1       4.966  32.923  59.492  1.00  0.00     0.048 A 
BRANCH  10  14
HETATM   14  C   UNL     1       8.121  32.347  62.401  1.00  0.00     0.068 C 
BRANCH  14  15
HETATM   15  C   UNL     1       8.448  30.892  62.588  1.00  0.00    -0.032 C 
HETATM   16  C   UNL     1       9.514  30.278  62.060  1.00  0.00     0.007 C 
ENDBRANCH  14  15
ENDBRANCH  10  14
BRANCH  11  17
HETATM   17  O   UNL     1       5.917  34.130  62.810  1.00  0.00    -0.357 OA
HETATM   18  H   UNL     1       4.988  34.408  62.929  1.00  0.00     0.218 HD
ENDBRANCH  11  17
BRANCH  12  19
HETATM   19  O   UNL     1       3.953  34.507  61.085  1.00  0.00    -0.353 OA
HETATM   20  C   UNL     1       2.598  34.132  60.868  1.00  0.00     0.210 C 
ENDBRANCH  12  19
ENDBRANCH   7   8
ENDBRANCH   1   7
BRANCH   4  21
HETATM   21  N   UNL     1       5.032  27.061  55.761  1.00  0.00    -0.337 N 
HETATM   22  C   UNL     1       6.106  26.399  55.196  1.00  0.00     0.321 C 
HETATM   23  N   UNL     1       5.826  25.066  55.024  1.00  0.00    -0.309 N 
HETATM   24  O   UNL     1       7.131  26.994  54.895  1.00  0.00    -0.247 OA
HETATM   25  H   UNL     1       4.850  24.810  55.042  1.00  0.00     0.170 HD
HETATM   26  H   UNL     1       4.438  26.475  56.336  1.00  0.00     0.164 HD
BRANCH  23  27
HETATM   27  C   UNL     1       6.719  24.049  54.629  1.00  0.00     0.036 A 
HETATM   28  C   UNL     1       7.340  23.172  55.523  1.00  0.00     0.032 A 
HETATM   29  C   UNL     1       8.190  22.168  55.049  1.00  0.00     0.044 A 
HETATM   30  C   UNL     1       8.419  22.044  53.685  1.00  0.00     0.116 A 
HETATM   31  F   UNL     1       9.232  21.081  53.234  1.00  0.00    -0.206 F 
HETATM   32  C   UNL     1       7.811  22.905  52.782  1.00  0.00     0.044 A 
HETATM   33  C   UNL     1       6.957  23.905  53.254  1.00  0.00     0.032 A 
ENDBRANCH  23  27
ENDBRANCH   4  21
TORSDOF 8
ENDMDL
MODEL 6
REMARK VINA RESULT:      -8.4      4.183      9.937
REMARK  8 active torsions:
REMARK  status: ('A' for Active; 'I' for Inactive)
REMARK    1  A    between atoms: O_2  and  C_3 
REMARK    2  A    between atoms: C_4  and  O_5 
REMARK    3  A    between atoms: C_6  and  C_7 
REMARK    4  A    between atoms: C_7  and  C_8 
REMARK    5  A    between atoms: C_11  and  C_12 
REMARK    6  A    between atoms: C_12  and  N_13 
REMARK    7  A    between atoms: C_16  and  N_17 
REMARK       I    between atoms: N_17  and  C_18 
REMARK       I    between atoms: C_18  and  N_19 
REMARK    8  A    between atoms: N_19  and  C_20 
ROOT
HETATM    1  N   UNL     1       4.239  31.697  58.294  1.00  0.00    -0.065 N 
HETATM    2  H   UNL     1       3.586  31.650  59.089  1.00  0.00     0.280 HD
HETATM    3  C   UNL     1       4.684  30.262  58.044  1.00  0.00     0.260 C 
HETATM    4  C   UNL     1       4.337  29.994  56.572  1.00  0.00     0.113 C 
HETATM    5  C   UNL     1       3.106  30.860  56.344  1.00  0.00     0.054 C 
HETATM    6  C   UNL     1       3.452  32.139  57.079  1.00  0.00     0.237 C 
ENDROOT
BRANCH   1   7
HETATM    7  C   UNL     1       5.332  32.658  58.674  1.00  0.00     0.273 C 
BRANCH   7   8
HETATM    8  C   UNL     1       6.485  32.002  59.384  1.00  0.00    -0.029 A 
HETATM    9  C   UNL     1       6.660  32.188  60.765  1.00  0.00     0.019 A 
HETATM   10  C   UNL     1       7.713  31.564  61.452  1.00  0.00    -0.018 A 
HETATM   11  C   UNL     1       8.575  30.736  60.729  1.00  0.00     0.105 A 
HETATM   12  C   UNL     1       8.432  30.544  59.348  1.00  0.00     0.102 A 
HETATM   13  C   UNL     1       7.387  31.181  58.680  1.00  0.00     0.048 A 
BRANCH  10  14
HETATM   14  C   UNL     1       7.873  31.777  62.940  1.00  0.00     0.068 C 
BRANCH  14  15
HETATM   15  C   UNL     1       7.410  33.143  63.366  1.00  0.00    -0.032 C 
HETATM   16  C   UNL     1       7.355  33.565  64.635  1.00  0.00     0.007 C 
ENDBRANCH  14  15
ENDBRANCH  10  14
BRANCH  11  17
HETATM   17  O   UNL     1       9.592  30.095  61.386  1.00  0.00    -0.357 OA
HETATM   18  H   UNL     1       9.288  29.980  62.308  1.00  0.00     0.218 HD
ENDBRANCH  11  17
BRANCH  12  19
HETATM   19  O   UNL     1       9.360  29.708  58.783  1.00  0.00    -0.353 OA
HETATM   20  C   UNL     1       9.169  29.343  57.422  1.00  0.00     0.210 C 
ENDBRANCH  12  19
ENDBRANCH   7   8
ENDBRANCH   1   7
BRANCH   4  21
HETATM   21  N   UNL     1       4.181  28.601  56.197  1.00  0.00    -0.337 N 
HETATM   22  C   UNL     1       5.146  27.916  55.484  1.00  0.00     0.321 C 
HETATM   23  N   UNL     1       4.775  26.610  55.282  1.00  0.00    -0.309 N 
HETATM   24  O   UNL     1       6.165  28.473  55.097  1.00  0.00    -0.247 OA
HETATM   25  H   UNL     1       3.793  26.404  55.397  1.00  0.00     0.170 HD
HETATM   26  H   UNL     1       3.622  28.017  56.807  1.00  0.00     0.164 HD
BRANCH  23  27
HETATM   27  C   UNL     1       5.560  25.572  54.740  1.00  0.00     0.036 A 
HETATM   28  C   UNL     1       6.385  24.745  55.506  1.00  0.00     0.032 A 
HETATM   29  C   UNL     1       7.110  23.715  54.898  1.00  0.00     0.044 A 
HETATM   30  C   UNL     1       7.009  23.515  53.528  1.00  0.00     0.116 A 
HETATM   31  F   UNL     1       7.702  22.527  52.949  1.00  0.00    -0.206 F 
HETATM   32  C   UNL     1       6.193  24.325  52.751  1.00  0.00     0.044 A 
HETATM   33  C   UNL     1       5.464  25.351  53.358  1.00  0.00     0.032 A 
ENDBRANCH  23  27
ENDBRANCH   4  21
TORSDOF 8
ENDMDL
MODEL 7
REMARK VINA RESULT:      -8.3      2.876      5.103
REMARK  8 active torsions:
REMARK  status: ('A' for Active; 'I' for Inactive)
REMARK    1  A    between atoms: O_2  and  C_3 
REMARK    2  A    between atoms: C_4  and  O_5 
REMARK    3  A    between atoms: C_6  and  C_7 
REMARK    4  A    between atoms: C_7  and  C_8 
REMARK    5  A    between atoms: C_11  and  C_12 
REMARK    6  A    between atoms: C_12  and  N_13 
REMARK    7  A    between atoms: C_16  and  N_17 
REMARK       I    between atoms: N_17  and  C_18 
REMARK       I    between atoms: C_18  and  N_19 
REMARK    8  A    between atoms: N_19  and  C_20 
ROOT
HETATM    1  N   UNL     1       5.226  26.936  52.970  1.00  0.00    -0.065 N 
HETATM    2  H   UNL     1       5.623  27.125  52.038  1.00  0.00     0.280 HD
HETATM    3  C   UNL     1       6.239  27.482  53.967  1.00  0.00     0.260 C 
HETATM    4  C   UNL     1       5.444  28.474  54.830  1.00  0.00     0.113 C 
HETATM    5  C   UNL     1       4.395  29.008  53.866  1.00  0.00     0.054 C 
HETATM    6  C   UNL     1       3.968  27.765  53.110  1.00  0.00     0.237 C 
ENDROOT
BRANCH   1   7
HETATM    7  C   UNL     1       4.972  25.456  53.050  1.00  0.00     0.273 C 
BRANCH   7   8
HETATM    8  C   UNL     1       6.079  24.694  53.728  1.00  0.00    -0.029 A 
HETATM    9  C   UNL     1       6.360  24.919  55.085  1.00  0.00     0.019 A 
HETATM   10  C   UNL     1       7.371  24.199  55.744  1.00  0.00    -0.018 A 
HETATM   11  C   UNL     1       8.078  23.239  55.018  1.00  0.00     0.105 A 
HETATM   12  C   UNL     1       7.828  23.005  53.659  1.00  0.00     0.102 A 
HETATM   13  C   UNL     1       6.829  23.737  53.018  1.00  0.00     0.048 A 
BRANCH  10  14
HETATM   14  C   UNL     1       7.647  24.458  57.208  1.00  0.00     0.068 C 
BRANCH  14  15
HETATM   15  C   UNL     1       7.481  25.909  57.565  1.00  0.00    -0.032 C 
HETATM   16  C   UNL     1       8.369  26.869  57.277  1.00  0.00     0.007 C 
ENDBRANCH  14  15
ENDBRANCH  10  14
BRANCH  11  17
HETATM   17  O   UNL     1       9.049  22.506  55.649  1.00  0.00    -0.357 OA
HETATM   18  H   UNL     1       9.900  22.921  55.406  1.00  0.00     0.218 HD
ENDBRANCH  11  17
BRANCH  12  19
HETATM   19  O   UNL     1       8.611  22.036  53.087  1.00  0.00    -0.353 OA
HETATM   20  C   UNL     1       8.049  20.736  52.953  1.00  0.00     0.210 C 
ENDBRANCH  12  19
ENDBRANCH   7   8
ENDBRANCH   1   7
BRANCH   4  21
HETATM   21  N   UNL     1       6.222  29.493  55.510  1.00  0.00    -0.337 N 
HETATM   22  C   UNL     1       6.193  29.650  56.883  1.00  0.00     0.321 C 
HETATM   23  N   UNL     1       7.035  30.659  57.280  1.00  0.00    -0.309 N 
HETATM   24  O   UNL     1       5.470  28.958  57.586  1.00  0.00    -0.247 OA
HETATM   25  H   UNL     1       7.315  31.313  56.564  1.00  0.00     0.170 HD
HETATM   26  H   UNL     1       7.093  29.777  55.077  1.00  0.00     0.164 HD
BRANCH  23  27
HETATM   27  C   UNL     1       7.391  31.006  58.600  1.00  0.00     0.036 A 
HETATM   28  C   UNL     1       6.762  32.018  59.330  1.00  0.00     0.032 A 
HETATM   29  C   UNL     1       7.151  32.281  60.648  1.00  0.00     0.044 A 
HETATM   30  C   UNL     1       8.168  31.536  61.229  1.00  0.00     0.116 A 
HETATM   31  F   UNL     1       8.537  31.789  62.490  1.00  0.00    -0.206 F 
HETATM   32  C   UNL     1       8.803  30.526  60.520  1.00  0.00     0.044 A 
HETATM   33  C   UNL     1       8.411  30.258  59.206  1.00  0.00     0.032 A 
ENDBRANCH  23  27
ENDBRANCH   4  21
TORSDOF 8
ENDMDL
MODEL 8
REMARK VINA RESULT:      -8.2      4.188     11.137
REMARK  8 active torsions:
REMARK  status: ('A' for Active; 'I' for Inactive)
REMARK    1  A    between atoms: O_2  and  C_3 
REMARK    2  A    between atoms: C_4  and  O_5 
REMARK    3  A    between atoms: C_6  and  C_7 
REMARK    4  A    between atoms: C_7  and  C_8 
REMARK    5  A    between atoms: C_11  and  C_12 
REMARK    6  A    between atoms: C_12  and  N_13 
REMARK    7  A    between atoms: C_16  and  N_17 
REMARK       I    between atoms: N_17  and  C_18 
REMARK       I    between atoms: C_18  and  N_19 
REMARK    8  A    between atoms: N_19  and  C_20 
ROOT
HETATM    1  N   UNL     1       7.798  32.630  60.943  1.00  0.00    -0.065 N 
HETATM    2  H   UNL     1       7.630  33.619  60.709  1.00  0.00     0.280 HD
HETATM    3  C   UNL     1       6.858  31.832  60.049  1.00  0.00     0.260 C 
HETATM    4  C   UNL     1       7.773  30.864  59.283  1.00  0.00     0.113 C 
HETATM    5  C   UNL     1       9.074  31.643  59.158  1.00  0.00     0.054 C 
HETATM    6  C   UNL     1       9.211  32.291  60.522  1.00  0.00     0.237 C 
ENDROOT
BRANCH   1   7
HETATM    7  C   UNL     1       7.568  32.480  62.422  1.00  0.00     0.273 C 
BRANCH   7   8
HETATM    8  C   UNL     1       6.536  33.430  62.967  1.00  0.00    -0.029 A 
HETATM    9  C   UNL     1       6.286  34.648  62.316  1.00  0.00     0.019 A 
HETATM   10  C   UNL     1       5.308  35.537  62.792  1.00  0.00    -0.018 A 
HETATM   11  C   UNL     1       4.576  35.168  63.922  1.00  0.00     0.105 A 
HETATM   12  C   UNL     1       4.815  33.965  64.600  1.00  0.00     0.102 A 
HETATM   13  C   UNL     1       5.797  33.100  64.120  1.00  0.00     0.048 A 
BRANCH  10  14
HETATM   14  C   UNL     1       5.057  36.839  62.066  1.00  0.00     0.068 C 
BRANCH  14  15
HETATM   15  C   UNL     1       6.103  37.871  62.382  1.00  0.00    -0.032 C 
HETATM   16  C   UNL     1       6.127  38.613  63.497  1.00  0.00     0.007 C 
ENDBRANCH  14  15
ENDBRANCH  10  14
BRANCH  11  17
HETATM   17  O   UNL     1       3.598  36.008  64.386  1.00  0.00    -0.357 OA
HETATM   18  H   UNL     1       3.258  35.599  65.206  1.00  0.00     0.218 HD
ENDBRANCH  11  17
BRANCH  12  19
HETATM   19  O   UNL     1       4.017  33.752  65.694  1.00  0.00    -0.353 OA
HETATM   20  C   UNL     1       4.580  34.012  66.974  1.00  0.00     0.210 C 
ENDBRANCH  12  19
ENDBRANCH   7   8
ENDBRANCH   1   7
BRANCH   4  21
HETATM   21  N   UNL     1       7.249  30.346  58.033  1.00  0.00    -0.337 N 
HETATM   22  C   UNL     1       7.422  29.030  57.649  1.00  0.00     0.321 C 
HETATM   23  N   UNL     1       6.809  28.784  56.445  1.00  0.00    -0.309 N 
HETATM   24  O   UNL     1       8.067  28.248  58.334  1.00  0.00    -0.247 OA
HETATM   25  H   UNL     1       6.590  29.595  55.884  1.00  0.00     0.170 HD
HETATM   26  H   UNL     1       6.409  30.779  57.668  1.00  0.00     0.164 HD
BRANCH  23  27
HETATM   27  C   UNL     1       6.634  27.536  55.814  1.00  0.00     0.036 A 
HETATM   28  C   UNL     1       5.732  26.565  56.257  1.00  0.00     0.032 A 
HETATM   29  C   UNL     1       5.593  25.362  55.557  1.00  0.00     0.044 A 
HETATM   30  C   UNL     1       6.355  25.133  54.419  1.00  0.00     0.116 A 
HETATM   31  F   UNL     1       6.218  23.982  53.750  1.00  0.00    -0.206 F 
HETATM   32  C   UNL     1       7.255  26.086  53.963  1.00  0.00     0.044 A 
HETATM   33  C   UNL     1       7.391  27.291  54.659  1.00  0.00     0.032 A 
ENDBRANCH  23  27
ENDBRANCH   4  21
TORSDOF 8
ENDMDL
MODEL 9
REMARK VINA RESULT:      -8.2      1.899      2.138
REMARK  8 active torsions:
REMARK  status: ('A' for Active; 'I' for Inactive)
REMARK    1  A    between atoms: O_2  and  C_3 
REMARK    2  A    between atoms: C_4  and  O_5 
REMARK    3  A    between atoms: C_6  and  C_7 
REMARK    4  A    between atoms: C_7  and  C_8 
REMARK    5  A    between atoms: C_11  and  C_12 
REMARK    6  A    between atoms: C_12  and  N_13 
REMARK    7  A    between atoms: C_16  and  N_17 
REMARK       I    between atoms: N_17  and  C_18 
REMARK       I    between atoms: C_18  and  N_19 
REMARK    8  A    between atoms: N_19  and  C_20 
ROOT
HETATM    1  N   UNL     1       7.925  28.314  56.032  1.00  0.00    -0.065 N 
HETATM    2  H   UNL     1       7.710  27.320  56.202  1.00  0.00     0.280 HD
HETATM    3  C   UNL     1       6.743  29.091  56.597  1.00  0.00     0.260 C 
HETATM    4  C   UNL     1       7.363  30.067  57.609  1.00  0.00     0.113 C 
HETATM    5  C   UNL     1       8.576  29.306  58.125  1.00  0.00     0.054 C 
HETATM    6  C   UNL     1       9.135  28.670  56.867  1.00  0.00     0.237 C 
ENDROOT
BRANCH   1   7
HETATM    7  C   UNL     1       8.157  28.471  54.555  1.00  0.00     0.273 C 
BRANCH   7   8
HETATM    8  C   UNL     1       7.238  27.629  53.711  1.00  0.00    -0.029 A 
HETATM    9  C   UNL     1       7.449  26.245  53.605  1.00  0.00     0.019 A 
HETATM   10  C   UNL     1       6.588  25.437  52.846  1.00  0.00    -0.018 A 
HETATM   11  C   UNL     1       5.502  26.044  52.211  1.00  0.00     0.105 A 
HETATM   12  C   UNL     1       5.276  27.425  52.289  1.00  0.00     0.102 A 
HETATM   13  C   UNL     1       6.148  28.214  53.038  1.00  0.00     0.048 A 
BRANCH  10  14
HETATM   14  C   UNL     1       6.836  23.949  52.755  1.00  0.00     0.068 C 
BRANCH  14  15
HETATM   15  C   UNL     1       8.076  23.538  53.499  1.00  0.00    -0.032 C 
HETATM   16  C   UNL     1       8.203  22.402  54.196  1.00  0.00     0.007 C 
ENDBRANCH  14  15
ENDBRANCH  10  14
BRANCH  11  17
HETATM   17  O   UNL     1       4.633  25.270  51.489  1.00  0.00    -0.357 OA
HETATM   18  H   UNL     1       4.573  25.684  50.605  1.00  0.00     0.218 HD
ENDBRANCH  11  17
BRANCH  12  19
HETATM   19  O   UNL     1       4.173  27.868  51.606  1.00  0.00    -0.353 OA
HETATM   20  C   UNL     1       3.332  28.809  52.262  1.00  0.00     0.210 C 
ENDBRANCH  12  19
ENDBRANCH   7   8
ENDBRANCH   1   7
BRANCH   4  21
HETATM   21  N   UNL     1       6.473  30.568  58.639  1.00  0.00    -0.337 N 
HETATM   22  C   UNL     1       6.727  31.737  59.330  1.00  0.00     0.321 C 
HETATM   23  N   UNL     1       5.723  32.007  60.227  1.00  0.00    -0.309 N 
HETATM   24  O   UNL     1       7.746  32.384  59.130  1.00  0.00    -0.247 OA
HETATM   25  H   UNL     1       5.127  31.230  60.474  1.00  0.00     0.170 HD
HETATM   26  H   UNL     1       5.489  30.342  58.551  1.00  0.00     0.164 HD
BRANCH  23  27
HETATM   27  C   UNL     1       5.552  33.179  60.991  1.00  0.00     0.036 A 
HETATM   28  C   UNL     1       6.286  33.465  62.145  1.00  0.00     0.032 A 
HETATM   29  C   UNL     1       6.080  34.666  62.832  1.00  0.00     0.044 A 
HETATM   30  C   UNL     1       5.140  35.575  62.365  1.00  0.00     0.116 A 
HETATM   31  F   UNL     1       4.947  36.724  63.023  1.00  0.00    -0.206 F 
HETATM   32  C   UNL     1       4.403  35.309  61.220  1.00  0.00     0.044 A 
HETATM   33  C   UNL     1       4.612  34.112  60.530  1.00  0.00     0.032 A 
ENDBRANCH  23  27
ENDBRANCH   4  21
TORSDOF 8
ENDMDL
MODEL 10
REMARK VINA RESULT:      -8.1      4.271     10.713
REMARK  8 active torsions:
REMARK  status: ('A' for Active; 'I' for Inactive)
REMARK    1  A    between atoms: O_2  and  C_3 
REMARK    2  A    between atoms: C_4  and  O_5 
REMARK    3  A    between atoms: C_6  and  C_7 
REMARK    4  A    between atoms: C_7  and  C_8 
REMARK    5  A    between atoms: C_11  and  C_12 
REMARK    6  A    between atoms: C_12  and  N_13 
REMARK    7  A    between atoms: C_16  and  N_17 
REMARK       I    between atoms: N_17  and  C_18 
REMARK       I    between atoms: C_18  and  N_19 
REMARK    8  A    between atoms: N_19  and  C_20 
ROOT
HETATM    1  N   UNL     1       5.008  30.525  58.043  1.00  0.00    -0.065 N 
HETATM    2  H   UNL     1       4.689  30.334  59.004  1.00  0.00     0.280 HD
HETATM    3  C   UNL     1       5.543  29.199  57.518  1.00  0.00     0.260 C 
HETATM    4  C   UNL     1       4.745  28.937  56.230  1.00  0.00     0.113 C 
HETATM    5  C   UNL     1       3.400  29.588  56.519  1.00  0.00     0.054 C 
HETATM    6  C   UNL     1       3.791  30.876  57.216  1.00  0.00     0.237 C 
ENDROOT
BRANCH   1   7
HETATM    7  C   UNL     1       6.012  31.641  58.124  1.00  0.00     0.273 C 
BRANCH   7   8
HETATM    8  C   UNL     1       6.302  32.085  59.533  1.00  0.00    -0.029 A 
HETATM    9  C   UNL     1       5.461  33.014  60.166  1.00  0.00     0.019 A 
HETATM   10  C   UNL     1       5.698  33.420  61.489  1.00  0.00    -0.018 A 
HETATM   11  C   UNL     1       6.784  32.863  62.168  1.00  0.00     0.105 A 
HETATM   12  C   UNL     1       7.648  31.945  61.554  1.00  0.00     0.102 A 
HETATM   13  C   UNL     1       7.404  31.562  60.236  1.00  0.00     0.048 A 
BRANCH  10  14
HETATM   14  C   UNL     1       4.771  34.417  62.148  1.00  0.00     0.068 C 
BRANCH  14  15
HETATM   15  C   UNL     1       3.610  33.744  62.825  1.00  0.00    -0.032 C 
HETATM   16  C   UNL     1       2.340  34.162  62.754  1.00  0.00     0.007 C 
ENDBRANCH  14  15
ENDBRANCH  10  14
BRANCH  11  17
HETATM   17  O   UNL     1       7.015  33.225  63.468  1.00  0.00    -0.357 OA
HETATM   18  H   UNL     1       7.449  34.100  63.431  1.00  0.00     0.218 HD
ENDBRANCH  11  17
BRANCH  12  19
HETATM   19  O   UNL     1       8.669  31.496  62.350  1.00  0.00    -0.353 OA
HETATM   20  C   UNL     1       9.423  30.384  61.881  1.00  0.00     0.210 C 
ENDBRANCH  12  19
ENDBRANCH   7   8
ENDBRANCH   1   7
BRANCH   4  21
HETATM   21  N   UNL     1       4.674  27.555  55.795  1.00  0.00    -0.337 N 
HETATM   22  C   UNL     1       5.742  26.913  55.198  1.00  0.00     0.321 C 
HETATM   23  N   UNL     1       5.431  25.608  54.907  1.00  0.00    -0.309 N 
HETATM   24  O   UNL     1       6.790  27.502  54.969  1.00  0.00    -0.247 OA
HETATM   25  H   UNL     1       4.447  25.379  54.882  1.00  0.00     0.170 HD
HETATM   26  H   UNL     1       4.051  26.940  56.306  1.00  0.00     0.164 HD
BRANCH  23  27
HETATM   27  C   UNL     1       6.305  24.603  54.444  1.00  0.00     0.036 A 
HETATM   28  C   UNL     1       6.566  24.368  53.092  1.00  0.00     0.032 A 
HETATM   29  C   UNL     1       7.472  23.372  52.712  1.00  0.00     0.044 A 
HETATM   30  C   UNL     1       8.111  22.614  53.684  1.00  0.00     0.116 A 
HETATM   31  F   UNL     1       8.979  21.663  53.318  1.00  0.00    -0.206 F 
HETATM   32  C   UNL     1       7.865  22.834  55.032  1.00  0.00     0.044 A 
HETATM   33  C   UNL     1       6.965  23.832  55.412  1.00  0.00     0.032 A 
ENDBRANCH  23  27
ENDBRANCH   4  21
TORSDOF 8
ENDMDL
