MODEL 1
REMARK VINA RESULT:      -9.5      0.000      0.000
REMARK  6 active torsions:
REMARK  status: ('A' for Active; 'I' for Inactive)
REMARK    1  A    between atoms: CG_8  and  CB_9 
REMARK    2  A    between atoms: CB_9  and  CA_10 
REMARK    3  A    between atoms: CA_10  and  N_11 
REMARK    4  A    between atoms: CA_10  and  C_12 
REMARK       I    between atoms: N_11  and  C_18 
REMARK    5  A    between atoms: C_12  and  O_13 
REMARK       I    between atoms: C_18  and  N_19 
REMARK    6  A    between atoms: N_19  and  C_20 
ROOT
ATOM      1  CA  TRP A   1       6.197  25.774  56.068  1.00  0.00     0.114 C 
ENDROOT
BRANCH   1   2
ATOM      2  CB  TRP A   1       6.950  24.448  56.310  1.00  0.00     0.068 C 
BRANCH   2   3
ATOM      3  CG  TRP A   1       7.192  23.686  55.038  1.00  0.00    -0.028 A 
ATOM      4  CD2 TRP A   1       7.716  22.359  54.902  1.00  0.00    -0.002 A 
ATOM      5  CE3 TRP A   1       8.134  21.368  55.811  1.00  0.00     0.014 A 
ATOM      6  CE2 TRP A   1       7.800  22.082  53.537  1.00  0.00     0.042 A 
ATOM      7  CZ3 TRP A   1       8.642  20.156  55.330  1.00  0.00     0.001 A 
ATOM      8  CH2 TRP A   1       8.725  19.915  53.961  1.00  0.00     0.002 A 
ATOM      9  CZ2 TRP A   1       8.299  20.873  53.036  1.00  0.00     0.030 A 
ATOM     10  NE1 TRP A   1       7.313  23.180  52.869  1.00  0.00    -0.365 N 
ATOM     11  HE1 TRP A   1       7.239  23.253  51.864  1.00  0.00     0.165 HD
ATOM     12  CD1 TRP A   1       6.947  24.152  53.759  1.00  0.00     0.096 A 
ENDBRANCH   2   3
ENDBRANCH   1   2
BRANCH   1  13
ATOM     13  N   TRP A   1       7.079  26.950  56.126  1.00  0.00    -0.336 N 
HETATM   14  C   UNK A   0       7.285  27.795  55.085  1.00  0.00     0.321 C 
HETATM   15  N   UNK A   0       8.112  28.856  55.286  1.00  0.00    -0.309 N 
HETATM   16  O   UNK A   0       6.817  27.605  53.965  1.00  0.00    -0.247 OA
HETATM   17  H   UNK A   0       8.377  29.282  54.406  1.00  0.00     0.170 HD
ATOM     18  H   TRP A   1       7.815  26.924  56.819  1.00  0.00     0.164 HD
BRANCH  15  19
HETATM   19  C   UNK A   0       8.507  29.545  56.449  1.00  0.00     0.036 A 
HETATM   20  C   UNK A   0       7.619  30.105  57.372  1.00  0.00     0.039 A 
HETATM   21  C   UNK A   0       8.131  30.832  58.436  1.00  0.00    -0.024 A 
HETATM   22  C   UNK A   0       9.494  31.014  58.600  1.00  0.00    -0.026 A 
HETATM   23  C   UNK A   0       7.405  31.570  59.500  1.00  0.00     0.207 C 
HETATM   24  C   UNK A   0       9.735  31.871  59.788  1.00  0.00     0.207 C 
HETATM   25  C   UNK A   0      10.396  30.477  57.702  1.00  0.00     0.012 A 
HETATM   26  O   UNK A   0       8.441  31.976  60.427  1.00  0.00    -0.382 OA
HETATM   27  C   UNK A   0       9.894  29.745  56.621  1.00  0.00     0.030 A 
ENDBRANCH  15  19
ENDBRANCH   1  13
BRANCH   1  28
ATOM     28  C   TRP A   1       4.983  25.895  57.008  1.00  0.00     0.189 C 
BRANCH  28  29
ATOM     29  O   TRP A   1       4.255  27.091  56.727  1.00  0.00    -0.399 OA
ATOM     30  H   TRP A   1       4.421  27.282  55.787  1.00  0.00     0.209 HD
ENDBRANCH  28  29
ENDBRANCH   1  28
TORSDOF 6
ENDMDL
MODEL 2
REMARK VINA RESULT:      -9.3      2.295      8.798
REMARK  6 active torsions:
REMARK  status: ('A' for Active; 'I' for Inactive)
REMARK    1  A    between atoms: CG_8  and  CB_9 
REMARK    2  A    between atoms: CB_9  and  CA_10 
REMARK    3  A    between atoms: CA_10  and  N_11 
REMARK    4  A    between atoms: CA_10  and  C_12 
REMARK       I    between atoms: N_11  and  C_18 
REMARK    5  A    between atoms: C_12  and  O_13 
REMARK       I    between atoms: C_18  and  N_19 
REMARK    6  A    between atoms: N_19  and  C_20 
ROOT
ATOM      1  CA  TRP A   1       8.479  29.115  56.142  1.00  0.00     0.114 C 
ENDROOT
BRANCH   1   2
ATOM      2  CB  TRP A   1       8.738  29.067  57.663  1.00  0.00     0.068 C 
BRANCH   2   3
ATOM      3  CG  TRP A   1       7.912  30.070  58.418  1.00  0.00    -0.028 A 
ATOM      4  CD2 TRP A   1       8.249  30.734  59.641  1.00  0.00    -0.002 A 
ATOM      5  CE3 TRP A   1       9.371  30.717  60.494  1.00  0.00     0.014 A 
ATOM      6  CE2 TRP A   1       7.168  31.546  59.987  1.00  0.00     0.042 A 
ATOM      7  CZ3 TRP A   1       9.362  31.483  61.665  1.00  0.00     0.001 A 
ATOM      8  CH2 TRP A   1       8.262  32.274  61.987  1.00  0.00     0.002 A 
ATOM      9  CZ2 TRP A   1       7.144  32.325  61.150  1.00  0.00     0.030 A 
ATOM     10  NE1 TRP A   1       6.226  31.411  58.995  1.00  0.00    -0.365 N 
ATOM     11  HE1 TRP A   1       5.341  31.899  58.975  1.00  0.00     0.165 HD
ATOM     12  CD1 TRP A   1       6.660  30.525  58.048  1.00  0.00     0.096 A 
ENDBRANCH   2   3
ENDBRANCH   1   2
BRANCH   1  13
ATOM     13  N   TRP A   1       7.780  27.920  55.644  1.00  0.00    -0.336 N 
HETATM   14  C   UNK A   0       6.589  27.955  54.994  1.00  0.00     0.321 C 
HETATM   15  N   UNK A   0       6.066  26.773  54.570  1.00  0.00    -0.309 N 
HETATM   16  O   UNK A   0       5.942  28.987  54.837  1.00  0.00    -0.247 OA
HETATM   17  H   UNK A   0       5.093  26.879  54.311  1.00  0.00     0.170 HD
ATOM     18  H   TRP A   1       7.999  27.048  56.106  1.00  0.00     0.164 HD
BRANCH  15  19
HETATM   19  C   UNK A   0       6.652  25.527  54.274  1.00  0.00     0.036 A 
HETATM   20  C   UNK A   0       6.717  24.456  55.169  1.00  0.00     0.039 A 
HETATM   21  C   UNK A   0       7.394  23.307  54.788  1.00  0.00    -0.024 A 
HETATM   22  C   UNK A   0       8.002  23.201  53.549  1.00  0.00    -0.026 A 
HETATM   23  C   UNK A   0       7.656  22.073  55.571  1.00  0.00     0.207 C 
HETATM   24  C   UNK A   0       8.686  21.888  53.449  1.00  0.00     0.207 C 
HETATM   25  C   UNK A   0       7.959  24.245  52.645  1.00  0.00     0.012 A 
HETATM   26  O   UNK A   0       8.238  21.156  54.614  1.00  0.00    -0.382 OA
HETATM   27  C   UNK A   0       7.284  25.412  53.017  1.00  0.00     0.030 A 
ENDBRANCH  15  19
ENDBRANCH   1  13
BRANCH   1  28
ATOM     28  C   TRP A   1       9.781  29.405  55.371  1.00  0.00     0.189 C 
BRANCH  28  29
ATOM     29  O   TRP A   1      10.547  30.403  56.048  1.00  0.00    -0.399 OA
ATOM     30  H   TRP A   1      11.122  30.795  55.367  1.00  0.00     0.209 HD
ENDBRANCH  28  29
ENDBRANCH   1  28
TORSDOF 6
ENDMDL
MODEL 3
REMARK VINA RESULT:      -9.2      2.273      3.653
REMARK  6 active torsions:
REMARK  status: ('A' for Active; 'I' for Inactive)
REMARK    1  A    between atoms: CG_8  and  CB_9 
REMARK    2  A    between atoms: CB_9  and  CA_10 
REMARK    3  A    between atoms: CA_10  and  N_11 
REMARK    4  A    between atoms: CA_10  and  C_12 
REMARK       I    between atoms: N_11  and  C_18 
REMARK    5  A    between atoms: C_12  and  O_13 
REMARK       I    between atoms: C_18  and  N_19 
REMARK    6  A    between atoms: N_19  and  C_20 
ROOT
ATOM      1  CA  TRP A   1       8.129  27.851  56.460  1.00  0.00     0.114 C 
ENDROOT
BRANCH   1   2
ATOM      2  CB  TRP A   1       7.289  26.642  56.925  1.00  0.00     0.068 C 
BRANCH   2   3
ATOM      3  CG  TRP A   1       7.857  25.333  56.456  1.00  0.00    -0.028 A 
ATOM      4  CD2 TRP A   1       7.748  24.752  55.151  1.00  0.00    -0.002 A 
ATOM      5  CE3 TRP A   1       7.150  25.155  53.941  1.00  0.00     0.014 A 
ATOM      6  CE2 TRP A   1       8.398  23.518  55.188  1.00  0.00     0.042 A 
ATOM      7  CZ3 TRP A   1       7.199  24.308  52.828  1.00  0.00     0.001 A 
ATOM      8  CH2 TRP A   1       7.845  23.076  52.902  1.00  0.00     0.002 A 
ATOM      9  CZ2 TRP A   1       8.463  22.659  54.084  1.00  0.00     0.030 A 
ATOM     10  NE1 TRP A   1       8.914  23.369  56.453  1.00  0.00    -0.365 N 
ATOM     11  HE1 TRP A   1       9.452  22.571  56.763  1.00  0.00     0.165 HD
ATOM     12  CD1 TRP A   1       8.594  24.452  57.225  1.00  0.00     0.096 A 
ENDBRANCH   2   3
ENDBRANCH   1   2
BRANCH   1  13
ATOM     13  N   TRP A   1       8.475  28.763  57.560  1.00  0.00    -0.336 N 
HETATM   14  C   UNK A   0       9.469  29.685  57.496  1.00  0.00     0.321 C 
HETATM   15  N   UNK A   0       9.666  30.479  58.582  1.00  0.00    -0.309 N 
HETATM   16  O   UNK A   0      10.230  29.783  56.536  1.00  0.00    -0.247 OA
HETATM   17  H   UNK A   0      10.555  30.960  58.525  1.00  0.00     0.170 HD
ATOM     18  H   TRP A   1       8.222  28.460  58.490  1.00  0.00     0.164 HD
BRANCH  15  19
HETATM   19  C   UNK A   0       8.821  30.870  59.639  1.00  0.00     0.036 A 
HETATM   20  C   UNK A   0       7.642  31.602  59.473  1.00  0.00     0.039 A 
HETATM   21  C   UNK A   0       6.937  31.999  60.600  1.00  0.00    -0.024 A 
HETATM   22  C   UNK A   0       7.376  31.688  61.876  1.00  0.00    -0.026 A 
HETATM   23  C   UNK A   0       5.709  32.828  60.691  1.00  0.00     0.207 C 
HETATM   24  C   UNK A   0       6.453  32.286  62.871  1.00  0.00     0.207 C 
HETATM   25  C   UNK A   0       8.540  30.970  62.071  1.00  0.00     0.012 A 
HETATM   26  O   UNK A   0       5.333  32.761  62.088  1.00  0.00    -0.382 OA
HETATM   27  C   UNK A   0       9.263  30.566  60.944  1.00  0.00     0.030 A 
ENDBRANCH  15  19
ENDBRANCH   1  13
BRANCH   1  28
ATOM     28  C   TRP A   1       7.447  28.572  55.282  1.00  0.00     0.189 C 
BRANCH  28  29
ATOM     29  O   TRP A   1       8.373  28.761  54.211  1.00  0.00    -0.399 OA
ATOM     30  H   TRP A   1       8.162  28.068  53.560  1.00  0.00     0.209 HD
ENDBRANCH  28  29
ENDBRANCH   1  28
TORSDOF 6
ENDMDL
MODEL 4
REMARK VINA RESULT:      -9.1      2.203      8.659
REMARK  6 active torsions:
REMARK  status: ('A' for Active; 'I' for Inactive)
REMARK    1  A    between atoms: CG_8  and  CB_9 
REMARK    2  A    between atoms: CB_9  and  CA_10 
REMARK    3  A    between atoms: CA_10  and  N_11 
REMARK    4  A    between atoms: CA_10  and  C_12 
REMARK       I    between atoms: N_11  and  C_18 
REMARK    5  A    between atoms: C_12  and  O_13 
REMARK       I    between atoms: C_18  and  N_19 
REMARK    6  A    between atoms: N_19  and  C_20 
ROOT
ATOM      1  CA  TRP A   1       6.592  27.731  56.323  1.00  0.00     0.114 C 
ENDROOT
BRANCH   1   2
ATOM      2  CB  TRP A   1       7.369  28.921  55.719  1.00  0.00     0.068 C 
BRANCH   2   3
ATOM      3  CG  TRP A   1       8.377  29.493  56.676  1.00  0.00    -0.028 A 
ATOM      4  CD2 TRP A   1       8.132  30.380  57.773  1.00  0.00    -0.002 A 
ATOM      5  CE3 TRP A   1       6.977  30.970  58.324  1.00  0.00     0.014 A 
ATOM      6  CE2 TRP A   1       9.365  30.674  58.355  1.00  0.00     0.042 A 
ATOM      7  CZ3 TRP A   1       7.096  31.845  59.409  1.00  0.00     0.001 A 
ATOM      8  CH2 TRP A   1       8.344  32.126  59.960  1.00  0.00     0.002 A 
ATOM      9  CZ2 TRP A   1       9.505  31.541  59.447  1.00  0.00     0.030 A 
ATOM     10  NE1 TRP A   1      10.319  29.965  57.665  1.00  0.00    -0.365 N 
ATOM     11  HE1 TRP A   1      11.307  29.972  57.880  1.00  0.00     0.165 HD
ATOM     12  CD1 TRP A   1       9.738  29.253  56.651  1.00  0.00     0.096 A 
ENDBRANCH   2   3
ENDBRANCH   1   2
BRANCH   1  13
ATOM     13  N   TRP A   1       7.322  26.458  56.214  1.00  0.00    -0.336 N 
HETATM   14  C   UNK A   0       7.875  25.809  57.269  1.00  0.00     0.321 C 
HETATM   15  N   UNK A   0       8.503  24.628  57.026  1.00  0.00    -0.309 N 
HETATM   16  O   UNK A   0       7.888  26.272  58.407  1.00  0.00    -0.247 OA
HETATM   17  H   UNK A   0       9.068  24.348  57.818  1.00  0.00     0.170 HD
ATOM     18  H   TRP A   1       7.731  26.252  55.313  1.00  0.00     0.164 HD
BRANCH  15  19
HETATM   19  C   UNK A   0       8.381  23.682  55.990  1.00  0.00     0.036 A 
HETATM   20  C   UNK A   0       8.626  22.315  56.141  1.00  0.00     0.039 A 
HETATM   21  C   UNK A   0       8.552  21.495  55.025  1.00  0.00    -0.024 A 
HETATM   22  C   UNK A   0       8.243  22.001  53.773  1.00  0.00    -0.026 A 
HETATM   23  C   UNK A   0       8.829  20.041  54.912  1.00  0.00     0.207 C 
HETATM   24  C   UNK A   0       8.288  20.904  52.776  1.00  0.00     0.207 C 
HETATM   25  C   UNK A   0       8.000  23.349  53.593  1.00  0.00     0.012 A 
HETATM   26  O   UNK A   0       8.415  19.699  53.567  1.00  0.00    -0.382 OA
HETATM   27  C   UNK A   0       8.075  24.188  54.709  1.00  0.00     0.030 A 
ENDBRANCH  15  19
ENDBRANCH   1  13
BRANCH   1  28
ATOM     28  C   TRP A   1       5.169  27.652  55.738  1.00  0.00     0.189 C 
BRANCH  28  29
ATOM     29  O   TRP A   1       4.241  27.240  56.742  1.00  0.00    -0.399 OA
ATOM     30  H   TRP A   1       3.774  26.473  56.366  1.00  0.00     0.209 HD
ENDBRANCH  28  29
ENDBRANCH   1  28
TORSDOF 6
ENDMDL
MODEL 5
REMARK VINA RESULT:      -9.1      4.793      7.287
REMARK  6 active torsions:
REMARK  status: ('A' for Active; 'I' for Inactive)
REMARK    1  A    between atoms: CG_8  and  CB_9 
REMARK    2  A    between atoms: CB_9  and  CA_10 
REMARK    3  A    between atoms: CA_10  and  N_11 
REMARK    4  A    between atoms: CA_10  and  C_12 
REMARK       I    between atoms: N_11  and  C_18 
REMARK    5  A    between atoms: C_12  and  O_13 
REMARK       I    between atoms: C_18  and  N_19 
REMARK    6  A    between atoms: N_19  and  C_20 
ROOT
ATOM      1  CA  TRP A   1       6.879  26.349  53.122  1.00  0.00     0.114 C 
ENDROOT
BRANCH   1   2
ATOM      2  CB  TRP A   1       7.971  25.259  53.071  1.00  0.00     0.068 C 
BRANCH   2   3
ATOM      3  CG  TRP A   1       7.888  24.309  54.233  1.00  0.00    -0.028 A 
ATOM      4  CD2 TRP A   1       7.992  22.881  54.202  1.00  0.00    -0.002 A 
ATOM      5  CE3 TRP A   1       8.211  21.932  53.184  1.00  0.00     0.014 A 
ATOM      6  CE2 TRP A   1       7.818  22.421  55.508  1.00  0.00     0.042 A 
ATOM      7  CZ3 TRP A   1       8.222  20.568  53.499  1.00  0.00     0.001 A 
ATOM      8  CH2 TRP A   1       8.033  20.142  54.811  1.00  0.00     0.002 A 
ATOM      9  CZ2 TRP A   1       7.833  21.062  55.844  1.00  0.00     0.030 A 
ATOM     10  NE1 TRP A   1       7.652  23.526  56.309  1.00  0.00    -0.365 N 
ATOM     11  HE1 TRP A   1       7.521  23.494  57.310  1.00  0.00     0.165 HD
ATOM     12  CD1 TRP A   1       7.689  24.667  55.554  1.00  0.00     0.096 A 
ENDBRANCH   2   3
ENDBRANCH   1   2
BRANCH   1  13
ATOM     13  N   TRP A   1       6.141  26.477  51.856  1.00  0.00    -0.336 N 
HETATM   14  C   UNK A   0       5.106  25.676  51.498  1.00  0.00     0.321 C 
HETATM   15  N   UNK A   0       4.500  25.921  50.306  1.00  0.00    -0.309 N 
HETATM   16  O   UNK A   0       4.745  24.711  52.167  1.00  0.00    -0.247 OA
HETATM   17  H   UNK A   0       3.910  25.146  50.032  1.00  0.00     0.170 HD
ATOM     18  H   TRP A   1       6.635  26.919  51.093  1.00  0.00     0.164 HD
BRANCH  15  19
HETATM   19  C   UNK A   0       4.412  27.076  49.505  1.00  0.00     0.036 A 
HETATM   20  C   UNK A   0       3.724  28.236  49.870  1.00  0.00     0.039 A 
HETATM   21  C   UNK A   0       3.639  29.279  48.959  1.00  0.00    -0.024 A 
HETATM   22  C   UNK A   0       4.217  29.193  47.704  1.00  0.00    -0.026 A 
HETATM   23  C   UNK A   0       2.919  30.571  49.081  1.00  0.00     0.207 C 
HETATM   24  C   UNK A   0       3.918  30.430  46.941  1.00  0.00     0.207 C 
HETATM   25  C   UNK A   0       4.900  28.058  47.313  1.00  0.00     0.012 A 
HETATM   26  O   UNK A   0       3.331  31.324  47.915  1.00  0.00    -0.382 OA
HETATM   27  C   UNK A   0       4.990  26.996  48.220  1.00  0.00     0.030 A 
ENDBRANCH  15  19
ENDBRANCH   1  13
BRANCH   1  28
ATOM     28  C   TRP A   1       7.465  27.689  53.607  1.00  0.00     0.189 C 
BRANCH  28  29
ATOM     29  O   TRP A   1       6.773  28.781  53.001  1.00  0.00    -0.399 OA
ATOM     30  H   TRP A   1       7.032  28.764  52.062  1.00  0.00     0.209 HD
ENDBRANCH  28  29
ENDBRANCH   1  28
TORSDOF 6
ENDMDL
MODEL 6
REMARK VINA RESULT:      -8.8      2.764      5.260
REMARK  6 active torsions:
REMARK  status: ('A' for Active; 'I' for Inactive)
REMARK    1  A    between atoms: CG_8  and  CB_9 
REMARK    2  A    between atoms: CB_9  and  CA_10 
REMARK    3  A    between atoms: CA_10  and  N_11 
REMARK    4  A    between atoms: CA_10  and  C_12 
REMARK       I    between atoms: N_11  and  C_18 
REMARK    5  A    between atoms: C_12  and  O_13 
REMARK       I    between atoms: C_18  and  N_19 
REMARK    6  A    between atoms: N_19  and  C_20 
ROOT
ATOM      1  CA  TRP A   1       7.554  22.738  54.049  1.00  0.00     0.114 C 
ENDROOT
BRANCH   1   2
ATOM      2  CB  TRP A   1       7.218  23.392  52.691  1.00  0.00     0.068 C 
BRANCH   2   3
ATOM      3  CG  TRP A   1       6.206  24.495  52.821  1.00  0.00    -0.028 A 
ATOM      4  CD2 TRP A   1       6.446  25.863  53.173  1.00  0.00    -0.002 A 
ATOM      5  CE3 TRP A   1       7.599  26.614  53.476  1.00  0.00     0.014 A 
ATOM      6  CE2 TRP A   1       5.210  26.509  53.205  1.00  0.00     0.042 A 
ATOM      7  CZ3 TRP A   1       7.476  27.964  53.823  1.00  0.00     0.001 A 
ATOM      8  CH2 TRP A   1       6.225  28.576  53.858  1.00  0.00     0.002 A 
ATOM      9  CZ2 TRP A   1       5.066  27.860  53.543  1.00  0.00     0.030 A 
ATOM     10  NE1 TRP A   1       4.258  25.582  52.851  1.00  0.00    -0.365 N 
ATOM     11  HE1 TRP A   1       3.270  25.776  52.773  1.00  0.00     0.165 HD
ATOM     12  CD1 TRP A   1       4.844  24.367  52.619  1.00  0.00     0.096 A 
ENDBRANCH   2   3
ENDBRANCH   1   2
BRANCH   1  13
ATOM     13  N   TRP A   1       7.271  23.619  55.192  1.00  0.00    -0.336 N 
HETATM   14  C   UNK A   0       7.754  23.416  56.444  1.00  0.00     0.321 C 
HETATM   15  N   UNK A   0       7.428  24.323  57.403  1.00  0.00    -0.309 N 
HETATM   16  O   UNK A   0       8.408  22.423  56.755  1.00  0.00    -0.247 OA
HETATM   17  H   UNK A   0       7.638  23.966  58.327  1.00  0.00     0.170 HD
ATOM     18  H   TRP A   1       6.423  24.166  55.137  1.00  0.00     0.164 HD
BRANCH  15  19
HETATM   19  C   UNK A   0       7.032  25.673  57.338  1.00  0.00     0.036 A 
HETATM   20  C   UNK A   0       7.880  26.754  57.593  1.00  0.00     0.039 A 
HETATM   21  C   UNK A   0       7.352  28.036  57.579  1.00  0.00    -0.024 A 
HETATM   22  C   UNK A   0       6.011  28.264  57.320  1.00  0.00    -0.026 A 
HETATM   23  C   UNK A   0       8.021  29.327  57.878  1.00  0.00     0.207 C 
HETATM   24  C   UNK A   0       5.732  29.718  57.424  1.00  0.00     0.207 C 
HETATM   25  C   UNK A   0       5.147  27.216  57.070  1.00  0.00     0.012 A 
HETATM   26  O   UNK A   0       7.038  30.331  57.528  1.00  0.00    -0.382 OA
HETATM   27  C   UNK A   0       5.665  25.916  57.085  1.00  0.00     0.030 A 
ENDBRANCH  15  19
ENDBRANCH   1  13
BRANCH   1  28
ATOM     28  C   TRP A   1       8.999  22.202  54.057  1.00  0.00     0.189 C 
BRANCH  28  29
ATOM     29  O   TRP A   1       9.008  20.805  54.352  1.00  0.00    -0.399 OA
ATOM     30  H   TRP A   1       8.511  20.383  53.628  1.00  0.00     0.209 HD
ENDBRANCH  28  29
ENDBRANCH   1  28
TORSDOF 6
ENDMDL
MODEL 7
REMARK VINA RESULT:      -8.6      4.224     10.762
REMARK  6 active torsions:
REMARK  status: ('A' for Active; 'I' for Inactive)
REMARK    1  A    between atoms: CG_8  and  CB_9 
REMARK    2  A    between atoms: CB_9  and  CA_10 
REMARK    3  A    between atoms: CA_10  and  N_11 
REMARK    4  A    between atoms: CA_10  and  C_12 
REMARK       I    between atoms: N_11  and  C_18 
REMARK    5  A    between atoms: C_12  and  O_13 
REMARK       I    between atoms: C_18  and  N_19 
REMARK    6  A    between atoms: N_19  and  C_20 
ROOT
ATOM      1  CA  TRP A   1       8.040  31.495  61.640  1.00  0.00     0.114 C 
ENDROOT
BRANCH   1   2
ATOM      2  CB  TRP A   1       6.873  31.513  62.650  1.00  0.00     0.068 C 
BRANCH   2   3
ATOM      3  CG  TRP A   1       6.741  32.836  63.350  1.00  0.00    -0.028 A 
ATOM      4  CD2 TRP A   1       6.034  33.997  62.897  1.00  0.00    -0.002 A 
ATOM      5  CE3 TRP A   1       5.260  34.296  61.758  1.00  0.00     0.014 A 
ATOM      6  CE2 TRP A   1       6.216  34.996  63.853  1.00  0.00     0.042 A 
ATOM      7  CZ3 TRP A   1       4.724  35.579  61.603  1.00  0.00     0.001 A 
ATOM      8  CH2 TRP A   1       4.935  36.558  62.570  1.00  0.00     0.002 A 
ATOM      9  CZ2 TRP A   1       5.681  36.284  63.719  1.00  0.00     0.030 A 
ATOM     10  NE1 TRP A   1       6.973  34.456  64.866  1.00  0.00    -0.365 N 
ATOM     11  HE1 TRP A   1       7.247  34.950  65.703  1.00  0.00     0.165 HD
ATOM     12  CD1 TRP A   1       7.296  33.159  64.574  1.00  0.00     0.096 A 
ENDBRANCH   2   3
ENDBRANCH   1   2
BRANCH   1  13
ATOM     13  N   TRP A   1       7.656  30.940  60.333  1.00  0.00    -0.336 N 
HETATM   14  C   UNK A   0       8.130  31.397  59.147  1.00  0.00     0.321 C 
HETATM   15  N   UNK A   0       7.705  30.775  58.014  1.00  0.00    -0.309 N 
HETATM   16  O   UNK A   0       8.864  32.378  59.052  1.00  0.00    -0.247 OA
HETATM   17  H   UNK A   0       7.928  31.325  57.193  1.00  0.00     0.170 HD
ATOM     18  H   TRP A   1       6.764  30.466  60.292  1.00  0.00     0.164 HD
BRANCH  15  19
HETATM   19  C   UNK A   0       7.192  29.486  57.774  1.00  0.00     0.036 A 
HETATM   20  C   UNK A   0       7.953  28.316  57.820  1.00  0.00     0.039 A 
HETATM   21  C   UNK A   0       7.351  27.112  57.482  1.00  0.00    -0.024 A 
HETATM   22  C   UNK A   0       6.021  27.049  57.101  1.00  0.00    -0.026 A 
HETATM   23  C   UNK A   0       7.953  25.759  57.391  1.00  0.00     0.207 C 
HETATM   24  C   UNK A   0       5.677  25.649  56.752  1.00  0.00     0.207 C 
HETATM   25  C   UNK A   0       5.245  28.190  57.041  1.00  0.00     0.012 A 
HETATM   26  O   UNK A   0       6.824  24.877  57.178  1.00  0.00    -0.382 OA
HETATM   27  C   UNK A   0       5.840  29.411  57.375  1.00  0.00     0.030 A 
ENDBRANCH  15  19
ENDBRANCH   1  13
BRANCH   1  28
ATOM     28  C   TRP A   1       9.275  30.796  62.242  1.00  0.00     0.189 C 
BRANCH  28  29
ATOM     29  O   TRP A   1       9.036  29.396  62.378  1.00  0.00    -0.399 OA
ATOM     30  H   TRP A   1       8.075  29.308  62.511  1.00  0.00     0.209 HD
ENDBRANCH  28  29
ENDBRANCH   1  28
TORSDOF 6
ENDMDL
MODEL 8
REMARK VINA RESULT:      -8.6      3.765      6.475
REMARK  6 active torsions:
REMARK  status: ('A' for Active; 'I' for Inactive)
REMARK    1  A    between atoms: CG_8  and  CB_9 
REMARK    2  A    between atoms: CB_9  and  CA_10 
REMARK    3  A    between atoms: CA_10  and  N_11 
REMARK    4  A    between atoms: CA_10  and  C_12 
REMARK       I    between atoms: N_11  and  C_18 
REMARK    5  A    between atoms: C_12  and  O_13 
REMARK       I    between atoms: C_18  and  N_19 
REMARK    6  A    between atoms: N_19  and  C_20 
ROOT
ATOM      1  CA  TRP A   1       5.866  26.034  55.371  1.00  0.00     0.114 C 
ENDROOT
BRANCH   1   2
ATOM      2  CB  TRP A   1       7.345  25.592  55.349  1.00  0.00     0.068 C 
BRANCH   2   3
ATOM      3  CG  TRP A   1       7.610  24.528  54.321  1.00  0.00    -0.028 A 
ATOM      4  CD2 TRP A   1       7.712  23.116  54.532  1.00  0.00    -0.002 A 
ATOM      5  CE3 TRP A   1       7.592  22.278  55.659  1.00  0.00     0.014 A 
ATOM      6  CE2 TRP A   1       8.003  22.529  53.300  1.00  0.00     0.042 A 
ATOM      7  CZ3 TRP A   1       7.791  20.899  55.522  1.00  0.00     0.001 A 
ATOM      8  CH2 TRP A   1       8.092  20.347  54.279  1.00  0.00     0.002 A 
ATOM      9  CZ2 TRP A   1       8.198  21.151  53.141  1.00  0.00     0.030 A 
ATOM     10  NE1 TRP A   1       8.039  23.538  52.368  1.00  0.00    -0.365 N 
ATOM     11  HE1 TRP A   1       8.213  23.402  51.382  1.00  0.00     0.165 HD
ATOM     12  CD1 TRP A   1       7.808  24.745  52.969  1.00  0.00     0.096 A 
ENDBRANCH   2   3
ENDBRANCH   1   2
BRANCH   1  13
ATOM     13  N   TRP A   1       5.526  26.945  54.267  1.00  0.00    -0.336 N 
HETATM   14  C   UNK A   0       6.276  28.019  53.913  1.00  0.00     0.321 C 
HETATM   15  N   UNK A   0       5.854  28.764  52.857  1.00  0.00    -0.309 N 
HETATM   16  O   UNK A   0       7.270  28.378  54.541  1.00  0.00    -0.247 OA
HETATM   17  H   UNK A   0       6.341  29.651  52.821  1.00  0.00     0.170 HD
ATOM     18  H   TRP A   1       4.550  26.991  54.009  1.00  0.00     0.164 HD
BRANCH  15  19
HETATM   19  C   UNK A   0       5.028  28.469  51.756  1.00  0.00     0.036 A 
HETATM   20  C   UNK A   0       5.379  27.598  50.720  1.00  0.00     0.039 A 
HETATM   21  C   UNK A   0       4.513  27.452  49.647  1.00  0.00    -0.024 A 
HETATM   22  C   UNK A   0       3.317  28.148  49.581  1.00  0.00    -0.026 A 
HETATM   23  C   UNK A   0       4.684  26.651  48.409  1.00  0.00     0.207 C 
HETATM   24  C   UNK A   0       2.634  27.829  48.302  1.00  0.00     0.207 C 
HETATM   25  C   UNK A   0       2.945  29.018  50.587  1.00  0.00     0.012 A 
HETATM   26  O   UNK A   0       3.399  26.734  47.746  1.00  0.00    -0.382 OA
HETATM   27  C   UNK A   0       3.811  29.179  51.674  1.00  0.00     0.030 A 
ENDBRANCH  15  19
ENDBRANCH   1  13
BRANCH   1  28
ATOM     28  C   TRP A   1       5.485  26.605  56.751  1.00  0.00     0.189 C 
BRANCH  28  29
ATOM     29  O   TRP A   1       4.219  27.261  56.684  1.00  0.00    -0.399 OA
ATOM     30  H   TRP A   1       4.389  28.107  56.232  1.00  0.00     0.209 HD
ENDBRANCH  28  29
ENDBRANCH   1  28
TORSDOF 6
ENDMDL
MODEL 9
REMARK VINA RESULT:      -8.5      3.783      5.505
REMARK  6 active torsions:
REMARK  status: ('A' for Active; 'I' for Inactive)
REMARK    1  A    between atoms: CG_8  and  CB_9 
REMARK    2  A    between atoms: CB_9  and  CA_10 
REMARK    3  A    between atoms: CA_10  and  N_11 
REMARK    4  A    between atoms: CA_10  and  C_12 
REMARK       I    between atoms: N_11  and  C_18 
REMARK    5  A    between atoms: C_12  and  O_13 
REMARK       I    between atoms: C_18  and  N_19 
REMARK    6  A    between atoms: N_19  and  C_20 
ROOT
ATOM      1  CA  TRP A   1       6.055  25.858  55.320  1.00  0.00     0.114 C 
ENDROOT
BRANCH   1   2
ATOM      2  CB  TRP A   1       7.570  25.563  55.333  1.00  0.00     0.068 C 
BRANCH   2   3
ATOM      3  CG  TRP A   1       7.874  24.134  55.685  1.00  0.00    -0.028 A 
ATOM      4  CD2 TRP A   1       7.933  23.011  54.798  1.00  0.00    -0.002 A 
ATOM      5  CE3 TRP A   1       7.769  22.844  53.408  1.00  0.00     0.014 A 
ATOM      6  CE2 TRP A   1       8.210  21.883  55.571  1.00  0.00     0.042 A 
ATOM      7  CZ3 TRP A   1       7.860  21.564  52.849  1.00  0.00     0.001 A 
ATOM      8  CH2 TRP A   1       8.126  20.457  53.651  1.00  0.00     0.002 A 
ATOM      9  CZ2 TRP A   1       8.313  20.596  55.029  1.00  0.00     0.030 A 
ATOM     10  NE1 TRP A   1       8.351  22.307  56.871  1.00  0.00    -0.365 N 
ATOM     11  HE1 TRP A   1       8.573  21.702  57.650  1.00  0.00     0.165 HD
ATOM     12  CD1 TRP A   1       8.149  23.658  56.953  1.00  0.00     0.096 A 
ENDBRANCH   2   3
ENDBRANCH   1   2
BRANCH   1  13
ATOM     13  N   TRP A   1       5.615  26.535  54.090  1.00  0.00    -0.336 N 
HETATM   14  C   UNK A   0       4.848  25.950  53.137  1.00  0.00     0.321 C 
HETATM   15  N   UNK A   0       4.497  26.701  52.059  1.00  0.00    -0.309 N 
HETATM   16  O   UNK A   0       4.519  24.766  53.175  1.00  0.00    -0.247 OA
HETATM   17  H   UNK A   0       4.132  26.120  51.314  1.00  0.00     0.170 HD
ATOM     18  H   TRP A   1       6.185  27.309  53.777  1.00  0.00     0.164 HD
BRANCH  15  19
HETATM   19  C   UNK A   0       4.393  28.092  51.863  1.00  0.00     0.036 A 
HETATM   20  C   UNK A   0       5.195  28.825  50.985  1.00  0.00     0.039 A 
HETATM   21  C   UNK A   0       5.052  30.204  50.942  1.00  0.00    -0.024 A 
HETATM   22  C   UNK A   0       4.138  30.863  51.747  1.00  0.00    -0.026 A 
HETATM   23  C   UNK A   0       5.819  31.200  50.153  1.00  0.00     0.207 C 
HETATM   24  C   UNK A   0       4.249  32.325  51.519  1.00  0.00     0.207 C 
HETATM   25  C   UNK A   0       3.335  30.166  52.628  1.00  0.00     0.012 A 
HETATM   26  O   UNK A   0       5.118  32.448  50.369  1.00  0.00    -0.382 OA
HETATM   27  C   UNK A   0       3.472  28.775  52.686  1.00  0.00     0.030 A 
ENDBRANCH  15  19
ENDBRANCH   1  13
BRANCH   1  28
ATOM     28  C   TRP A   1       5.631  26.611  56.596  1.00  0.00     0.189 C 
BRANCH  28  29
ATOM     29  O   TRP A   1       4.300  27.109  56.461  1.00  0.00    -0.399 OA
ATOM     30  H   TRP A   1       4.397  28.041  56.195  1.00  0.00     0.209 HD
ENDBRANCH  28  29
ENDBRANCH   1  28
TORSDOF 6
ENDMDL
MODEL 10
REMARK VINA RESULT:      -8.3      3.553      7.968
REMARK  6 active torsions:
REMARK  status: ('A' for Active; 'I' for Inactive)
REMARK    1  A    between atoms: CG_8  and  CB_9 
REMARK    2  A    between atoms: CB_9  and  CA_10 
REMARK    3  A    between atoms: CA_10  and  N_11 
REMARK    4  A    between atoms: CA_10  and  C_12 
REMARK       I    between atoms: N_11  and  C_18 
REMARK    5  A    between atoms: C_12  and  O_13 
REMARK       I    between atoms: C_18  and  N_19 
REMARK    6  A    between atoms: N_19  and  C_20 
ROOT
ATOM      1  CA  TRP A   1       7.015  27.950  54.421  1.00  0.00     0.114 C 
ENDROOT
BRANCH   1   2
ATOM      2  CB  TRP A   1       5.604  28.304  53.904  1.00  0.00     0.068 C 
BRANCH   2   3
ATOM      3  CG  TRP A   1       5.279  27.616  52.608  1.00  0.00    -0.028 A 
ATOM      4  CD2 TRP A   1       5.331  28.171  51.289  1.00  0.00    -0.002 A 
ATOM      5  CE3 TRP A   1       5.688  29.429  50.763  1.00  0.00     0.014 A 
ATOM      6  CE2 TRP A   1       4.911  27.180  50.402  1.00  0.00     0.042 A 
ATOM      7  CZ3 TRP A   1       5.589  29.658  49.386  1.00  0.00     0.001 A 
ATOM      8  CH2 TRP A   1       5.154  28.650  48.529  1.00  0.00     0.002 A 
ATOM      9  CZ2 TRP A   1       4.811  27.387  49.020  1.00  0.00     0.030 A 
ATOM     10  NE1 TRP A   1       4.649  26.054  51.146  1.00  0.00    -0.365 N 
ATOM     11  HE1 TRP A   1       4.342  25.171  50.761  1.00  0.00     0.165 HD
ATOM     12  CD1 TRP A   1       4.865  26.304  52.474  1.00  0.00     0.096 A 
ENDBRANCH   2   3
ENDBRANCH   1   2
BRANCH   1  13
ATOM     13  N   TRP A   1       7.138  26.542  54.828  1.00  0.00    -0.336 N 
HETATM   14  C   UNK A   0       6.460  25.992  55.866  1.00  0.00     0.321 C 
HETATM   15  N   UNK A   0       6.654  24.670  56.118  1.00  0.00    -0.309 N 
HETATM   16  O   UNK A   0       5.741  26.646  56.618  1.00  0.00    -0.247 OA
HETATM   17  H   UNK A   0       6.293  24.417  57.030  1.00  0.00     0.170 HD
ATOM     18  H   TRP A   1       7.997  26.075  54.572  1.00  0.00     0.164 HD
BRANCH  15  19
HETATM   19  C   UNK A   0       7.088  23.602  55.309  1.00  0.00     0.036 A 
HETATM   20  C   UNK A   0       7.649  22.421  55.800  1.00  0.00     0.039 A 
HETATM   21  C   UNK A   0       8.115  21.476  54.898  1.00  0.00    -0.024 A 
HETATM   22  C   UNK A   0       8.036  21.679  53.531  1.00  0.00    -0.026 A 
HETATM   23  C   UNK A   0       8.802  20.187  55.164  1.00  0.00     0.207 C 
HETATM   24  C   UNK A   0       8.656  20.529  52.828  1.00  0.00     0.207 C 
HETATM   25  C   UNK A   0       7.491  22.839  53.016  1.00  0.00     0.012 A 
HETATM   26  O   UNK A   0       8.886  19.549  53.867  1.00  0.00    -0.382 OA
HETATM   27  C   UNK A   0       7.021  23.803  53.914  1.00  0.00     0.030 A 
ENDBRANCH  15  19
ENDBRANCH   1  13
BRANCH   1  28
ATOM     28  C   TRP A   1       7.455  28.929  55.527  1.00  0.00     0.189 C 
BRANCH  28  29
ATOM     29  O   TRP A   1       6.509  29.990  55.656  1.00  0.00    -0.399 OA
ATOM     30  H   TRP A   1       6.994  30.801  55.418  1.00  0.00     0.209 HD
ENDBRANCH  28  29
ENDBRANCH   1  28
TORSDOF 6
ENDMDL
