MODEL 1
REMARK VINA RESULT:      -9.4      0.000      0.000
REMARK  9 active torsions:
REMARK  status: ('A' for Active; 'I' for Inactive)
REMARK    1  A    between atoms: O_2  and  C_3 
REMARK    2  A    between atoms: C_5  and  O_6 
REMARK    3  A    between atoms: C_9  and  C_10 
REMARK       I    between atoms: C_10  and  N_11 
REMARK    4  A    between atoms: N_11  and  C_12 
REMARK    5  A    between atoms: C_13  and  C_14 
REMARK       I    between atoms: C_14  and  N_15 
REMARK    6  A    between atoms: N_15  and  C_16 
REMARK    7  A    between atoms: C_16  and  C_17 
REMARK    8  A    between atoms: C_17  and  O_18 
REMARK    9  A    between atoms: O_18  and  C_19 
ROOT
HETATM    1  C   UNL     1       8.492  30.374  58.608  1.00  0.00     0.050 A 
HETATM    2  C   UNL     1       8.411  29.321  57.677  1.00  0.00     0.058 A 
HETATM    3  C   UNL     1       9.483  29.070  56.800  1.00  0.00     0.019 A 
HETATM    4  C   UNL     1      10.653  29.822  56.873  1.00  0.00     0.001 A 
HETATM    5  C   UNL     1      10.768  30.820  57.833  1.00  0.00     0.002 A 
HETATM    6  C   UNL     1       9.701  31.089  58.695  1.00  0.00     0.030 A 
ENDROOT
BRANCH   1   7
HETATM    7  N   UNL     1       7.462  30.828  59.477  1.00  0.00    -0.322 N 
HETATM    8  C   UNL     1       6.551  31.829  59.183  1.00  0.00     0.256 C 
HETATM    9  O   UNL     1       6.501  32.463  58.137  1.00  0.00    -0.267 OA
HETATM   10  H   UNL     1       7.626  30.668  60.463  1.00  0.00     0.169 HD
BRANCH   8  11
HETATM   11  C   UNL     1       5.622  32.223  60.284  1.00  0.00     0.037 A 
HETATM   12  C   UNL     1       4.410  32.830  59.915  1.00  0.00     0.054 A 
HETATM   13  C   UNL     1       3.499  33.232  60.887  1.00  0.00     0.071 A 
HETATM   14  C   UNL     1       3.814  33.040  62.233  1.00  0.00     0.073 A 
HETATM   15  C   UNL     1       5.008  32.420  62.616  1.00  0.00     0.071 A 
HETATM   16  C   UNL     1       5.911  31.999  61.639  1.00  0.00     0.054 A 
BRANCH  13  17
HETATM   17  O   UNL     1       2.292  33.828  60.652  1.00  0.00    -0.356 OA
HETATM   18  C   UNL     1       1.750  34.607  61.714  1.00  0.00     0.210 C 
ENDBRANCH  13  17
BRANCH  15  19
HETATM   19  O   UNL     1       5.163  32.285  63.968  1.00  0.00    -0.356 OA
HETATM   20  C   UNL     1       4.880  33.418  64.779  1.00  0.00     0.210 C 
ENDBRANCH  15  19
ENDBRANCH   8  11
ENDBRANCH   1   7
BRANCH   2  21
HETATM   21  C   UNL     1       7.321  28.315  57.611  1.00  0.00     0.253 C 
HETATM   22  N   UNL     1       7.730  27.034  57.301  1.00  0.00    -0.355 N 
HETATM   23  H   UNL     1       8.720  26.850  57.234  1.00  0.00     0.162 HD
HETATM   24  O   UNL     1       6.152  28.663  57.723  1.00  0.00    -0.268 OA
BRANCH  22  25
HETATM   25  C   UNL     1       6.821  25.903  57.326  1.00  0.00     0.149 C 
BRANCH  25  26
HETATM   26  C   UNL     1       6.885  24.979  56.104  1.00  0.00     0.195 C 
BRANCH  26  27
HETATM   27  O   UNL     1       7.453  23.716  56.482  1.00  0.00    -0.350 OA
BRANCH  27  28
HETATM   28  C   UNL     1       7.609  22.859  55.424  1.00  0.00     0.068 A 
HETATM   29  C   UNL     1       7.637  23.437  54.156  1.00  0.00     0.037 A 
HETATM   30  C   UNL     1       7.797  22.637  53.023  1.00  0.00     0.003 A 
HETATM   31  C   UNL     1       7.948  21.257  53.159  1.00  0.00     0.000 A 
HETATM   32  C   UNL     1       7.948  20.680  54.428  1.00  0.00     0.003 A 
HETATM   33  C   UNL     1       7.784  21.480  55.561  1.00  0.00     0.037 A 
ENDBRANCH  27  28
ENDBRANCH  26  27
ENDBRANCH  25  26
ENDBRANCH  22  25
ENDBRANCH   2  21
TORSDOF 9
ENDMDL
MODEL 2
REMARK VINA RESULT:      -9.4      1.067      2.192
REMARK  9 active torsions:
REMARK  status: ('A' for Active; 'I' for Inactive)
REMARK    1  A    between atoms: O_2  and  C_3 
REMARK    2  A    between atoms: C_5  and  O_6 
REMARK    3  A    between atoms: C_9  and  C_10 
REMARK       I    between atoms: C_10  and  N_11 
REMARK    4  A    between atoms: N_11  and  C_12 
REMARK    5  A    between atoms: C_13  and  C_14 
REMARK       I    between atoms: C_14  and  N_15 
REMARK    6  A    between atoms: N_15  and  C_16 
REMARK    7  A    between atoms: C_16  and  C_17 
REMARK    8  A    between atoms: C_17  and  O_18 
REMARK    9  A    between atoms: O_18  and  C_19 
ROOT
HETATM    1  C   UNL     1       8.810  30.217  58.517  1.00  0.00     0.050 A 
HETATM    2  C   UNL     1       8.407  29.327  57.502  1.00  0.00     0.058 A 
HETATM    3  C   UNL     1       9.252  29.082  56.403  1.00  0.00     0.019 A 
HETATM    4  C   UNL     1      10.511  29.673  56.326  1.00  0.00     0.001 A 
HETATM    5  C   UNL     1      10.943  30.500  57.356  1.00  0.00     0.002 A 
HETATM    6  C   UNL     1      10.105  30.765  58.442  1.00  0.00     0.030 A 
ENDROOT
BRANCH   1   7
HETATM    7  N   UNL     1       8.035  30.658  59.624  1.00  0.00    -0.322 N 
HETATM    8  C   UNL     1       7.164  31.735  59.613  1.00  0.00     0.256 C 
HETATM    9  O   UNL     1       6.938  32.459  58.652  1.00  0.00    -0.267 OA
HETATM   10  H   UNL     1       8.397  30.403  60.534  1.00  0.00     0.169 HD
BRANCH   8  11
HETATM   11  C   UNL     1       6.533  32.090  60.919  1.00  0.00     0.037 A 
HETATM   12  C   UNL     1       7.389  32.249  62.023  1.00  0.00     0.054 A 
HETATM   13  C   UNL     1       6.871  32.571  63.273  1.00  0.00     0.071 A 
HETATM   14  C   UNL     1       5.492  32.717  63.420  1.00  0.00     0.073 A 
HETATM   15  C   UNL     1       4.628  32.581  62.328  1.00  0.00     0.071 A 
HETATM   16  C   UNL     1       5.151  32.278  61.070  1.00  0.00     0.054 A 
BRANCH  13  17
HETATM   17  O   UNL     1       7.600  32.753  64.416  1.00  0.00    -0.356 OA
HETATM   18  C   UNL     1       7.097  33.708  65.346  1.00  0.00     0.210 C 
ENDBRANCH  13  17
BRANCH  15  19
HETATM   19  O   UNL     1       3.308  32.773  62.627  1.00  0.00    -0.356 OA
HETATM   20  C   UNL     1       2.704  33.982  62.188  1.00  0.00     0.210 C 
ENDBRANCH  15  19
ENDBRANCH   8  11
ENDBRANCH   1   7
BRANCH   2  21
HETATM   21  C   UNL     1       7.192  28.476  57.539  1.00  0.00     0.253 C 
HETATM   22  N   UNL     1       7.405  27.145  57.245  1.00  0.00    -0.355 N 
HETATM   23  H   UNL     1       8.354  26.828  57.120  1.00  0.00     0.162 HD
HETATM   24  O   UNL     1       6.089  28.982  57.714  1.00  0.00    -0.268 OA
BRANCH  22  25
HETATM   25  C   UNL     1       6.357  26.148  57.364  1.00  0.00     0.149 C 
BRANCH  25  26
HETATM   26  C   UNL     1       6.309  25.104  56.242  1.00  0.00     0.195 C 
BRANCH  26  27
HETATM   27  O   UNL     1       7.645  24.772  55.835  1.00  0.00    -0.350 OA
BRANCH  27  28
HETATM   28  C   UNL     1       7.714  23.608  55.115  1.00  0.00     0.068 A 
HETATM   29  C   UNL     1       7.839  23.740  53.732  1.00  0.00     0.037 A 
HETATM   30  C   UNL     1       7.920  22.604  52.924  1.00  0.00     0.003 A 
HETATM   31  C   UNL     1       7.895  21.334  53.499  1.00  0.00     0.000 A 
HETATM   32  C   UNL     1       7.797  21.201  54.884  1.00  0.00     0.003 A 
HETATM   33  C   UNL     1       7.712  22.336  55.693  1.00  0.00     0.037 A 
ENDBRANCH  27  28
ENDBRANCH  26  27
ENDBRANCH  25  26
ENDBRANCH  22  25
ENDBRANCH   2  21
TORSDOF 9
ENDMDL
MODEL 3
REMARK VINA RESULT:      -9.3      4.214     10.003
REMARK  9 active torsions:
REMARK  status: ('A' for Active; 'I' for Inactive)
REMARK    1  A    between atoms: O_2  and  C_3 
REMARK    2  A    between atoms: C_5  and  O_6 
REMARK    3  A    between atoms: C_9  and  C_10 
REMARK       I    between atoms: C_10  and  N_11 
REMARK    4  A    between atoms: N_11  and  C_12 
REMARK    5  A    between atoms: C_13  and  C_14 
REMARK       I    between atoms: C_14  and  N_15 
REMARK    6  A    between atoms: N_15  and  C_16 
REMARK    7  A    between atoms: C_16  and  C_17 
REMARK    8  A    between atoms: C_17  and  O_18 
REMARK    9  A    between atoms: O_18  and  C_19 
ROOT
HETATM    1  C   UNL     1       7.255  23.673  53.479  1.00  0.00     0.050 A 
HETATM    2  C   UNL     1       7.114  23.503  54.870  1.00  0.00     0.058 A 
HETATM    3  C   UNL     1       7.451  22.275  55.468  1.00  0.00     0.019 A 
HETATM    4  C   UNL     1       7.974  21.232  54.708  1.00  0.00     0.001 A 
HETATM    5  C   UNL     1       8.180  21.414  53.345  1.00  0.00     0.002 A 
HETATM    6  C   UNL     1       7.830  22.623  52.738  1.00  0.00     0.030 A 
ENDROOT
BRANCH   1   7
HETATM    7  N   UNL     1       6.855  24.800  52.710  1.00  0.00    -0.322 N 
HETATM    8  C   UNL     1       5.550  25.109  52.363  1.00  0.00     0.256 C 
HETATM    9  O   UNL     1       4.558  24.459  52.667  1.00  0.00    -0.267 OA
HETATM   10  H   UNL     1       7.567  25.185  52.103  1.00  0.00     0.169 HD
BRANCH   8  11
HETATM   11  C   UNL     1       5.366  26.282  51.457  1.00  0.00     0.037 A 
HETATM   12  C   UNL     1       4.776  26.039  50.205  1.00  0.00     0.054 A 
HETATM   13  C   UNL     1       4.581  27.081  49.305  1.00  0.00     0.071 A 
HETATM   14  C   UNL     1       4.994  28.367  49.655  1.00  0.00     0.073 A 
HETATM   15  C   UNL     1       5.566  28.629  50.904  1.00  0.00     0.071 A 
HETATM   16  C   UNL     1       5.741  27.586  51.814  1.00  0.00     0.054 A 
BRANCH  13  17
HETATM   17  O   UNL     1       4.018  26.970  48.064  1.00  0.00    -0.356 OA
HETATM   18  C   UNL     1       3.488  25.693  47.718  1.00  0.00     0.210 C 
ENDBRANCH  13  17
BRANCH  15  19
HETATM   19  O   UNL     1       5.899  29.939  51.107  1.00  0.00    -0.356 OA
HETATM   20  C   UNL     1       5.552  30.870  50.091  1.00  0.00     0.210 C 
ENDBRANCH  15  19
ENDBRANCH   8  11
ENDBRANCH   1   7
BRANCH   2  21
HETATM   21  C   UNL     1       6.761  24.575  55.834  1.00  0.00     0.253 C 
HETATM   22  N   UNL     1       7.711  24.821  56.803  1.00  0.00    -0.355 N 
HETATM   23  H   UNL     1       8.596  24.340  56.741  1.00  0.00     0.162 HD
HETATM   24  O   UNL     1       5.653  25.097  55.799  1.00  0.00    -0.268 OA
BRANCH  22  25
HETATM   25  C   UNL     1       7.593  25.921  57.743  1.00  0.00     0.149 C 
BRANCH  25  26
HETATM   26  C   UNL     1       7.704  27.323  57.134  1.00  0.00     0.195 C 
BRANCH  26  27
HETATM   27  O   UNL     1       7.658  28.308  58.178  1.00  0.00    -0.350 OA
BRANCH  27  28
HETATM   28  C   UNL     1       8.644  29.254  58.069  1.00  0.00     0.068 A 
HETATM   29  C   UNL     1       9.587  29.053  57.062  1.00  0.00     0.037 A 
HETATM   30  C   UNL     1      10.624  29.971  56.878  1.00  0.00     0.003 A 
HETATM   31  C   UNL     1      10.707  31.101  57.690  1.00  0.00     0.000 A 
HETATM   32  C   UNL     1       9.749  31.318  58.680  1.00  0.00     0.003 A 
HETATM   33  C   UNL     1       8.714  30.398  58.867  1.00  0.00     0.037 A 
ENDBRANCH  27  28
ENDBRANCH  26  27
ENDBRANCH  25  26
ENDBRANCH  22  25
ENDBRANCH   2  21
TORSDOF 9
ENDMDL
MODEL 4
REMARK VINA RESULT:      -9.1      1.453      1.704
REMARK  9 active torsions:
REMARK  status: ('A' for Active; 'I' for Inactive)
REMARK    1  A    between atoms: O_2  and  C_3 
REMARK    2  A    between atoms: C_5  and  O_6 
REMARK    3  A    between atoms: C_9  and  C_10 
REMARK       I    between atoms: C_10  and  N_11 
REMARK    4  A    between atoms: N_11  and  C_12 
REMARK    5  A    between atoms: C_13  and  C_14 
REMARK       I    between atoms: C_14  and  N_15 
REMARK    6  A    between atoms: N_15  and  C_16 
REMARK    7  A    between atoms: C_16  and  C_17 
REMARK    8  A    between atoms: C_17  and  O_18 
REMARK    9  A    between atoms: O_18  and  C_19 
ROOT
HETATM    1  C   UNL     1       8.709  30.222  58.290  1.00  0.00     0.050 A 
HETATM    2  C   UNL     1       8.192  29.464  57.221  1.00  0.00     0.058 A 
HETATM    3  C   UNL     1       9.017  29.124  56.134  1.00  0.00     0.019 A 
HETATM    4  C   UNL     1      10.362  29.485  56.119  1.00  0.00     0.001 A 
HETATM    5  C   UNL     1      10.898  30.175  57.201  1.00  0.00     0.002 A 
HETATM    6  C   UNL     1      10.081  30.535  58.276  1.00  0.00     0.030 A 
ENDROOT
BRANCH   1   7
HETATM    7  N   UNL     1       7.986  30.743  59.398  1.00  0.00    -0.322 N 
HETATM    8  C   UNL     1       8.195  31.982  59.978  1.00  0.00     0.256 C 
HETATM    9  O   UNL     1       9.030  32.805  59.622  1.00  0.00    -0.267 OA
HETATM   10  H   UNL     1       7.556  30.050  59.998  1.00  0.00     0.169 HD
BRANCH   8  11
HETATM   11  C   UNL     1       7.396  32.284  61.203  1.00  0.00     0.037 A 
HETATM   12  C   UNL     1       5.999  32.335  61.061  1.00  0.00     0.054 A 
HETATM   13  C   UNL     1       5.190  32.618  62.157  1.00  0.00     0.071 A 
HETATM   14  C   UNL     1       5.785  32.869  63.393  1.00  0.00     0.073 A 
HETATM   15  C   UNL     1       7.173  32.804  63.556  1.00  0.00     0.071 A 
HETATM   16  C   UNL     1       7.982  32.498  62.460  1.00  0.00     0.054 A 
BRANCH  13  17
HETATM   17  O   UNL     1       3.825  32.692  62.143  1.00  0.00    -0.356 OA
HETATM   18  C   UNL     1       3.235  33.371  61.038  1.00  0.00     0.210 C 
ENDBRANCH  13  17
BRANCH  15  19
HETATM   19  O   UNL     1       7.602  33.053  64.830  1.00  0.00    -0.356 OA
HETATM   20  C   UNL     1       6.745  33.803  65.678  1.00  0.00     0.210 C 
ENDBRANCH  15  19
ENDBRANCH   8  11
ENDBRANCH   1   7
BRANCH   2  21
HETATM   21  C   UNL     1       6.845  28.841  57.184  1.00  0.00     0.253 C 
HETATM   22  N   UNL     1       6.751  27.707  56.403  1.00  0.00    -0.355 N 
HETATM   23  H   UNL     1       7.595  27.333  55.998  1.00  0.00     0.162 HD
HETATM   24  O   UNL     1       5.896  29.389  57.731  1.00  0.00    -0.268 OA
BRANCH  22  25
HETATM   25  C   UNL     1       5.548  26.895  56.358  1.00  0.00     0.149 C 
BRANCH  25  26
HETATM   26  C   UNL     1       5.677  25.569  55.600  1.00  0.00     0.195 C 
BRANCH  26  27
HETATM   27  O   UNL     1       6.983  25.474  55.011  1.00  0.00    -0.350 OA
BRANCH  27  28
HETATM   28  C   UNL     1       7.316  24.196  54.646  1.00  0.00     0.068 A 
HETATM   29  C   UNL     1       7.591  23.988  53.295  1.00  0.00     0.037 A 
HETATM   30  C   UNL     1       7.943  22.717  52.838  1.00  0.00     0.003 A 
HETATM   31  C   UNL     1       8.039  21.654  53.735  1.00  0.00     0.000 A 
HETATM   32  C   UNL     1       7.791  21.865  55.091  1.00  0.00     0.003 A 
HETATM   33  C   UNL     1       7.435  23.136  55.548  1.00  0.00     0.037 A 
ENDBRANCH  27  28
ENDBRANCH  26  27
ENDBRANCH  25  26
ENDBRANCH  22  25
ENDBRANCH   2  21
TORSDOF 9
ENDMDL
MODEL 5
REMARK VINA RESULT:      -9.0      4.385     10.180
REMARK  9 active torsions:
REMARK  status: ('A' for Active; 'I' for Inactive)
REMARK    1  A    between atoms: O_2  and  C_3 
REMARK    2  A    between atoms: C_5  and  O_6 
REMARK    3  A    between atoms: C_9  and  C_10 
REMARK       I    between atoms: C_10  and  N_11 
REMARK    4  A    between atoms: N_11  and  C_12 
REMARK    5  A    between atoms: C_13  and  C_14 
REMARK       I    between atoms: C_14  and  N_15 
REMARK    6  A    between atoms: N_15  and  C_16 
REMARK    7  A    between atoms: C_16  and  C_17 
REMARK    8  A    between atoms: C_17  and  O_18 
REMARK    9  A    between atoms: O_18  and  C_19 
ROOT
HETATM    1  C   UNL     1       7.273  23.857  53.395  1.00  0.00     0.050 A 
HETATM    2  C   UNL     1       7.147  23.763  54.795  1.00  0.00     0.058 A 
HETATM    3  C   UNL     1       7.506  22.575  55.457  1.00  0.00     0.019 A 
HETATM    4  C   UNL     1       8.035  21.497  54.751  1.00  0.00     0.001 A 
HETATM    5  C   UNL     1       8.225  21.605  53.378  1.00  0.00     0.002 A 
HETATM    6  C   UNL     1       7.854  22.774  52.709  1.00  0.00     0.030 A 
ENDROOT
BRANCH   1   7
HETATM    7  N   UNL     1       6.851  24.934  52.568  1.00  0.00    -0.322 N 
HETATM    8  C   UNL     1       5.546  25.175  52.174  1.00  0.00     0.256 C 
HETATM    9  O   UNL     1       4.572  24.499  52.478  1.00  0.00    -0.267 OA
HETATM   10  H   UNL     1       7.565  25.322  51.965  1.00  0.00     0.169 HD
BRANCH   8  11
HETATM   11  C   UNL     1       5.342  26.302  51.214  1.00  0.00     0.037 A 
HETATM   12  C   UNL     1       5.721  27.585  51.641  1.00  0.00     0.054 A 
HETATM   13  C   UNL     1       5.553  28.684  50.804  1.00  0.00     0.071 A 
HETATM   14  C   UNL     1       4.986  28.496  49.543  1.00  0.00     0.073 A 
HETATM   15  C   UNL     1       4.620  27.222  49.096  1.00  0.00     0.071 A 
HETATM   16  C   UNL     1       4.809  26.118  49.929  1.00  0.00     0.054 A 
BRANCH  13  17
HETATM   17  O   UNL     1       5.886  29.975  51.105  1.00  0.00    -0.356 OA
HETATM   18  C   UNL     1       5.749  30.929  50.055  1.00  0.00     0.210 C 
ENDBRANCH  13  17
BRANCH  15  19
HETATM   19  O   UNL     1       4.098  27.198  47.832  1.00  0.00    -0.356 OA
HETATM   20  C   UNL     1       2.764  27.657  47.663  1.00  0.00     0.210 C 
ENDBRANCH  15  19
ENDBRANCH   8  11
ENDBRANCH   1   7
BRANCH   2  21
HETATM   21  C   UNL     1       6.789  24.883  55.701  1.00  0.00     0.253 C 
HETATM   22  N   UNL     1       7.616  25.032  56.796  1.00  0.00    -0.355 N 
HETATM   23  H   UNL     1       8.438  24.450  56.858  1.00  0.00     0.162 HD
HETATM   24  O   UNL     1       5.766  25.529  55.510  1.00  0.00    -0.268 OA
BRANCH  22  25
HETATM   25  C   UNL     1       7.496  26.151  57.711  1.00  0.00     0.149 C 
BRANCH  25  26
HETATM   26  C   UNL     1       8.188  27.444  57.266  1.00  0.00     0.195 C 
BRANCH  26  27
HETATM   27  O   UNL     1       7.538  28.573  57.869  1.00  0.00    -0.350 OA
BRANCH  27  28
HETATM   28  C   UNL     1       8.394  29.612  58.127  1.00  0.00     0.068 A 
HETATM   29  C   UNL     1       8.049  30.453  59.184  1.00  0.00     0.037 A 
HETATM   30  C   UNL     1       8.867  31.534  59.517  1.00  0.00     0.003 A 
HETATM   31  C   UNL     1      10.043  31.765  58.804  1.00  0.00     0.000 A 
HETATM   32  C   UNL     1      10.404  30.910  57.764  1.00  0.00     0.003 A 
HETATM   33  C   UNL     1       9.584  29.830  57.427  1.00  0.00     0.037 A 
ENDBRANCH  27  28
ENDBRANCH  26  27
ENDBRANCH  25  26
ENDBRANCH  22  25
ENDBRANCH   2  21
TORSDOF 9
ENDMDL
MODEL 6
REMARK VINA RESULT:      -9.0      4.630      7.795
REMARK  9 active torsions:
REMARK  status: ('A' for Active; 'I' for Inactive)
REMARK    1  A    between atoms: O_2  and  C_3 
REMARK    2  A    between atoms: C_5  and  O_6 
REMARK    3  A    between atoms: C_9  and  C_10 
REMARK       I    between atoms: C_10  and  N_11 
REMARK    4  A    between atoms: N_11  and  C_12 
REMARK    5  A    between atoms: C_13  and  C_14 
REMARK       I    between atoms: C_14  and  N_15 
REMARK    6  A    between atoms: N_15  and  C_16 
REMARK    7  A    between atoms: C_16  and  C_17 
REMARK    8  A    between atoms: C_17  and  O_18 
REMARK    9  A    between atoms: O_18  and  C_19 
ROOT
HETATM    1  C   UNL     1       7.746  23.965  55.001  1.00  0.00     0.050 A 
HETATM    2  C   UNL     1       7.674  23.776  53.607  1.00  0.00     0.058 A 
HETATM    3  C   UNL     1       7.766  22.480  53.066  1.00  0.00     0.019 A 
HETATM    4  C   UNL     1       7.881  21.367  53.896  1.00  0.00     0.001 A 
HETATM    5  C   UNL     1       7.885  21.539  55.275  1.00  0.00     0.002 A 
HETATM    6  C   UNL     1       7.813  22.823  55.822  1.00  0.00     0.030 A 
ENDROOT
BRANCH   1   7
HETATM    7  N   UNL     1       7.784  25.205  55.695  1.00  0.00    -0.322 N 
HETATM    8  C   UNL     1       6.678  25.974  56.020  1.00  0.00     0.256 C 
HETATM    9  O   UNL     1       5.515  25.698  55.756  1.00  0.00    -0.267 OA
HETATM   10  H   UNL     1       8.659  25.709  55.634  1.00  0.00     0.169 HD
BRANCH   8  11
HETATM   11  C   UNL     1       6.956  27.297  56.655  1.00  0.00     0.037 A 
HETATM   12  C   UNL     1       5.850  28.112  56.949  1.00  0.00     0.054 A 
HETATM   13  C   UNL     1       6.032  29.361  57.534  1.00  0.00     0.071 A 
HETATM   14  C   UNL     1       7.328  29.800  57.807  1.00  0.00     0.073 A 
HETATM   15  C   UNL     1       8.438  28.994  57.538  1.00  0.00     0.071 A 
HETATM   16  C   UNL     1       8.252  27.732  56.971  1.00  0.00     0.054 A 
BRANCH  13  17
HETATM   17  O   UNL     1       5.039  30.239  57.868  1.00  0.00    -0.356 OA
HETATM   18  C   UNL     1       3.888  30.248  57.027  1.00  0.00     0.210 C 
ENDBRANCH  13  17
BRANCH  15  19
HETATM   19  O   UNL     1       9.637  29.554  57.880  1.00  0.00    -0.356 OA
HETATM   20  C   UNL     1      10.658  29.579  56.892  1.00  0.00     0.210 C 
ENDBRANCH  15  19
ENDBRANCH   8  11
ENDBRANCH   1   7
BRANCH   2  21
HETATM   21  C   UNL     1       7.357  24.832  52.613  1.00  0.00     0.253 C 
HETATM   22  N   UNL     1       6.038  25.235  52.593  1.00  0.00    -0.355 N 
HETATM   23  H   UNL     1       5.414  24.867  53.295  1.00  0.00     0.162 HD
HETATM   24  O   UNL     1       8.211  25.207  51.819  1.00  0.00    -0.268 OA
BRANCH  22  25
HETATM   25  C   UNL     1       5.580  26.347  51.780  1.00  0.00     0.149 C 
BRANCH  25  26
HETATM   26  C   UNL     1       4.997  25.969  50.414  1.00  0.00     0.195 C 
BRANCH  26  27
HETATM   27  O   UNL     1       4.798  27.154  49.629  1.00  0.00    -0.350 OA
BRANCH  27  28
HETATM   28  C   UNL     1       3.689  27.088  48.827  1.00  0.00     0.068 A 
HETATM   29  C   UNL     1       3.693  26.101  47.842  1.00  0.00     0.037 A 
HETATM   30  C   UNL     1       2.601  25.961  46.984  1.00  0.00     0.003 A 
HETATM   31  C   UNL     1       1.494  26.798  47.122  1.00  0.00     0.000 A 
HETATM   32  C   UNL     1       1.476  27.768  48.123  1.00  0.00     0.003 A 
HETATM   33  C   UNL     1       2.570  27.911  48.979  1.00  0.00     0.037 A 
ENDBRANCH  27  28
ENDBRANCH  26  27
ENDBRANCH  25  26
ENDBRANCH  22  25
ENDBRANCH   2  21
TORSDOF 9
ENDMDL
MODEL 7
REMARK VINA RESULT:      -8.9      1.841      9.738
REMARK  9 active torsions:
REMARK  status: ('A' for Active; 'I' for Inactive)
REMARK    1  A    between atoms: O_2  and  C_3 
REMARK    2  A    between atoms: C_5  and  O_6 
REMARK    3  A    between atoms: C_9  and  C_10 
REMARK       I    between atoms: C_10  and  N_11 
REMARK    4  A    between atoms: N_11  and  C_12 
REMARK    5  A    between atoms: C_13  and  C_14 
REMARK       I    between atoms: C_14  and  N_15 
REMARK    6  A    between atoms: N_15  and  C_16 
REMARK    7  A    between atoms: C_16  and  C_17 
REMARK    8  A    between atoms: C_17  and  O_18 
REMARK    9  A    between atoms: O_18  and  C_19 
ROOT
HETATM    1  C   UNL     1       8.941  29.416  57.084  1.00  0.00     0.050 A 
HETATM    2  C   UNL     1       8.331  30.346  57.948  1.00  0.00     0.058 A 
HETATM    3  C   UNL     1       9.119  31.272  58.657  1.00  0.00     0.019 A 
HETATM    4  C   UNL     1      10.499  31.317  58.479  1.00  0.00     0.001 A 
HETATM    5  C   UNL     1      11.102  30.447  57.578  1.00  0.00     0.002 A 
HETATM    6  C   UNL     1      10.331  29.511  56.884  1.00  0.00     0.030 A 
ENDROOT
BRANCH   1   7
HETATM    7  N   UNL     1       8.306  28.349  56.391  1.00  0.00    -0.322 N 
HETATM    8  C   UNL     1       7.862  27.172  56.968  1.00  0.00     0.256 C 
HETATM    9  O   UNL     1       7.952  26.880  58.154  1.00  0.00    -0.267 OA
HETATM   10  H   UNL     1       8.507  28.297  55.400  1.00  0.00     0.169 HD
BRANCH   8  11
HETATM   11  C   UNL     1       7.322  26.139  56.034  1.00  0.00     0.037 A 
HETATM   12  C   UNL     1       6.368  26.561  55.093  1.00  0.00     0.054 A 
HETATM   13  C   UNL     1       5.814  25.653  54.196  1.00  0.00     0.071 A 
HETATM   14  C   UNL     1       6.205  24.315  54.256  1.00  0.00     0.073 A 
HETATM   15  C   UNL     1       7.167  23.882  55.175  1.00  0.00     0.071 A 
HETATM   16  C   UNL     1       7.737  24.799  56.060  1.00  0.00     0.054 A 
BRANCH  13  17
HETATM   17  O   UNL     1       4.884  25.944  53.237  1.00  0.00    -0.356 OA
HETATM   18  C   UNL     1       5.278  25.733  51.885  1.00  0.00     0.210 C 
ENDBRANCH  13  17
BRANCH  15  19
HETATM   19  O   UNL     1       7.460  22.549  55.097  1.00  0.00    -0.356 OA
HETATM   20  C   UNL     1       8.249  21.987  56.136  1.00  0.00     0.210 C 
ENDBRANCH  15  19
ENDBRANCH   8  11
ENDBRANCH   1   7
BRANCH   2  21
HETATM   21  C   UNL     1       6.868  30.553  58.093  1.00  0.00     0.253 C 
HETATM   22  N   UNL     1       6.493  31.317  59.178  1.00  0.00    -0.355 N 
HETATM   23  H   UNL     1       7.217  31.751  59.732  1.00  0.00     0.162 HD
HETATM   24  O   UNL     1       6.087  29.978  57.344  1.00  0.00    -0.268 OA
BRANCH  22  25
HETATM   25  C   UNL     1       5.119  31.731  59.397  1.00  0.00     0.149 C 
BRANCH  25  26
HETATM   26  C   UNL     1       4.904  32.713  60.555  1.00  0.00     0.195 C 
BRANCH  26  27
HETATM   27  O   UNL     1       4.797  31.988  61.789  1.00  0.00    -0.350 OA
BRANCH  27  28
HETATM   28  C   UNL     1       5.653  32.446  62.757  1.00  0.00     0.068 A 
HETATM   29  C   UNL     1       7.008  32.183  62.562  1.00  0.00     0.037 A 
HETATM   30  C   UNL     1       7.949  32.617  63.497  1.00  0.00     0.003 A 
HETATM   31  C   UNL     1       7.537  33.332  64.621  1.00  0.00     0.000 A 
HETATM   32  C   UNL     1       6.185  33.619  64.805  1.00  0.00     0.003 A 
HETATM   33  C   UNL     1       5.243  33.182  63.872  1.00  0.00     0.037 A 
ENDBRANCH  27  28
ENDBRANCH  26  27
ENDBRANCH  25  26
ENDBRANCH  22  25
ENDBRANCH   2  21
TORSDOF 9
ENDMDL
MODEL 8
REMARK VINA RESULT:      -8.9      2.004      9.973
REMARK  9 active torsions:
REMARK  status: ('A' for Active; 'I' for Inactive)
REMARK    1  A    between atoms: O_2  and  C_3 
REMARK    2  A    between atoms: C_5  and  O_6 
REMARK    3  A    between atoms: C_9  and  C_10 
REMARK       I    between atoms: C_10  and  N_11 
REMARK    4  A    between atoms: N_11  and  C_12 
REMARK    5  A    between atoms: C_13  and  C_14 
REMARK       I    between atoms: C_14  and  N_15 
REMARK    6  A    between atoms: N_15  and  C_16 
REMARK    7  A    between atoms: C_16  and  C_17 
REMARK    8  A    between atoms: C_17  and  O_18 
REMARK    9  A    between atoms: O_18  and  C_19 
ROOT
HETATM    1  C   UNL     1       8.776  29.490  57.089  1.00  0.00     0.050 A 
HETATM    2  C   UNL     1       8.169  30.404  57.972  1.00  0.00     0.058 A 
HETATM    3  C   UNL     1       8.958  31.320  58.692  1.00  0.00     0.019 A 
HETATM    4  C   UNL     1      10.338  31.370  58.508  1.00  0.00     0.001 A 
HETATM    5  C   UNL     1      10.938  30.518  57.589  1.00  0.00     0.002 A 
HETATM    6  C   UNL     1      10.165  29.592  56.883  1.00  0.00     0.030 A 
ENDROOT
BRANCH   1   7
HETATM    7  N   UNL     1       8.141  28.434  56.380  1.00  0.00    -0.322 N 
HETATM    8  C   UNL     1       7.842  27.187  56.903  1.00  0.00     0.256 C 
HETATM    9  O   UNL     1       8.082  26.815  58.044  1.00  0.00    -0.267 OA
HETATM   10  H   UNL     1       8.234  28.471  55.373  1.00  0.00     0.169 HD
BRANCH   8  11
HETATM   11  C   UNL     1       7.271  26.189  55.949  1.00  0.00     0.037 A 
HETATM   12  C   UNL     1       7.761  24.874  56.025  1.00  0.00     0.054 A 
HETATM   13  C   UNL     1       7.282  23.893  55.163  1.00  0.00     0.071 A 
HETATM   14  C   UNL     1       6.323  24.237  54.210  1.00  0.00     0.073 A 
HETATM   15  C   UNL     1       5.811  25.537  54.132  1.00  0.00     0.071 A 
HETATM   16  C   UNL     1       6.278  26.514  55.013  1.00  0.00     0.054 A 
BRANCH  13  17
HETATM   17  O   UNL     1       7.677  22.585  55.144  1.00  0.00    -0.356 OA
HETATM   18  C   UNL     1       8.324  22.099  56.317  1.00  0.00     0.210 C 
ENDBRANCH  13  17
BRANCH  15  19
HETATM   19  O   UNL     1       4.864  25.711  53.162  1.00  0.00    -0.356 OA
HETATM   20  C   UNL     1       4.533  27.045  52.799  1.00  0.00     0.210 C 
ENDBRANCH  15  19
ENDBRANCH   8  11
ENDBRANCH   1   7
BRANCH   2  21
HETATM   21  C   UNL     1       6.706  30.605  58.127  1.00  0.00     0.253 C 
HETATM   22  N   UNL     1       6.340  31.420  59.178  1.00  0.00    -0.355 N 
HETATM   23  H   UNL     1       7.067  31.888  59.698  1.00  0.00     0.162 HD
HETATM   24  O   UNL     1       5.920  29.986  57.420  1.00  0.00    -0.268 OA
BRANCH  22  25
HETATM   25  C   UNL     1       4.965  31.833  59.396  1.00  0.00     0.149 C 
BRANCH  25  26
HETATM   26  C   UNL     1       4.707  32.604  60.695  1.00  0.00     0.195 C 
BRANCH  26  27
HETATM   27  O   UNL     1       5.710  33.618  60.862  1.00  0.00    -0.350 OA
BRANCH  27  28
HETATM   28  C   UNL     1       6.331  33.564  62.083  1.00  0.00     0.068 A 
HETATM   29  C   UNL     1       5.841  34.421  63.067  1.00  0.00     0.037 A 
HETATM   30  C   UNL     1       6.413  34.427  64.341  1.00  0.00     0.003 A 
HETATM   31  C   UNL     1       7.465  33.562  64.637  1.00  0.00     0.000 A 
HETATM   32  C   UNL     1       7.940  32.685  63.662  1.00  0.00     0.003 A 
HETATM   33  C   UNL     1       7.370  32.681  62.387  1.00  0.00     0.037 A 
ENDBRANCH  27  28
ENDBRANCH  26  27
ENDBRANCH  25  26
ENDBRANCH  22  25
ENDBRANCH   2  21
TORSDOF 9
ENDMDL
MODEL 9
REMARK VINA RESULT:      -8.7      1.281      2.517
REMARK  9 active torsions:
REMARK  status: ('A' for Active; 'I' for Inactive)
REMARK    1  A    between atoms: O_2  and  C_3 
REMARK    2  A    between atoms: C_5  and  O_6 
REMARK    3  A    between atoms: C_9  and  C_10 
REMARK       I    between atoms: C_10  and  N_11 
REMARK    4  A    between atoms: N_11  and  C_12 
REMARK    5  A    between atoms: C_13  and  C_14 
REMARK       I    between atoms: C_14  and  N_15 
REMARK    6  A    between atoms: N_15  and  C_16 
REMARK    7  A    between atoms: C_16  and  C_17 
REMARK    8  A    between atoms: C_17  and  O_18 
REMARK    9  A    between atoms: O_18  and  C_19 
ROOT
HETATM    1  C   UNL     1       7.652  30.388  58.395  1.00  0.00     0.050 A 
HETATM    2  C   UNL     1       7.529  29.503  57.306  1.00  0.00     0.058 A 
HETATM    3  C   UNL     1       8.670  29.112  56.582  1.00  0.00     0.019 A 
HETATM    4  C   UNL     1       9.937  29.552  56.958  1.00  0.00     0.001 A 
HETATM    5  C   UNL     1      10.076  30.371  58.072  1.00  0.00     0.002 A 
HETATM    6  C   UNL     1       8.946  30.780  58.786  1.00  0.00     0.030 A 
ENDROOT
BRANCH   1   7
HETATM    7  N   UNL     1       6.596  30.965  59.151  1.00  0.00    -0.322 N 
HETATM    8  C   UNL     1       5.858  32.076  58.776  1.00  0.00     0.256 C 
HETATM    9  O   UNL     1       6.009  32.717  57.745  1.00  0.00    -0.267 OA
HETATM   10  H   UNL     1       6.624  30.779  60.146  1.00  0.00     0.169 HD
BRANCH   8  11
HETATM   11  C   UNL     1       4.867  32.579  59.774  1.00  0.00     0.037 A 
HETATM   12  C   UNL     1       5.169  32.386  61.133  1.00  0.00     0.054 A 
HETATM   13  C   UNL     1       4.289  32.822  62.118  1.00  0.00     0.071 A 
HETATM   14  C   UNL     1       3.095  33.436  61.739  1.00  0.00     0.073 A 
HETATM   15  C   UNL     1       2.788  33.652  60.391  1.00  0.00     0.071 A 
HETATM   16  C   UNL     1       3.682  33.234  59.405  1.00  0.00     0.054 A 
BRANCH  13  17
HETATM   17  O   UNL     1       4.474  32.694  63.466  1.00  0.00    -0.356 OA
HETATM   18  C   UNL     1       5.797  32.908  63.950  1.00  0.00     0.210 C 
ENDBRANCH  13  17
BRANCH  15  19
HETATM   19  O   UNL     1       1.593  34.283  60.181  1.00  0.00    -0.356 OA
HETATM   20  C   UNL     1       0.850  34.682  61.325  1.00  0.00     0.210 C 
ENDBRANCH  15  19
ENDBRANCH   8  11
ENDBRANCH   1   7
BRANCH   2  21
HETATM   21  C   UNL     1       6.284  28.798  56.909  1.00  0.00     0.253 C 
HETATM   22  N   UNL     1       6.349  28.141  55.698  1.00  0.00    -0.355 N 
HETATM   23  H   UNL     1       7.237  28.103  55.220  1.00  0.00     0.162 HD
HETATM   24  O   UNL     1       5.268  28.912  57.585  1.00  0.00    -0.268 OA
BRANCH  22  25
HETATM   25  C   UNL     1       5.273  27.293  55.217  1.00  0.00     0.149 C 
BRANCH  25  26
HETATM   26  C   UNL     1       5.706  26.115  54.336  1.00  0.00     0.195 C 
BRANCH  26  27
HETATM   27  O   UNL     1       7.089  25.814  54.578  1.00  0.00    -0.350 OA
BRANCH  27  28
HETATM   28  C   UNL     1       7.401  24.499  54.352  1.00  0.00     0.068 A 
HETATM   29  C   UNL     1       7.339  23.649  55.455  1.00  0.00     0.037 A 
HETATM   30  C   UNL     1       7.636  22.292  55.313  1.00  0.00     0.003 A 
HETATM   31  C   UNL     1       7.978  21.780  54.062  1.00  0.00     0.000 A 
HETATM   32  C   UNL     1       8.015  22.623  52.952  1.00  0.00     0.003 A 
HETATM   33  C   UNL     1       7.721  23.981  53.095  1.00  0.00     0.037 A 
ENDBRANCH  27  28
ENDBRANCH  26  27
ENDBRANCH  25  26
ENDBRANCH  22  25
ENDBRANCH   2  21
TORSDOF 9
ENDMDL
MODEL 10
REMARK VINA RESULT:      -8.5      4.075      9.693
REMARK  9 active torsions:
REMARK  status: ('A' for Active; 'I' for Inactive)
REMARK    1  A    between atoms: O_2  and  C_3 
REMARK    2  A    between atoms: C_5  and  O_6 
REMARK    3  A    between atoms: C_9  and  C_10 
REMARK       I    between atoms: C_10  and  N_11 
REMARK    4  A    between atoms: N_11  and  C_12 
REMARK    5  A    between atoms: C_13  and  C_14 
REMARK       I    between atoms: C_14  and  N_15 
REMARK    6  A    between atoms: N_15  and  C_16 
REMARK    7  A    between atoms: C_16  and  C_17 
REMARK    8  A    between atoms: C_17  and  O_18 
REMARK    9  A    between atoms: O_18  and  C_19 
ROOT
HETATM    1  C   UNL     1       5.093  27.171  51.539  1.00  0.00     0.050 A 
HETATM    2  C   UNL     1       4.357  28.309  51.924  1.00  0.00     0.058 A 
HETATM    3  C   UNL     1       3.637  29.042  50.962  1.00  0.00     0.019 A 
HETATM    4  C   UNL     1       3.600  28.628  49.632  1.00  0.00     0.001 A 
HETATM    5  C   UNL     1       4.268  27.469  49.256  1.00  0.00     0.002 A 
HETATM    6  C   UNL     1       5.002  26.746  50.200  1.00  0.00     0.030 A 
ENDROOT
BRANCH   1   7
HETATM    7  N   UNL     1       5.958  26.395  52.358  1.00  0.00    -0.322 N 
HETATM    8  C   UNL     1       5.625  25.191  52.956  1.00  0.00     0.256 C 
HETATM    9  O   UNL     1       4.544  24.624  52.866  1.00  0.00    -0.267 OA
HETATM   10  H   UNL     1       6.707  26.908  52.805  1.00  0.00     0.169 HD
BRANCH   8  11
HETATM   11  C   UNL     1       6.651  24.598  53.866  1.00  0.00     0.037 A 
HETATM   12  C   UNL     1       7.170  23.340  53.514  1.00  0.00     0.054 A 
HETATM   13  C   UNL     1       8.123  22.723  54.318  1.00  0.00     0.071 A 
HETATM   14  C   UNL     1       8.542  23.360  55.486  1.00  0.00     0.073 A 
HETATM   15  C   UNL     1       8.049  24.621  55.840  1.00  0.00     0.071 A 
HETATM   16  C   UNL     1       7.109  25.248  55.021  1.00  0.00     0.054 A 
BRANCH  13  17
HETATM   17  O   UNL     1       8.701  21.507  54.080  1.00  0.00    -0.356 OA
HETATM   18  C   UNL     1       8.223  20.787  52.948  1.00  0.00     0.210 C 
ENDBRANCH  13  17
BRANCH  15  19
HETATM   19  O   UNL     1       8.571  25.123  57.000  1.00  0.00    -0.356 OA
HETATM   20  C   UNL     1       7.681  25.779  57.892  1.00  0.00     0.210 C 
ENDBRANCH  15  19
ENDBRANCH   8  11
ENDBRANCH   1   7
BRANCH   2  21
HETATM   21  C   UNL     1       4.138  28.758  53.322  1.00  0.00     0.253 C 
HETATM   22  N   UNL     1       4.108  30.126  53.495  1.00  0.00    -0.355 N 
HETATM   23  H   UNL     1       4.140  30.714  52.675  1.00  0.00     0.162 HD
HETATM   24  O   UNL     1       4.103  27.941  54.234  1.00  0.00    -0.268 OA
BRANCH  22  25
HETATM   25  C   UNL     1       3.772  30.740  54.767  1.00  0.00     0.149 C 
BRANCH  25  26
HETATM   26  C   UNL     1       4.959  31.030  55.692  1.00  0.00     0.195 C 
BRANCH  26  27
HETATM   27  O   UNL     1       5.163  29.920  56.579  1.00  0.00    -0.350 OA
BRANCH  27  28
HETATM   28  C   UNL     1       6.486  29.607  56.754  1.00  0.00     0.068 A 
HETATM   29  C   UNL     1       7.154  29.093  55.643  1.00  0.00     0.037 A 
HETATM   30  C   UNL     1       8.505  28.752  55.733  1.00  0.00     0.003 A 
HETATM   31  C   UNL     1       9.194  28.941  56.930  1.00  0.00     0.000 A 
HETATM   32  C   UNL     1       8.535  29.480  58.034  1.00  0.00     0.003 A 
HETATM   33  C   UNL     1       7.183  29.818  57.946  1.00  0.00     0.037 A 
ENDBRANCH  27  28
ENDBRANCH  26  27
ENDBRANCH  25  26
ENDBRANCH  22  25
ENDBRANCH   2  21
TORSDOF 9
ENDMDL
