MODEL 1
REMARK VINA RESULT:      -8.9      0.000      0.000
REMARK  5 active torsions:
REMARK  status: ('A' for Active; 'I' for Inactive)
REMARK    1  A    between atoms: N_1  and  C_5 
REMARK    2  A    between atoms: C_5  and  C_6 
REMARK    3  A    between atoms: C_6  and  C_7 
REMARK    4  A    between atoms: C_6  and  C_20 
REMARK       I    between atoms: C_7  and  N_9 
REMARK    5  A    between atoms: N_9  and  C_10 
ROOT
HETATM    1  C   UNL     1       7.294  26.568  55.383  1.00  0.00     0.232 C 
HETATM    2  O   UNL     1       7.613  27.207  54.379  1.00  0.00    -0.272 OA
HETATM    3  N   UNL     1       7.599  26.882  56.691  1.00  0.00    -0.327 N 
HETATM    4  H   UNL     1       7.502  26.146  57.386  1.00  0.00     0.169 HD
ENDROOT
BRANCH   1   5
HETATM    5  C   UNL     1       6.533  25.255  55.219  1.00  0.00     0.136 C 
BRANCH   5   6
HETATM    6  C   UNL     1       5.330  25.476  54.276  1.00  0.00     0.248 C 
BRANCH   6   7
HETATM    7  N   UNL     1       4.667  26.795  54.496  1.00  0.00    -0.078 N 
HETATM    8  H   UNL     1       3.752  26.630  54.961  1.00  0.00     0.274 HD
HETATM    9  H   UNL     1       5.219  27.418  55.100  1.00  0.00     0.274 HD
HETATM   10  H   UNL     1       4.473  27.286  53.615  1.00  0.00     0.274 HD
ENDBRANCH   6   7
ENDBRANCH   5   6
BRANCH   5  11
HETATM   11  C   UNL     1       7.385  24.086  54.748  1.00  0.00    -0.043 A 
HETATM   12  C   UNL     1       7.160  23.562  53.464  1.00  0.00     0.008 A 
HETATM   13  C   UNL     1       7.938  22.512  52.978  1.00  0.00     0.001 A 
HETATM   14  C   UNL     1       8.950  21.971  53.765  1.00  0.00     0.000 A 
HETATM   15  C   UNL     1       9.185  22.479  55.040  1.00  0.00     0.001 A 
HETATM   16  C   UNL     1       8.411  23.532  55.531  1.00  0.00     0.008 A 
ENDBRANCH   5  11
ENDBRANCH   1   5
BRANCH   3  17
HETATM   17  C   UNL     1       8.167  28.085  57.161  1.00  0.00     0.035 A 
HETATM   18  C   UNL     1       9.493  28.350  56.804  1.00  0.00     0.030 A 
HETATM   19  C   UNL     1      10.132  29.510  57.251  1.00  0.00     0.016 A 
HETATM   20  C   UNL     1       9.457  30.414  58.085  1.00  0.00    -0.008 A 
HETATM   21  C   UNL     1      10.049  31.581  58.578  1.00  0.00     0.128 A 
HETATM   22  C   UNL     1       8.127  30.152  58.465  1.00  0.00    -0.021 A 
HETATM   23  N   UNL     1       9.435  32.462  59.398  1.00  0.00    -0.272 NA
HETATM   24  C   UNL     1       8.166  32.177  59.752  1.00  0.00     0.117 A 
HETATM   25  C   UNL     1       7.479  31.055  59.317  1.00  0.00     0.031 A 
HETATM   26  C   UNL     1       7.492  28.988  57.989  1.00  0.00     0.042 A 
ENDBRANCH   3  17
TORSDOF 5
ENDMDL
MODEL 2
REMARK VINA RESULT:      -8.9      2.214      7.764
REMARK  5 active torsions:
REMARK  status: ('A' for Active; 'I' for Inactive)
REMARK    1  A    between atoms: N_1  and  C_5 
REMARK    2  A    between atoms: C_5  and  C_6 
REMARK    3  A    between atoms: C_6  and  C_7 
REMARK    4  A    between atoms: C_6  and  C_20 
REMARK       I    between atoms: C_7  and  N_9 
REMARK    5  A    between atoms: N_9  and  C_10 
ROOT
HETATM    1  C   UNL     1       7.045  26.462  56.188  1.00  0.00     0.232 C 
HETATM    2  O   UNL     1       6.900  25.751  57.184  1.00  0.00    -0.272 OA
HETATM    3  N   UNL     1       7.518  26.065  54.955  1.00  0.00    -0.327 N 
HETATM    4  H   UNL     1       7.829  26.791  54.314  1.00  0.00     0.169 HD
ENDROOT
BRANCH   1   5
HETATM    5  C   UNL     1       6.742  27.954  56.288  1.00  0.00     0.136 C 
BRANCH   5   6
HETATM    6  C   UNL     1       5.460  28.160  57.124  1.00  0.00     0.248 C 
BRANCH   6   7
HETATM    7  N   UNL     1       4.369  27.215  56.742  1.00  0.00    -0.078 N 
HETATM    8  H   UNL     1       4.225  27.278  55.715  1.00  0.00     0.274 HD
HETATM    9  H   UNL     1       4.598  26.238  56.967  1.00  0.00     0.274 HD
HETATM   10  H   UNL     1       3.475  27.450  57.188  1.00  0.00     0.274 HD
ENDBRANCH   6   7
ENDBRANCH   5   6
BRANCH   5  11
HETATM   11  C   UNL     1       7.886  28.796  56.829  1.00  0.00    -0.043 A 
HETATM   12  C   UNL     1       7.798  29.289  58.143  1.00  0.00     0.008 A 
HETATM   13  C   UNL     1       8.837  30.038  58.693  1.00  0.00     0.001 A 
HETATM   14  C   UNL     1       9.977  30.307  57.942  1.00  0.00     0.000 A 
HETATM   15  C   UNL     1      10.079  29.826  56.638  1.00  0.00     0.001 A 
HETATM   16  C   UNL     1       9.043  29.073  56.083  1.00  0.00     0.008 A 
ENDBRANCH   5  11
ENDBRANCH   1   5
BRANCH   3  17
HETATM   17  C   UNL     1       7.751  24.740  54.525  1.00  0.00     0.035 A 
HETATM   18  C   UNL     1       7.494  24.447  53.182  1.00  0.00     0.030 A 
HETATM   19  C   UNL     1       7.679  23.152  52.689  1.00  0.00     0.016 A 
HETATM   20  C   UNL     1       8.102  22.122  53.543  1.00  0.00    -0.008 A 
HETATM   21  C   UNL     1       8.286  20.805  53.111  1.00  0.00     0.128 A 
HETATM   22  C   UNL     1       8.348  22.400  54.901  1.00  0.00    -0.021 A 
HETATM   23  N   UNL     1       8.673  19.786  53.910  1.00  0.00    -0.272 NA
HETATM   24  C   UNL     1       8.891  20.082  55.207  1.00  0.00     0.117 A 
HETATM   25  C   UNL     1       8.747  21.354  55.742  1.00  0.00     0.031 A 
HETATM   26  C   UNL     1       8.177  23.715  55.377  1.00  0.00     0.042 A 
ENDBRANCH   3  17
TORSDOF 5
ENDMDL
MODEL 3
REMARK VINA RESULT:      -8.9      1.007      1.824
REMARK  5 active torsions:
REMARK  status: ('A' for Active; 'I' for Inactive)
REMARK    1  A    between atoms: N_1  and  C_5 
REMARK    2  A    between atoms: C_5  and  C_6 
REMARK    3  A    between atoms: C_6  and  C_7 
REMARK    4  A    between atoms: C_6  and  C_20 
REMARK       I    between atoms: C_7  and  N_9 
REMARK    5  A    between atoms: N_9  and  C_10 
ROOT
HETATM    1  C   UNL     1       6.740  26.322  54.846  1.00  0.00     0.232 C 
HETATM    2  O   UNL     1       7.162  27.011  53.915  1.00  0.00    -0.272 OA
HETATM    3  N   UNL     1       6.931  26.550  56.193  1.00  0.00    -0.327 N 
HETATM    4  H   UNL     1       6.757  25.777  56.830  1.00  0.00     0.169 HD
ENDROOT
BRANCH   1   5
HETATM    5  C   UNL     1       5.972  25.041  54.534  1.00  0.00     0.136 C 
BRANCH   5   6
HETATM    6  C   UNL     1       5.117  25.254  53.266  1.00  0.00     0.248 C 
BRANCH   6   7
HETATM    7  N   UNL     1       4.171  26.401  53.400  1.00  0.00    -0.078 N 
HETATM    8  H   UNL     1       3.331  26.076  53.920  1.00  0.00     0.274 HD
HETATM    9  H   UNL     1       4.578  27.188  53.922  1.00  0.00     0.274 HD
HETATM   10  H   UNL     1       3.847  26.749  52.490  1.00  0.00     0.274 HD
ENDBRANCH   6   7
ENDBRANCH   5   6
BRANCH   5  11
HETATM   11  C   UNL     1       6.841  23.800  54.401  1.00  0.00    -0.043 A 
HETATM   12  C   UNL     1       7.240  23.390  53.117  1.00  0.00     0.008 A 
HETATM   13  C   UNL     1       8.064  22.277  52.950  1.00  0.00     0.001 A 
HETATM   14  C   UNL     1       8.501  21.559  54.059  1.00  0.00     0.000 A 
HETATM   15  C   UNL     1       8.113  21.953  55.337  1.00  0.00     0.001 A 
HETATM   16  C   UNL     1       7.291  23.067  55.512  1.00  0.00     0.008 A 
ENDBRANCH   5  11
ENDBRANCH   1   5
BRANCH   3  17
HETATM   17  C   UNL     1       7.478  27.709  56.784  1.00  0.00     0.035 A 
HETATM   18  C   UNL     1       6.602  28.549  57.479  1.00  0.00     0.030 A 
HETATM   19  C   UNL     1       7.066  29.727  58.072  1.00  0.00     0.016 A 
HETATM   20  C   UNL     1       8.415  30.095  57.956  1.00  0.00    -0.008 A 
HETATM   21  C   UNL     1       8.933  31.269  58.511  1.00  0.00     0.128 A 
HETATM   22  C   UNL     1       9.304  29.267  57.244  1.00  0.00    -0.021 A 
HETATM   23  N   UNL     1      10.221  31.663  58.401  1.00  0.00    -0.272 NA
HETATM   24  C   UNL     1      11.044  30.855  57.705  1.00  0.00     0.117 A 
HETATM   25  C   UNL     1      10.642  29.664  57.120  1.00  0.00     0.031 A 
HETATM   26  C   UNL     1       8.824  28.073  56.671  1.00  0.00     0.042 A 
ENDBRANCH   3  17
TORSDOF 5
ENDMDL
MODEL 4
REMARK VINA RESULT:      -8.8      2.328      7.661
REMARK  5 active torsions:
REMARK  status: ('A' for Active; 'I' for Inactive)
REMARK    1  A    between atoms: N_1  and  C_5 
REMARK    2  A    between atoms: C_5  and  C_6 
REMARK    3  A    between atoms: C_6  and  C_7 
REMARK    4  A    between atoms: C_6  and  C_20 
REMARK       I    between atoms: C_7  and  N_9 
REMARK    5  A    between atoms: N_9  and  C_10 
ROOT
HETATM    1  C   UNL     1       6.439  26.477  56.257  1.00  0.00     0.232 C 
HETATM    2  O   UNL     1       5.550  25.895  56.882  1.00  0.00    -0.272 OA
HETATM    3  N   UNL     1       7.554  25.903  55.683  1.00  0.00    -0.327 N 
HETATM    4  H   UNL     1       8.323  26.518  55.431  1.00  0.00     0.169 HD
ENDROOT
BRANCH   1   5
HETATM    5  C   UNL     1       6.382  27.996  56.125  1.00  0.00     0.136 C 
BRANCH   5   6
HETATM    6  C   UNL     1       5.193  28.537  56.947  1.00  0.00     0.248 C 
BRANCH   6   7
HETATM    7  N   UNL     1       3.874  28.202  56.333  1.00  0.00    -0.078 N 
HETATM    8  H   UNL     1       3.661  27.205  56.536  1.00  0.00     0.274 HD
HETATM    9  H   UNL     1       3.107  28.771  56.713  1.00  0.00     0.274 HD
HETATM   10  H   UNL     1       3.880  28.308  55.312  1.00  0.00     0.274 HD
ENDBRANCH   6   7
ENDBRANCH   5   6
BRANCH   5  11
HETATM   11  C   UNL     1       7.671  28.711  56.498  1.00  0.00    -0.043 A 
HETATM   12  C   UNL     1       7.882  29.064  57.843  1.00  0.00     0.008 A 
HETATM   13  C   UNL     1       9.063  29.691  58.237  1.00  0.00     0.001 A 
HETATM   14  C   UNL     1      10.050  29.975  57.298  1.00  0.00     0.000 A 
HETATM   15  C   UNL     1       9.856  29.632  55.962  1.00  0.00     0.001 A 
HETATM   16  C   UNL     1       8.676  29.001  55.561  1.00  0.00     0.008 A 
ENDBRANCH   5  11
ENDBRANCH   1   5
BRANCH   3  17
HETATM   17  C   UNL     1       7.808  24.523  55.527  1.00  0.00     0.035 A 
HETATM   18  C   UNL     1       8.205  23.812  56.664  1.00  0.00     0.030 A 
HETATM   19  C   UNL     1       8.497  22.447  56.583  1.00  0.00     0.016 A 
HETATM   20  C   UNL     1       8.421  21.777  55.353  1.00  0.00    -0.008 A 
HETATM   21  C   UNL     1       8.719  20.419  55.207  1.00  0.00     0.128 A 
HETATM   22  C   UNL     1       8.038  22.485  54.197  1.00  0.00    -0.021 A 
HETATM   23  N   UNL     1       8.674  19.749  54.034  1.00  0.00    -0.272 NA
HETATM   24  C   UNL     1       8.315  20.456  52.945  1.00  0.00     0.117 A 
HETATM   25  C   UNL     1       7.990  21.804  52.974  1.00  0.00     0.031 A 
HETATM   26  C   UNL     1       7.727  23.856  54.300  1.00  0.00     0.042 A 
ENDBRANCH   3  17
TORSDOF 5
ENDMDL
MODEL 5
REMARK VINA RESULT:      -8.4      4.415      8.055
REMARK  5 active torsions:
REMARK  status: ('A' for Active; 'I' for Inactive)
REMARK    1  A    between atoms: N_1  and  C_5 
REMARK    2  A    between atoms: C_5  and  C_6 
REMARK    3  A    between atoms: C_6  and  C_7 
REMARK    4  A    between atoms: C_6  and  C_20 
REMARK       I    between atoms: C_7  and  N_9 
REMARK    5  A    between atoms: N_9  and  C_10 
ROOT
HETATM    1  C   UNL     1       5.835  25.285  52.778  1.00  0.00     0.232 C 
HETATM    2  O   UNL     1       4.806  24.621  52.917  1.00  0.00    -0.272 OA
HETATM    3  N   UNL     1       6.094  26.203  51.781  1.00  0.00    -0.327 N 
HETATM    4  H   UNL     1       7.062  26.479  51.636  1.00  0.00     0.169 HD
ENDROOT
BRANCH   1   5
HETATM    5  C   UNL     1       6.997  25.069  53.743  1.00  0.00     0.136 C 
BRANCH   5   6
HETATM    6  C   UNL     1       6.710  25.816  55.063  1.00  0.00     0.248 C 
BRANCH   6   7
HETATM    7  N   UNL     1       5.253  26.068  55.274  1.00  0.00    -0.078 N 
HETATM    8  H   UNL     1       4.826  26.310  54.358  1.00  0.00     0.274 HD
HETATM    9  H   UNL     1       4.761  25.244  55.642  1.00  0.00     0.274 HD
HETATM   10  H   UNL     1       5.081  26.858  55.906  1.00  0.00     0.274 HD
ENDBRANCH   6   7
ENDBRANCH   5   6
BRANCH   5  11
HETATM   11  C   UNL     1       7.335  23.610  54.006  1.00  0.00    -0.043 A 
HETATM   12  C   UNL     1       7.712  22.798  52.922  1.00  0.00     0.008 A 
HETATM   13  C   UNL     1       8.064  21.464  53.121  1.00  0.00     0.001 A 
HETATM   14  C   UNL     1       8.043  20.920  54.401  1.00  0.00     0.000 A 
HETATM   15  C   UNL     1       7.672  21.711  55.486  1.00  0.00     0.001 A 
HETATM   16  C   UNL     1       7.322  23.049  55.294  1.00  0.00     0.008 A 
ENDBRANCH   5  11
ENDBRANCH   1   5
BRANCH   3  17
HETATM   17  C   UNL     1       5.175  26.707  50.836  1.00  0.00     0.035 A 
HETATM   18  C   UNL     1       4.663  27.989  51.060  1.00  0.00     0.030 A 
HETATM   19  C   UNL     1       3.730  28.546  50.180  1.00  0.00     0.016 A 
HETATM   20  C   UNL     1       3.276  27.815  49.073  1.00  0.00    -0.008 A 
HETATM   21  C   UNL     1       2.331  28.312  48.170  1.00  0.00     0.128 A 
HETATM   22  C   UNL     1       3.770  26.516  48.845  1.00  0.00    -0.021 A 
HETATM   23  N   UNL     1       1.858  27.627  47.105  1.00  0.00    -0.272 NA
HETATM   24  C   UNL     1       2.343  26.383  46.920  1.00  0.00     0.117 A 
HETATM   25  C   UNL     1       3.287  25.794  47.747  1.00  0.00     0.031 A 
HETATM   26  C   UNL     1       4.726  25.978  49.730  1.00  0.00     0.042 A 
ENDBRANCH   3  17
TORSDOF 5
ENDMDL
MODEL 6
REMARK VINA RESULT:      -8.4      1.290      1.520
REMARK  5 active torsions:
REMARK  status: ('A' for Active; 'I' for Inactive)
REMARK    1  A    between atoms: N_1  and  C_5 
REMARK    2  A    between atoms: C_5  and  C_6 
REMARK    3  A    between atoms: C_6  and  C_7 
REMARK    4  A    between atoms: C_6  and  C_20 
REMARK       I    between atoms: C_7  and  N_9 
REMARK    5  A    between atoms: N_9  and  C_10 
ROOT
HETATM    1  C   UNL     1       6.440  26.243  54.850  1.00  0.00     0.232 C 
HETATM    2  O   UNL     1       6.991  26.903  53.967  1.00  0.00    -0.272 OA
HETATM    3  N   UNL     1       6.386  26.547  56.194  1.00  0.00    -0.327 N 
HETATM    4  H   UNL     1       6.133  25.800  56.836  1.00  0.00     0.169 HD
ENDROOT
BRANCH   1   5
HETATM    5  C   UNL     1       5.785  24.914  54.486  1.00  0.00     0.136 C 
BRANCH   5   6
HETATM    6  C   UNL     1       4.961  25.088  53.192  1.00  0.00     0.248 C 
BRANCH   6   7
HETATM    7  N   UNL     1       4.021  26.246  53.264  1.00  0.00    -0.078 N 
HETATM    8  H   UNL     1       4.239  26.896  52.483  1.00  0.00     0.274 HD
HETATM    9  H   UNL     1       3.038  25.961  53.170  1.00  0.00     0.274 HD
HETATM   10  H   UNL     1       4.122  26.777  54.137  1.00  0.00     0.274 HD
ENDBRANCH   6   7
ENDBRANCH   5   6
BRANCH   5  11
HETATM   11  C   UNL     1       6.751  23.746  54.362  1.00  0.00    -0.043 A 
HETATM   12  C   UNL     1       7.160  23.342  53.079  1.00  0.00     0.008 A 
HETATM   13  C   UNL     1       8.071  22.298  52.918  1.00  0.00     0.001 A 
HETATM   14  C   UNL     1       8.584  21.643  54.033  1.00  0.00     0.000 A 
HETATM   15  C   UNL     1       8.188  22.030  55.311  1.00  0.00     0.001 A 
HETATM   16  C   UNL     1       7.279  23.077  55.478  1.00  0.00     0.008 A 
ENDBRANCH   5  11
ENDBRANCH   1   5
BRANCH   3  17
HETATM   17  C   UNL     1       6.780  27.758  56.803  1.00  0.00     0.035 A 
HETATM   18  C   UNL     1       8.118  27.875  57.192  1.00  0.00     0.030 A 
HETATM   19  C   UNL     1       8.577  29.035  57.822  1.00  0.00     0.016 A 
HETATM   20  C   UNL     1       7.694  30.090  58.096  1.00  0.00    -0.008 A 
HETATM   21  C   UNL     1       8.091  31.266  58.739  1.00  0.00     0.128 A 
HETATM   22  C   UNL     1       6.340  29.979  57.724  1.00  0.00    -0.021 A 
HETATM   23  N   UNL     1       7.262  32.292  59.034  1.00  0.00    -0.272 NA
HETATM   24  C   UNL     1       5.971  32.151  58.676  1.00  0.00     0.117 A 
HETATM   25  C   UNL     1       5.470  31.034  58.026  1.00  0.00     0.031 A 
HETATM   26  C   UNL     1       5.899  28.811  57.071  1.00  0.00     0.042 A 
ENDBRANCH   3  17
TORSDOF 5
ENDMDL
MODEL 7
REMARK VINA RESULT:      -8.0      7.471     12.960
REMARK  5 active torsions:
REMARK  status: ('A' for Active; 'I' for Inactive)
REMARK    1  A    between atoms: N_1  and  C_5 
REMARK    2  A    between atoms: C_5  and  C_6 
REMARK    3  A    between atoms: C_6  and  C_7 
REMARK    4  A    between atoms: C_6  and  C_20 
REMARK       I    between atoms: C_7  and  N_9 
REMARK    5  A    between atoms: N_9  and  C_10 
ROOT
HETATM    1  C   UNL     1       5.544  34.132  65.912  1.00  0.00     0.232 C 
HETATM    2  O   UNL     1       4.682  33.263  65.766  1.00  0.00    -0.272 OA
HETATM    3  N   UNL     1       6.648  34.339  65.111  1.00  0.00    -0.327 N 
HETATM    4  H   UNL     1       7.402  34.908  65.488  1.00  0.00     0.169 HD
ENDROOT
BRANCH   1   5
HETATM    5  C   UNL     1       5.465  35.063  67.118  1.00  0.00     0.136 C 
BRANCH   5   6
HETATM    6  C   UNL     1       3.987  35.413  67.397  1.00  0.00     0.248 C 
BRANCH   6   7
HETATM    7  N   UNL     1       3.203  35.626  66.144  1.00  0.00    -0.078 N 
HETATM    8  H   UNL     1       3.826  36.065  65.437  1.00  0.00     0.274 HD
HETATM    9  H   UNL     1       2.849  34.746  65.748  1.00  0.00     0.274 HD
HETATM   10  H   UNL     1       2.408  36.261  66.284  1.00  0.00     0.274 HD
ENDBRANCH   6   7
ENDBRANCH   5   6
BRANCH   5  11
HETATM   11  C   UNL     1       6.144  34.533  68.370  1.00  0.00    -0.043 A 
HETATM   12  C   UNL     1       7.432  35.000  68.688  1.00  0.00     0.008 A 
HETATM   13  C   UNL     1       8.080  34.567  69.845  1.00  0.00     0.001 A 
HETATM   14  C   UNL     1       7.455  33.664  70.698  1.00  0.00     0.000 A 
HETATM   15  C   UNL     1       6.180  33.191  70.397  1.00  0.00     0.001 A 
HETATM   16  C   UNL     1       5.524  33.623  69.242  1.00  0.00     0.008 A 
ENDBRANCH   5  11
ENDBRANCH   1   5
BRANCH   3  17
HETATM   17  C   UNL     1       6.915  33.732  63.865  1.00  0.00     0.035 A 
HETATM   18  C   UNL     1       6.132  34.130  62.777  1.00  0.00     0.030 A 
HETATM   19  C   UNL     1       6.322  33.555  61.517  1.00  0.00     0.016 A 
HETATM   20  C   UNL     1       7.286  32.553  61.333  1.00  0.00    -0.008 A 
HETATM   21  C   UNL     1       7.508  31.929  60.101  1.00  0.00     0.128 A 
HETATM   22  C   UNL     1       8.070  32.131  62.424  1.00  0.00    -0.021 A 
HETATM   23  N   UNL     1       8.414  30.948  59.894  1.00  0.00    -0.272 NA
HETATM   24  C   UNL     1       9.141  30.559  60.960  1.00  0.00     0.117 A 
HETATM   25  C   UNL     1       9.011  31.113  62.225  1.00  0.00     0.031 A 
HETATM   26  C   UNL     1       7.879  32.735  63.683  1.00  0.00     0.042 A 
ENDBRANCH   3  17
TORSDOF 5
ENDMDL
MODEL 8
REMARK VINA RESULT:      -7.9      1.784      3.039
REMARK  5 active torsions:
REMARK  status: ('A' for Active; 'I' for Inactive)
REMARK    1  A    between atoms: N_1  and  C_5 
REMARK    2  A    between atoms: C_5  and  C_6 
REMARK    3  A    between atoms: C_6  and  C_7 
REMARK    4  A    between atoms: C_6  and  C_20 
REMARK       I    between atoms: C_7  and  N_9 
REMARK    5  A    between atoms: N_9  and  C_10 
ROOT
HETATM    1  C   UNL     1       7.946  25.498  56.443  1.00  0.00     0.232 C 
HETATM    2  O   UNL     1       8.117  25.153  57.613  1.00  0.00    -0.272 OA
HETATM    3  N   UNL     1       7.681  26.774  55.990  1.00  0.00    -0.327 N 
HETATM    4  H   UNL     1       7.309  26.871  55.049  1.00  0.00     0.169 HD
ENDROOT
BRANCH   1   5
HETATM    5  C   UNL     1       7.960  24.438  55.345  1.00  0.00     0.136 C 
BRANCH   5   6
HETATM    6  C   UNL     1       7.596  23.067  55.955  1.00  0.00     0.248 C 
BRANCH   6   7
HETATM    7  N   UNL     1       8.616  22.019  55.652  1.00  0.00    -0.078 N 
HETATM    8  H   UNL     1       9.199  21.874  56.500  1.00  0.00     0.274 HD
HETATM    9  H   UNL     1       8.191  21.116  55.405  1.00  0.00     0.274 HD
HETATM   10  H   UNL     1       9.249  22.297  54.894  1.00  0.00     0.274 HD
ENDBRANCH   6   7
ENDBRANCH   5   6
BRANCH   5  11
HETATM   11  C   UNL     1       7.074  24.755  54.151  1.00  0.00    -0.043 A 
HETATM   12  C   UNL     1       7.681  24.997  52.906  1.00  0.00     0.008 A 
HETATM   13  C   UNL     1       6.907  25.258  51.776  1.00  0.00     0.001 A 
HETATM   14  C   UNL     1       5.519  25.283  51.871  1.00  0.00     0.000 A 
HETATM   15  C   UNL     1       4.903  25.046  53.098  1.00  0.00     0.001 A 
HETATM   16  C   UNL     1       5.672  24.780  54.232  1.00  0.00     0.008 A 
ENDBRANCH   5  11
ENDBRANCH   1   5
BRANCH   3  17
HETATM   17  C   UNL     1       7.739  27.967  56.743  1.00  0.00     0.035 A 
HETATM   18  C   UNL     1       6.524  28.539  57.133  1.00  0.00     0.030 A 
HETATM   19  C   UNL     1       6.501  29.732  57.860  1.00  0.00     0.016 A 
HETATM   20  C   UNL     1       7.698  30.386  58.187  1.00  0.00    -0.008 A 
HETATM   21  C   UNL     1       7.737  31.591  58.896  1.00  0.00     0.128 A 
HETATM   22  C   UNL     1       8.928  29.829  57.787  1.00  0.00    -0.021 A 
HETATM   23  N   UNL     1       8.870  32.256  59.211  1.00  0.00    -0.272 NA
HETATM   24  C   UNL     1      10.030  31.703  58.805  1.00  0.00     0.117 A 
HETATM   25  C   UNL     1      10.111  30.509  58.104  1.00  0.00     0.031 A 
HETATM   26  C   UNL     1       8.934  28.615  57.073  1.00  0.00     0.042 A 
ENDBRANCH   3  17
TORSDOF 5
ENDMDL
MODEL 9
REMARK VINA RESULT:      -7.7      4.255      6.841
REMARK  5 active torsions:
REMARK  status: ('A' for Active; 'I' for Inactive)
REMARK    1  A    between atoms: N_1  and  C_5 
REMARK    2  A    between atoms: C_5  and  C_6 
REMARK    3  A    between atoms: C_6  and  C_7 
REMARK    4  A    between atoms: C_6  and  C_20 
REMARK       I    between atoms: C_7  and  N_9 
REMARK    5  A    between atoms: N_9  and  C_10 
ROOT
HETATM    1  C   UNL     1       6.219  25.253  53.271  1.00  0.00     0.232 C 
HETATM    2  O   UNL     1       5.141  24.720  53.539  1.00  0.00    -0.272 OA
HETATM    3  N   UNL     1       6.453  26.193  52.290  1.00  0.00    -0.327 N 
HETATM    4  H   UNL     1       7.417  26.350  52.008  1.00  0.00     0.169 HD
ENDROOT
BRANCH   1   5
HETATM    5  C   UNL     1       7.470  24.824  54.033  1.00  0.00     0.136 C 
BRANCH   5   6
HETATM    6  C   UNL     1       7.462  25.471  55.435  1.00  0.00     0.248 C 
BRANCH   6   7
HETATM    7  N   UNL     1       6.155  26.114  55.760  1.00  0.00    -0.078 N 
HETATM    8  H   UNL     1       5.452  25.366  55.924  1.00  0.00     0.274 HD
HETATM    9  H   UNL     1       6.202  26.693  56.608  1.00  0.00     0.274 HD
HETATM   10  H   UNL     1       5.804  26.696  54.990  1.00  0.00     0.274 HD
ENDBRANCH   6   7
ENDBRANCH   5   6
BRANCH   5  11
HETATM   11  C   UNL     1       7.665  23.319  54.130  1.00  0.00    -0.043 A 
HETATM   12  C   UNL     1       7.627  22.714  55.398  1.00  0.00     0.008 A 
HETATM   13  C   UNL     1       7.768  21.333  55.532  1.00  0.00     0.001 A 
HETATM   14  C   UNL     1       7.949  20.537  54.406  1.00  0.00     0.000 A 
HETATM   15  C   UNL     1       7.990  21.122  53.142  1.00  0.00     0.001 A 
HETATM   16  C   UNL     1       7.846  22.503  53.000  1.00  0.00     0.008 A 
ENDBRANCH   5  11
ENDBRANCH   1   5
BRANCH   3  17
HETATM   17  C   UNL     1       5.482  26.874  51.523  1.00  0.00     0.035 A 
HETATM   18  C   UNL     1       5.179  26.352  50.262  1.00  0.00     0.030 A 
HETATM   19  C   UNL     1       4.245  26.985  49.436  1.00  0.00     0.016 A 
HETATM   20  C   UNL     1       3.617  28.169  49.853  1.00  0.00    -0.008 A 
HETATM   21  C   UNL     1       2.690  28.855  49.064  1.00  0.00     0.128 A 
HETATM   22  C   UNL     1       3.925  28.714  51.115  1.00  0.00    -0.021 A 
HETATM   23  N   UNL     1       2.081  30.006  49.427  1.00  0.00    -0.272 NA
HETATM   24  C   UNL     1       2.405  30.508  50.635  1.00  0.00     0.117 A 
HETATM   25  C   UNL     1       3.304  29.907  51.503  1.00  0.00     0.031 A 
HETATM   26  C   UNL     1       4.853  28.052  51.943  1.00  0.00     0.042 A 
ENDBRANCH   3  17
TORSDOF 5
ENDMDL
MODEL 10
REMARK VINA RESULT:      -7.7      3.008      7.950
REMARK  5 active torsions:
REMARK  status: ('A' for Active; 'I' for Inactive)
REMARK    1  A    between atoms: N_1  and  C_5 
REMARK    2  A    between atoms: C_5  and  C_6 
REMARK    3  A    between atoms: C_6  and  C_7 
REMARK    4  A    between atoms: C_6  and  C_20 
REMARK       I    between atoms: C_7  and  N_9 
REMARK    5  A    between atoms: N_9  and  C_10 
ROOT
HETATM    1  C   UNL     1       6.808  26.841  55.869  1.00  0.00     0.232 C 
HETATM    2  O   UNL     1       7.908  27.193  55.440  1.00  0.00    -0.272 OA
HETATM    3  N   UNL     1       6.177  25.637  55.633  1.00  0.00    -0.327 N 
HETATM    4  H   UNL     1       5.181  25.582  55.826  1.00  0.00     0.169 HD
ENDROOT
BRANCH   1   5
HETATM    5  C   UNL     1       5.987  27.820  56.704  1.00  0.00     0.136 C 
BRANCH   5   6
HETATM    6  C   UNL     1       6.930  28.612  57.636  1.00  0.00     0.248 C 
BRANCH   6   7
HETATM    7  N   UNL     1       7.771  29.597  56.894  1.00  0.00    -0.078 N 
HETATM    8  H   UNL     1       7.596  30.543  57.289  1.00  0.00     0.274 HD
HETATM    9  H   UNL     1       8.777  29.402  56.982  1.00  0.00     0.274 HD
HETATM   10  H   UNL     1       7.536  29.638  55.895  1.00  0.00     0.274 HD
ENDBRANCH   6   7
ENDBRANCH   5   6
BRANCH   5  11
HETATM   11  C   UNL     1       5.109  28.760  55.893  1.00  0.00    -0.043 A 
HETATM   12  C   UNL     1       4.247  29.636  56.577  1.00  0.00     0.008 A 
HETATM   13  C   UNL     1       3.448  30.538  55.876  1.00  0.00     0.001 A 
HETATM   14  C   UNL     1       3.495  30.578  54.486  1.00  0.00     0.000 A 
HETATM   15  C   UNL     1       4.342  29.716  53.794  1.00  0.00     0.001 A 
HETATM   16  C   UNL     1       5.147  28.813  54.490  1.00  0.00     0.008 A 
ENDBRANCH   5  11
ENDBRANCH   1   5
BRANCH   3  17
HETATM   17  C   UNL     1       6.737  24.497  55.017  1.00  0.00     0.035 A 
HETATM   18  C   UNL     1       6.792  24.485  53.620  1.00  0.00     0.030 A 
HETATM   19  C   UNL     1       7.312  23.381  52.938  1.00  0.00     0.016 A 
HETATM   20  C   UNL     1       7.762  22.257  53.647  1.00  0.00    -0.008 A 
HETATM   21  C   UNL     1       8.273  21.117  53.020  1.00  0.00     0.128 A 
HETATM   22  C   UNL     1       7.696  22.249  55.054  1.00  0.00    -0.021 A 
HETATM   23  N   UNL     1       8.697  20.011  53.671  1.00  0.00    -0.272 NA
HETATM   24  C   UNL     1       8.612  20.031  55.016  1.00  0.00     0.117 A 
HETATM   25  C   UNL     1       8.129  21.109  55.742  1.00  0.00     0.031 A 
HETATM   26  C   UNL     1       7.189  23.379  55.726  1.00  0.00     0.042 A 
ENDBRANCH   3  17
TORSDOF 5
ENDMDL
