MODEL 1
REMARK VINA RESULT:     -10.0      0.000      0.000
REMARK  7 active torsions:
REMARK  status: ('A' for Active; 'I' for Inactive)
REMARK    1  A    between atoms: O_2  and  C_3 
REMARK    2  A    between atoms: C_5  and  C_6 
REMARK    3  A    between atoms: C_6  and  O_7 
REMARK    4  A    between atoms: C_6  and  C_8 
REMARK    5  A    between atoms: C_8  and  N_9 
REMARK       I    between atoms: N_9  and  C_10 
REMARK    6  A    between atoms: C_10  and  C_11 
REMARK    7  A    between atoms: C_12  and  C_13 
ROOT
HETATM    1  C   UNL     1       7.870  24.265  55.035  1.00  0.00     0.089 C 
HETATM    2  C   UNL     1       6.756  23.867  54.034  1.00  0.00     0.068 C 
HETATM    3  C   UNL     1       7.299  22.929  52.936  1.00  0.00     0.013 C 
HETATM    4  C   UNL     1       8.035  21.722  53.501  1.00  0.00     0.001 C 
HETATM    5  C   UNL     1       9.159  22.154  54.431  1.00  0.00     0.001 C 
HETATM    6  C   UNL     1       8.620  23.024  55.557  1.00  0.00     0.015 C 
ENDROOT
BRANCH   1   7
HETATM    7  C   UNL     1       7.300  25.031  56.232  1.00  0.00     0.222 C 
HETATM    8  N   UNL     1       8.088  26.067  56.679  1.00  0.00    -0.358 N 
HETATM    9  H   UNL     1       8.833  26.391  56.057  1.00  0.00     0.162 HD
HETATM   10  O   UNL     1       6.226  24.755  56.758  1.00  0.00    -0.273 OA
BRANCH   8  11
HETATM   11  C   UNL     1       7.636  26.965  57.734  1.00  0.00     0.159 C 
BRANCH  11  12
HETATM   12  C   UNL     1       7.318  28.373  57.196  1.00  0.00     0.169 C 
BRANCH  12  13
HETATM   13  C   UNL     1       8.476  29.322  57.408  1.00  0.00    -0.025 A 
HETATM   14  C   UNL     1       8.360  30.446  58.246  1.00  0.00     0.046 A 
HETATM   15  C   UNL     1       9.449  31.296  58.458  1.00  0.00     0.068 A 
HETATM   16  C   UNL     1      10.664  31.018  57.830  1.00  0.00     0.037 A 
HETATM   17  C   UNL     1      10.797  29.906  56.999  1.00  0.00     0.003 A 
HETATM   18  C   UNL     1       9.710  29.060  56.793  1.00  0.00     0.010 A 
BRANCH  15  19
HETATM   19  O   UNL     1       9.457  32.412  59.249  1.00  0.00    -0.356 OA
HETATM   20  C   UNL     1       8.538  32.434  60.335  1.00  0.00     0.210 C 
ENDBRANCH  15  19
ENDBRANCH  12  13
BRANCH  12  21
HETATM   21  O   UNL     1       6.153  28.875  57.865  1.00  0.00    -0.389 OA
HETATM   22  H   UNL     1       6.481  29.598  58.430  1.00  0.00     0.210 HD
ENDBRANCH  12  21
ENDBRANCH  11  12
ENDBRANCH   8  11
ENDBRANCH   1   7
BRANCH   2  23
HETATM   23  C   UNL     1       6.124  25.060  53.365  1.00  0.00     0.110 A 
HETATM   24  N   UNL     1       6.348  25.496  52.140  1.00  0.00    -0.233 NA
HETATM   25  C   UNL     1       5.518  26.577  51.970  1.00  0.00     0.087 A 
HETATM   26  C   UNL     1       4.780  26.820  53.122  1.00  0.00     0.062 A 
HETATM   27  C   UNL     1       5.345  27.403  50.851  1.00  0.00     0.057 A 
HETATM   28  N   UNL     1       5.194  25.851  54.000  1.00  0.00    -0.342 N 
HETATM   29  C   UNL     1       3.850  27.855  53.235  1.00  0.00     0.034 A 
HETATM   30  H   UNL     1       4.857  25.724  54.944  1.00  0.00     0.167 HD
HETATM   31  C   UNL     1       3.682  28.669  52.109  1.00  0.00     0.026 A 
HETATM   32  C   UNL     1       4.419  28.446  50.942  1.00  0.00     0.036 A 
HETATM   33 CL   UNL     1       4.179  29.479  49.584  1.00  0.00    -0.084 Cl
ENDBRANCH   2  23
TORSDOF 7
ENDMDL
MODEL 2
REMARK VINA RESULT:      -9.5      3.301      6.599
REMARK  7 active torsions:
REMARK  status: ('A' for Active; 'I' for Inactive)
REMARK    1  A    between atoms: O_2  and  C_3 
REMARK    2  A    between atoms: C_5  and  C_6 
REMARK    3  A    between atoms: C_6  and  O_7 
REMARK    4  A    between atoms: C_6  and  C_8 
REMARK    5  A    between atoms: C_8  and  N_9 
REMARK       I    between atoms: N_9  and  C_10 
REMARK    6  A    between atoms: C_10  and  C_11 
REMARK    7  A    between atoms: C_12  and  C_13 
ROOT
HETATM    1  C   UNL     1       7.318  22.715  54.817  1.00  0.00     0.089 C 
HETATM    2  C   UNL     1       8.173  23.383  55.923  1.00  0.00     0.068 C 
HETATM    3  C   UNL     1       8.207  22.521  57.203  1.00  0.00     0.013 C 
HETATM    4  C   UNL     1       8.621  21.081  56.934  1.00  0.00     0.001 C 
HETATM    5  C   UNL     1       7.721  20.440  55.888  1.00  0.00     0.001 C 
HETATM    6  C   UNL     1       7.735  21.248  54.599  1.00  0.00     0.015 C 
ENDROOT
BRANCH   1   7
HETATM    7  C   UNL     1       7.439  23.462  53.486  1.00  0.00     0.222 C 
HETATM    8  N   UNL     1       6.395  24.314  53.209  1.00  0.00    -0.358 N 
HETATM    9  H   UNL     1       5.774  24.562  53.983  1.00  0.00     0.162 HD
HETATM   10  O   UNL     1       8.388  23.322  52.720  1.00  0.00    -0.273 OA
BRANCH   8  11
HETATM   11  C   UNL     1       6.415  25.183  52.039  1.00  0.00     0.159 C 
BRANCH  11  12
HETATM   12  C   UNL     1       4.995  25.589  51.599  1.00  0.00     0.169 C 
BRANCH  12  13
HETATM   13  C   UNL     1       5.027  26.744  50.623  1.00  0.00    -0.025 A 
HETATM   14  C   UNL     1       5.547  28.000  50.988  1.00  0.00     0.046 A 
HETATM   15  C   UNL     1       5.599  29.048  50.066  1.00  0.00     0.068 A 
HETATM   16  C   UNL     1       5.130  28.839  48.768  1.00  0.00     0.037 A 
HETATM   17  C   UNL     1       4.614  27.601  48.389  1.00  0.00     0.003 A 
HETATM   18  C   UNL     1       4.566  26.557  49.311  1.00  0.00     0.010 A 
BRANCH  15  19
HETATM   19  O   UNL     1       6.084  30.305  50.302  1.00  0.00    -0.356 OA
HETATM   20  C   UNL     1       5.441  31.378  49.625  1.00  0.00     0.210 C 
ENDBRANCH  15  19
ENDBRANCH  12  13
BRANCH  12  21
HETATM   21  O   UNL     1       4.235  25.957  52.758  1.00  0.00    -0.389 OA
HETATM   22  H   UNL     1       3.424  26.365  52.406  1.00  0.00     0.210 HD
ENDBRANCH  12  21
ENDBRANCH  11  12
ENDBRANCH   8  11
ENDBRANCH   1   7
BRANCH   2  23
HETATM   23  C   UNL     1       7.675  24.756  56.292  1.00  0.00     0.110 A 
HETATM   24  N   UNL     1       6.438  25.206  56.195  1.00  0.00    -0.233 NA
HETATM   25  C   UNL     1       6.467  26.489  56.684  1.00  0.00     0.087 A 
HETATM   26  C   UNL     1       7.754  26.841  57.073  1.00  0.00     0.062 A 
HETATM   27  C   UNL     1       5.426  27.416  56.821  1.00  0.00     0.057 A 
HETATM   28  N   UNL     1       8.507  25.727  56.800  1.00  0.00    -0.342 N 
HETATM   29  C   UNL     1       8.081  28.086  57.613  1.00  0.00     0.034 A 
HETATM   30  H   UNL     1       9.499  25.627  56.966  1.00  0.00     0.167 HD
HETATM   31  C   UNL     1       7.031  29.001  57.750  1.00  0.00     0.026 A 
HETATM   32  C   UNL     1       5.730  28.670  57.359  1.00  0.00     0.036 A 
HETATM   33 CL   UNL     1       4.473  29.833  57.546  1.00  0.00    -0.084 Cl
ENDBRANCH   2  23
TORSDOF 7
ENDMDL
MODEL 3
REMARK VINA RESULT:      -9.4      1.264      1.534
REMARK  7 active torsions:
REMARK  status: ('A' for Active; 'I' for Inactive)
REMARK    1  A    between atoms: O_2  and  C_3 
REMARK    2  A    between atoms: C_5  and  C_6 
REMARK    3  A    between atoms: C_6  and  O_7 
REMARK    4  A    between atoms: C_6  and  C_8 
REMARK    5  A    between atoms: C_8  and  N_9 
REMARK       I    between atoms: N_9  and  C_10 
REMARK    6  A    between atoms: C_10  and  C_11 
REMARK    7  A    between atoms: C_12  and  C_13 
ROOT
HETATM    1  C   UNL     1       7.507  25.011  54.546  1.00  0.00     0.089 C 
HETATM    2  C   UNL     1       6.545  24.446  53.472  1.00  0.00     0.068 C 
HETATM    3  C   UNL     1       7.213  23.318  52.658  1.00  0.00     0.013 C 
HETATM    4  C   UNL     1       7.809  22.228  53.539  1.00  0.00     0.001 C 
HETATM    5  C   UNL     1       8.794  22.814  54.540  1.00  0.00     0.001 C 
HETATM    6  C   UNL     1       8.124  23.881  55.393  1.00  0.00     0.015 C 
ENDROOT
BRANCH   1   7
HETATM    7  C   UNL     1       6.791  25.989  55.482  1.00  0.00     0.222 C 
HETATM    8  N   UNL     1       7.395  27.220  55.597  1.00  0.00    -0.358 N 
HETATM    9  H   UNL     1       8.097  27.465  54.895  1.00  0.00     0.162 HD
HETATM   10  O   UNL     1       5.759  25.709  56.085  1.00  0.00    -0.273 OA
BRANCH   8  11
HETATM   11  C   UNL     1       6.778  28.299  56.358  1.00  0.00     0.159 C 
BRANCH  11  12
HETATM   12  C   UNL     1       7.331  28.382  57.793  1.00  0.00     0.169 C 
BRANCH  12  13
HETATM   13  C   UNL     1       8.390  29.455  57.918  1.00  0.00    -0.025 A 
HETATM   14  C   UNL     1       8.213  30.567  58.760  1.00  0.00     0.046 A 
HETATM   15  C   UNL     1       9.213  31.534  58.890  1.00  0.00     0.068 A 
HETATM   16  C   UNL     1      10.402  31.385  58.174  1.00  0.00     0.037 A 
HETATM   17  C   UNL     1      10.596  30.287  57.337  1.00  0.00     0.003 A 
HETATM   18  C   UNL     1       9.596  29.324  57.213  1.00  0.00     0.010 A 
BRANCH  15  19
HETATM   19  O   UNL     1       9.156  32.651  59.677  1.00  0.00    -0.356 OA
HETATM   20  C   UNL     1       8.170  32.664  60.701  1.00  0.00     0.210 C 
ENDBRANCH  15  19
ENDBRANCH  12  13
BRANCH  12  21
HETATM   21  O   UNL     1       7.889  27.109  58.151  1.00  0.00    -0.389 OA
HETATM   22  H   UNL     1       8.776  27.103  57.750  1.00  0.00     0.210 HD
ENDBRANCH  12  21
ENDBRANCH  11  12
ENDBRANCH   8  11
ENDBRANCH   1   7
BRANCH   2  23
HETATM   23  C   UNL     1       6.065  25.501  52.509  1.00  0.00     0.110 A 
HETATM   24  N   UNL     1       6.328  26.794  52.551  1.00  0.00    -0.233 NA
HETATM   25  C   UNL     1       5.711  27.337  51.451  1.00  0.00     0.087 A 
HETATM   26  C   UNL     1       5.039  26.359  50.728  1.00  0.00     0.062 A 
HETATM   27  C   UNL     1       5.680  28.667  51.010  1.00  0.00     0.057 A 
HETATM   28  N   UNL     1       5.268  25.202  51.429  1.00  0.00    -0.342 N 
HETATM   29  C   UNL     1       4.326  26.622  49.557  1.00  0.00     0.034 A 
HETATM   30  H   UNL     1       4.929  24.283  51.182  1.00  0.00     0.167 HD
HETATM   31  C   UNL     1       4.307  27.953  49.124  1.00  0.00     0.026 A 
HETATM   32  C   UNL     1       4.971  28.954  49.840  1.00  0.00     0.036 A 
HETATM   33 CL   UNL     1       4.915  30.578  49.267  1.00  0.00    -0.084 Cl
ENDBRANCH   2  23
TORSDOF 7
ENDMDL
MODEL 4
REMARK VINA RESULT:      -9.4      3.139      7.264
REMARK  7 active torsions:
REMARK  status: ('A' for Active; 'I' for Inactive)
REMARK    1  A    between atoms: O_2  and  C_3 
REMARK    2  A    between atoms: C_5  and  C_6 
REMARK    3  A    between atoms: C_6  and  O_7 
REMARK    4  A    between atoms: C_6  and  C_8 
REMARK    5  A    between atoms: C_8  and  N_9 
REMARK       I    between atoms: N_9  and  C_10 
REMARK    6  A    between atoms: C_10  and  C_11 
REMARK    7  A    between atoms: C_12  and  C_13 
ROOT
HETATM    1  C   UNL     1       7.319  22.923  54.619  1.00  0.00     0.089 C 
HETATM    2  C   UNL     1       8.115  23.573  55.778  1.00  0.00     0.068 C 
HETATM    3  C   UNL     1       8.107  22.677  57.035  1.00  0.00     0.013 C 
HETATM    4  C   UNL     1       8.556  21.251  56.746  1.00  0.00     0.001 C 
HETATM    5  C   UNL     1       7.712  20.626  55.644  1.00  0.00     0.001 C 
HETATM    6  C   UNL     1       7.769  21.469  54.379  1.00  0.00     0.015 C 
ENDROOT
BRANCH   1   7
HETATM    7  C   UNL     1       7.486  23.708  53.315  1.00  0.00     0.222 C 
HETATM    8  N   UNL     1       6.365  24.399  52.913  1.00  0.00    -0.358 N 
HETATM    9  H   UNL     1       5.624  24.533  53.605  1.00  0.00     0.162 HD
HETATM   10  O   UNL     1       8.532  23.730  52.672  1.00  0.00    -0.273 OA
BRANCH   8  11
HETATM   11  C   UNL     1       6.395  25.285  51.756  1.00  0.00     0.159 C 
BRANCH  11  12
HETATM   12  C   UNL     1       5.374  26.432  51.884  1.00  0.00     0.169 C 
BRANCH  12  13
HETATM   13  C   UNL     1       5.111  27.090  50.547  1.00  0.00    -0.025 A 
HETATM   14  C   UNL     1       4.611  26.359  49.454  1.00  0.00     0.046 A 
HETATM   15  C   UNL     1       4.342  26.987  48.236  1.00  0.00     0.068 A 
HETATM   16  C   UNL     1       4.572  28.359  48.110  1.00  0.00     0.037 A 
HETATM   17  C   UNL     1       5.064  29.098  49.184  1.00  0.00     0.003 A 
HETATM   18  C   UNL     1       5.328  28.468  50.398  1.00  0.00     0.010 A 
BRANCH  15  19
HETATM   19  O   UNL     1       3.853  26.384  47.109  1.00  0.00    -0.356 OA
HETATM   20  C   UNL     1       2.977  25.281  47.302  1.00  0.00     0.210 C 
ENDBRANCH  15  19
ENDBRANCH  12  13
BRANCH  12  21
HETATM   21  O   UNL     1       5.879  27.404  52.810  1.00  0.00    -0.389 OA
HETATM   22  H   UNL     1       6.552  26.929  53.329  1.00  0.00     0.210 HD
ENDBRANCH  12  21
ENDBRANCH  11  12
ENDBRANCH   8  11
ENDBRANCH   1   7
BRANCH   2  23
HETATM   23  C   UNL     1       7.579  24.928  56.162  1.00  0.00     0.110 A 
HETATM   24  N   UNL     1       6.357  25.385  55.964  1.00  0.00    -0.233 NA
HETATM   25  C   UNL     1       6.334  26.643  56.515  1.00  0.00     0.087 A 
HETATM   26  C   UNL     1       7.574  26.972  57.049  1.00  0.00     0.062 A 
HETATM   27  C   UNL     1       5.282  27.565  56.591  1.00  0.00     0.057 A 
HETATM   28  N   UNL     1       8.353  25.870  56.799  1.00  0.00    -0.342 N 
HETATM   29  C   UNL     1       7.842  28.188  57.679  1.00  0.00     0.034 A 
HETATM   30  H   UNL     1       9.323  25.760  57.059  1.00  0.00     0.167 HD
HETATM   31  C   UNL     1       6.782  29.099  57.754  1.00  0.00     0.026 A 
HETATM   32  C   UNL     1       5.528  28.791  57.218  1.00  0.00     0.036 A 
HETATM   33 CL   UNL     1       4.255  29.947  57.333  1.00  0.00    -0.084 Cl
ENDBRANCH   2  23
TORSDOF 7
ENDMDL
MODEL 5
REMARK VINA RESULT:      -9.4      2.415      4.969
REMARK  7 active torsions:
REMARK  status: ('A' for Active; 'I' for Inactive)
REMARK    1  A    between atoms: O_2  and  C_3 
REMARK    2  A    between atoms: C_5  and  C_6 
REMARK    3  A    between atoms: C_6  and  O_7 
REMARK    4  A    between atoms: C_6  and  C_8 
REMARK    5  A    between atoms: C_8  and  N_9 
REMARK       I    between atoms: N_9  and  C_10 
REMARK    6  A    between atoms: C_10  and  C_11 
REMARK    7  A    between atoms: C_12  and  C_13 
ROOT
HETATM    1  C   UNL     1       4.291  27.919  53.439  1.00  0.00     0.089 C 
HETATM    2  C   UNL     1       5.516  27.448  52.616  1.00  0.00     0.068 C 
HETATM    3  C   UNL     1       5.142  27.217  51.137  1.00  0.00     0.013 C 
HETATM    4  C   UNL     1       4.442  28.415  50.510  1.00  0.00     0.001 C 
HETATM    5  C   UNL     1       3.211  28.809  51.313  1.00  0.00     0.001 C 
HETATM    6  C   UNL     1       3.583  29.106  52.758  1.00  0.00     0.015 C 
ENDROOT
BRANCH   1   7
HETATM    7  C   UNL     1       4.696  28.338  54.855  1.00  0.00     0.222 C 
HETATM    8  N   UNL     1       5.885  29.026  54.933  1.00  0.00    -0.358 N 
HETATM    9  H   UNL     1       6.265  29.405  54.063  1.00  0.00     0.162 HD
HETATM   10  O   UNL     1       4.020  28.088  55.850  1.00  0.00    -0.273 OA
BRANCH   8  11
HETATM   11  C   UNL     1       6.352  29.593  56.192  1.00  0.00     0.159 C 
BRANCH  11  12
HETATM   12  C   UNL     1       7.413  28.702  56.867  1.00  0.00     0.169 C 
BRANCH  12  13
HETATM   13  C   UNL     1       8.651  29.492  57.231  1.00  0.00    -0.025 A 
HETATM   14  C   UNL     1       8.600  30.553  58.153  1.00  0.00     0.046 A 
HETATM   15  C   UNL     1       9.757  31.252  58.504  1.00  0.00     0.068 A 
HETATM   16  C   UNL     1      10.976  30.887  57.929  1.00  0.00     0.037 A 
HETATM   17  C   UNL     1      11.044  29.836  57.015  1.00  0.00     0.003 A 
HETATM   18  C   UNL     1       9.888  29.139  56.671  1.00  0.00     0.010 A 
BRANCH  15  19
HETATM   19  O   UNL     1       9.832  32.294  59.387  1.00  0.00    -0.356 OA
HETATM   20  C   UNL     1       8.831  32.351  60.396  1.00  0.00     0.210 C 
ENDBRANCH  15  19
ENDBRANCH  12  13
BRANCH  12  21
HETATM   21  O   UNL     1       7.765  27.638  55.971  1.00  0.00    -0.389 OA
HETATM   22  H   UNL     1       8.654  27.868  55.647  1.00  0.00     0.210 HD
ENDBRANCH  12  21
ENDBRANCH  11  12
ENDBRANCH   8  11
ENDBRANCH   1   7
BRANCH   2  23
HETATM   23  C   UNL     1       6.124  26.178  53.153  1.00  0.00     0.110 A 
HETATM   24  N   UNL     1       6.116  25.761  54.405  1.00  0.00    -0.233 NA
HETATM   25  C   UNL     1       6.752  24.544  54.397  1.00  0.00     0.087 A 
HETATM   26  C   UNL     1       7.174  24.215  53.115  1.00  0.00     0.062 A 
HETATM   27  C   UNL     1       7.008  23.664  55.457  1.00  0.00     0.057 A 
HETATM   28  N   UNL     1       6.775  25.277  52.344  1.00  0.00    -0.342 N 
HETATM   29  C   UNL     1       7.846  23.030  52.807  1.00  0.00     0.034 A 
HETATM   30  H   UNL     1       6.915  25.371  51.348  1.00  0.00     0.167 HD
HETATM   31  C   UNL     1       8.090  22.156  53.873  1.00  0.00     0.026 A 
HETATM   32  C   UNL     1       7.680  22.471  55.172  1.00  0.00     0.036 A 
HETATM   33 CL   UNL     1       8.007  21.364  56.451  1.00  0.00    -0.084 Cl
ENDBRANCH   2  23
TORSDOF 7
ENDMDL
MODEL 6
REMARK VINA RESULT:      -9.3      1.670      2.544
REMARK  7 active torsions:
REMARK  status: ('A' for Active; 'I' for Inactive)
REMARK    1  A    between atoms: O_2  and  C_3 
REMARK    2  A    between atoms: C_5  and  C_6 
REMARK    3  A    between atoms: C_6  and  O_7 
REMARK    4  A    between atoms: C_6  and  C_8 
REMARK    5  A    between atoms: C_8  and  N_9 
REMARK       I    between atoms: N_9  and  C_10 
REMARK    6  A    between atoms: C_10  and  C_11 
REMARK    7  A    between atoms: C_12  and  C_13 
ROOT
HETATM    1  C   UNL     1       7.916  24.314  55.037  1.00  0.00     0.089 C 
HETATM    2  C   UNL     1       6.828  23.818  54.053  1.00  0.00     0.068 C 
HETATM    3  C   UNL     1       7.427  22.884  52.979  1.00  0.00     0.013 C 
HETATM    4  C   UNL     1       8.239  21.743  53.576  1.00  0.00     0.001 C 
HETATM    5  C   UNL     1       9.335  22.272  54.489  1.00  0.00     0.001 C 
HETATM    6  C   UNL     1       8.745  23.139  55.591  1.00  0.00     0.015 C 
ENDROOT
BRANCH   1   7
HETATM    7  C   UNL     1       7.301  25.077  56.214  1.00  0.00     0.222 C 
HETATM    8  N   UNL     1       7.489  26.440  56.176  1.00  0.00    -0.358 N 
HETATM    9  H   UNL     1       7.790  26.847  55.287  1.00  0.00     0.162 HD
HETATM   10  O   UNL     1       6.686  24.528  57.124  1.00  0.00    -0.273 OA
BRANCH   8  11
HETATM   11  C   UNL     1       6.870  27.319  57.159  1.00  0.00     0.159 C 
BRANCH  11  12
HETATM   12  C   UNL     1       5.681  28.099  56.566  1.00  0.00     0.169 C 
BRANCH  12  13
HETATM   13  C   UNL     1       5.486  29.427  57.264  1.00  0.00    -0.025 A 
HETATM   14  C   UNL     1       6.580  30.179  57.730  1.00  0.00     0.046 A 
HETATM   15  C   UNL     1       6.386  31.419  58.343  1.00  0.00     0.068 A 
HETATM   16  C   UNL     1       5.089  31.913  58.490  1.00  0.00     0.037 A 
HETATM   17  C   UNL     1       3.994  31.181  58.031  1.00  0.00     0.003 A 
HETATM   18  C   UNL     1       4.192  29.946  57.417  1.00  0.00     0.010 A 
BRANCH  15  19
HETATM   19  O   UNL     1       7.367  32.239  58.830  1.00  0.00    -0.356 OA
HETATM   20  C   UNL     1       8.471  31.607  59.469  1.00  0.00     0.210 C 
ENDBRANCH  15  19
ENDBRANCH  12  13
BRANCH  12  21
HETATM   21  O   UNL     1       4.492  27.306  56.697  1.00  0.00    -0.389 OA
HETATM   22  H   UNL     1       4.177  27.176  55.784  1.00  0.00     0.210 HD
ENDBRANCH  12  21
ENDBRANCH  11  12
ENDBRANCH   8  11
ENDBRANCH   1   7
BRANCH   2  23
HETATM   23  C   UNL     1       6.119  24.948  53.352  1.00  0.00     0.110 A 
HETATM   24  N   UNL     1       5.323  25.847  53.899  1.00  0.00    -0.233 NA
HETATM   25  C   UNL     1       4.952  26.689  52.879  1.00  0.00     0.087 A 
HETATM   26  C   UNL     1       5.521  26.287  51.676  1.00  0.00     0.062 A 
HETATM   27  C   UNL     1       4.125  27.819  52.910  1.00  0.00     0.057 A 
HETATM   28  N   UNL     1       6.247  25.170  52.001  1.00  0.00    -0.342 N 
HETATM   29  C   UNL     1       5.322  26.961  50.469  1.00  0.00     0.034 A 
HETATM   30  H   UNL     1       6.800  24.617  51.361  1.00  0.00     0.167 HD
HETATM   31  C   UNL     1       4.498  28.092  50.514  1.00  0.00     0.026 A 
HETATM   32  C   UNL     1       3.911  28.509  51.713  1.00  0.00     0.036 A 
HETATM   33 CL   UNL     1       2.903  29.906  51.715  1.00  0.00    -0.084 Cl
ENDBRANCH   2  23
TORSDOF 7
ENDMDL
MODEL 7
REMARK VINA RESULT:      -9.3      3.602      8.210
REMARK  7 active torsions:
REMARK  status: ('A' for Active; 'I' for Inactive)
REMARK    1  A    between atoms: O_2  and  C_3 
REMARK    2  A    between atoms: C_5  and  C_6 
REMARK    3  A    between atoms: C_6  and  O_7 
REMARK    4  A    between atoms: C_6  and  C_8 
REMARK    5  A    between atoms: C_8  and  N_9 
REMARK       I    between atoms: N_9  and  C_10 
REMARK    6  A    between atoms: C_10  and  C_11 
REMARK    7  A    between atoms: C_12  and  C_13 
ROOT
HETATM    1  C   UNL     1       6.676  26.161  56.152  1.00  0.00     0.089 C 
HETATM    2  C   UNL     1       8.177  26.407  56.443  1.00  0.00     0.068 C 
HETATM    3  C   UNL     1       8.769  25.288  57.325  1.00  0.00     0.013 C 
HETATM    4  C   UNL     1       8.502  23.896  56.771  1.00  0.00     0.001 C 
HETATM    5  C   UNL     1       7.013  23.669  56.556  1.00  0.00     0.001 C 
HETATM    6  C   UNL     1       6.436  24.731  55.631  1.00  0.00     0.015 C 
ENDROOT
BRANCH   1   7
HETATM    7  C   UNL     1       6.134  27.155  55.122  1.00  0.00     0.222 C 
HETATM    8  N   UNL     1       6.663  27.019  53.859  1.00  0.00    -0.358 N 
HETATM    9  H   UNL     1       7.163  26.152  53.651  1.00  0.00     0.162 HD
HETATM   10  O   UNL     1       5.293  28.009  55.388  1.00  0.00    -0.273 OA
BRANCH   8  11
HETATM   11  C   UNL     1       6.169  27.812  52.740  1.00  0.00     0.159 C 
BRANCH  11  12
HETATM   12  C   UNL     1       4.975  27.137  52.038  1.00  0.00     0.169 C 
BRANCH  12  13
HETATM   13  C   UNL     1       4.986  27.400  50.549  1.00  0.00    -0.025 A 
HETATM   14  C   UNL     1       4.516  26.444  49.630  1.00  0.00     0.046 A 
HETATM   15  C   UNL     1       4.503  26.714  48.259  1.00  0.00     0.068 A 
HETATM   16  C   UNL     1       4.961  27.951  47.803  1.00  0.00     0.037 A 
HETATM   17  C   UNL     1       5.428  28.911  48.700  1.00  0.00     0.003 A 
HETATM   18  C   UNL     1       5.437  28.639  50.067  1.00  0.00     0.010 A 
BRANCH  15  19
HETATM   19  O   UNL     1       4.067  25.868  47.276  1.00  0.00    -0.356 OA
HETATM   20  C   UNL     1       2.686  25.931  46.942  1.00  0.00     0.210 C 
ENDBRANCH  15  19
ENDBRANCH  12  13
BRANCH  12  21
HETATM   21  O   UNL     1       3.757  27.636  52.607  1.00  0.00    -0.389 OA
HETATM   22  H   UNL     1       3.565  28.452  52.110  1.00  0.00     0.210 HD
ENDBRANCH  12  21
ENDBRANCH  11  12
ENDBRANCH   8  11
ENDBRANCH   1   7
BRANCH   2  23
HETATM   23  C   UNL     1       8.428  27.727  57.125  1.00  0.00     0.110 A 
HETATM   24  N   UNL     1       7.730  28.258  58.111  1.00  0.00    -0.233 NA
HETATM   25  C   UNL     1       8.358  29.439  58.421  1.00  0.00     0.087 A 
HETATM   26  C   UNL     1       9.456  29.646  57.595  1.00  0.00     0.062 A 
HETATM   27  C   UNL     1       8.039  30.389  59.401  1.00  0.00     0.057 A 
HETATM   28  N   UNL     1       9.471  28.551  56.770  1.00  0.00    -0.342 N 
HETATM   29  C   UNL     1      10.287  30.765  57.687  1.00  0.00     0.034 A 
HETATM   30  H   UNL     1      10.146  28.368  56.041  1.00  0.00     0.167 HD
HETATM   31  C   UNL     1       9.961  31.704  58.673  1.00  0.00     0.026 A 
HETATM   32  C   UNL     1       8.858  31.518  59.510  1.00  0.00     0.036 A 
HETATM   33 CL   UNL     1       8.497  32.705  60.706  1.00  0.00    -0.084 Cl
ENDBRANCH   2  23
TORSDOF 7
ENDMDL
MODEL 8
REMARK VINA RESULT:      -9.1      4.207      8.916
REMARK  7 active torsions:
REMARK  status: ('A' for Active; 'I' for Inactive)
REMARK    1  A    between atoms: O_2  and  C_3 
REMARK    2  A    between atoms: C_5  and  C_6 
REMARK    3  A    between atoms: C_6  and  O_7 
REMARK    4  A    between atoms: C_6  and  C_8 
REMARK    5  A    between atoms: C_8  and  N_9 
REMARK       I    between atoms: N_9  and  C_10 
REMARK    6  A    between atoms: C_10  and  C_11 
REMARK    7  A    between atoms: C_12  and  C_13 
ROOT
HETATM    1  C   UNL     1       6.067  27.691  54.407  1.00  0.00     0.089 C 
HETATM    2  C   UNL     1       5.923  26.677  55.569  1.00  0.00     0.068 C 
HETATM    3  C   UNL     1       6.661  27.164  56.834  1.00  0.00     0.013 C 
HETATM    4  C   UNL     1       6.267  28.577  57.239  1.00  0.00     0.001 C 
HETATM    5  C   UNL     1       6.479  29.554  56.092  1.00  0.00     0.001 C 
HETATM    6  C   UNL     1       5.699  29.116  54.861  1.00  0.00     0.015 C 
ENDROOT
BRANCH   1   7
HETATM    7  C   UNL     1       5.179  27.311  53.219  1.00  0.00     0.222 C 
HETATM    8  N   UNL     1       5.864  26.968  52.076  1.00  0.00    -0.358 N 
HETATM    9  H   UNL     1       6.861  26.760  52.172  1.00  0.00     0.162 HD
HETATM   10  O   UNL     1       3.952  27.307  53.270  1.00  0.00    -0.273 OA
BRANCH   8  11
HETATM   11  C   UNL     1       5.169  26.473  50.894  1.00  0.00     0.159 C 
BRANCH  11  12
HETATM   12  C   UNL     1       4.710  27.620  49.974  1.00  0.00     0.169 C 
BRANCH  12  13
HETATM   13  C   UNL     1       3.776  27.122  48.893  1.00  0.00    -0.025 A 
HETATM   14  C   UNL     1       2.912  27.997  48.208  1.00  0.00     0.046 A 
HETATM   15  C   UNL     1       2.078  27.528  47.190  1.00  0.00     0.068 A 
HETATM   16  C   UNL     1       2.110  26.174  46.851  1.00  0.00     0.037 A 
HETATM   17  C   UNL     1       2.962  25.295  47.517  1.00  0.00     0.003 A 
HETATM   18  C   UNL     1       3.794  25.767  48.531  1.00  0.00     0.010 A 
BRANCH  15  19
HETATM   19  O   UNL     1       1.204  28.281  46.455  1.00  0.00    -0.356 OA
HETATM   20  C   UNL     1      -0.130  27.796  46.354  1.00  0.00     0.210 C 
ENDBRANCH  15  19
ENDBRANCH  12  13
BRANCH  12  21
HETATM   21  O   UNL     1       5.863  28.226  49.374  1.00  0.00    -0.389 OA
HETATM   22  H   UNL     1       5.694  29.185  49.422  1.00  0.00     0.210 HD
ENDBRANCH  12  21
ENDBRANCH  11  12
ENDBRANCH   8  11
ENDBRANCH   1   7
BRANCH   2  23
HETATM   23  C   UNL     1       6.447  25.309  55.215  1.00  0.00     0.110 A 
HETATM   24  N   UNL     1       6.661  24.829  54.004  1.00  0.00    -0.233 NA
HETATM   25  C   UNL     1       7.174  23.567  54.188  1.00  0.00     0.087 A 
HETATM   26  C   UNL     1       7.260  23.261  55.540  1.00  0.00     0.062 A 
HETATM   27  C   UNL     1       7.585  22.624  53.237  1.00  0.00     0.057 A 
HETATM   28  N   UNL     1       6.779  24.379  56.173  1.00  0.00    -0.342 N 
HETATM   29  C   UNL     1       7.751  22.046  56.023  1.00  0.00     0.034 A 
HETATM   30  H   UNL     1       6.702  24.507  57.172  1.00  0.00     0.167 HD
HETATM   31  C   UNL     1       8.164  21.115  55.063  1.00  0.00     0.026 A 
HETATM   32  C   UNL     1       8.079  21.401  53.698  1.00  0.00     0.036 A 
HETATM   33 CL   UNL     1       8.598  20.219  52.556  1.00  0.00    -0.084 Cl
ENDBRANCH   2  23
TORSDOF 7
ENDMDL
MODEL 9
REMARK VINA RESULT:      -9.1      2.781      5.588
REMARK  7 active torsions:
REMARK  status: ('A' for Active; 'I' for Inactive)
REMARK    1  A    between atoms: O_2  and  C_3 
REMARK    2  A    between atoms: C_5  and  C_6 
REMARK    3  A    between atoms: C_6  and  O_7 
REMARK    4  A    between atoms: C_6  and  C_8 
REMARK    5  A    between atoms: C_8  and  N_9 
REMARK       I    between atoms: N_9  and  C_10 
REMARK    6  A    between atoms: C_10  and  C_11 
REMARK    7  A    between atoms: C_12  and  C_13 
ROOT
HETATM    1  C   UNL     1       3.489  28.336  51.114  1.00  0.00     0.089 C 
HETATM    2  C   UNL     1       4.634  27.541  50.438  1.00  0.00     0.068 C 
HETATM    3  C   UNL     1       4.107  26.686  49.267  1.00  0.00     0.013 C 
HETATM    4  C   UNL     1       3.287  27.492  48.269  1.00  0.00     0.001 C 
HETATM    5  C   UNL     1       2.137  28.209  48.960  1.00  0.00     0.001 C 
HETATM    6  C   UNL     1       2.655  29.108  50.073  1.00  0.00     0.015 C 
ENDROOT
BRANCH   1   7
HETATM    7  C   UNL     1       4.030  29.332  52.144  1.00  0.00     0.222 C 
HETATM    8  N   UNL     1       3.732  29.024  53.452  1.00  0.00    -0.358 N 
HETATM    9  H   UNL     1       3.406  28.075  53.648  1.00  0.00     0.162 HD
HETATM   10  O   UNL     1       4.680  30.327  51.840  1.00  0.00    -0.273 OA
BRANCH   8  11
HETATM   11  C   UNL     1       4.269  29.808  54.557  1.00  0.00     0.159 C 
BRANCH  11  12
HETATM   12  C   UNL     1       4.550  28.937  55.797  1.00  0.00     0.169 C 
BRANCH  12  13
HETATM   13  C   UNL     1       6.011  28.982  56.186  1.00  0.00    -0.025 A 
HETATM   14  C   UNL     1       6.411  29.236  57.511  1.00  0.00     0.046 A 
HETATM   15  C   UNL     1       7.763  29.242  57.861  1.00  0.00     0.068 A 
HETATM   16  C   UNL     1       8.724  28.989  56.880  1.00  0.00     0.037 A 
HETATM   17  C   UNL     1       8.345  28.732  55.564  1.00  0.00     0.003 A 
HETATM   18  C   UNL     1       6.995  28.724  55.219  1.00  0.00     0.010 A 
BRANCH  15  19
HETATM   19  O   UNL     1       8.270  29.472  59.111  1.00  0.00    -0.356 OA
HETATM   20  C   UNL     1       9.124  30.601  59.258  1.00  0.00     0.210 C 
ENDBRANCH  15  19
ENDBRANCH  12  13
BRANCH  12  21
HETATM   21  O   UNL     1       4.167  27.584  55.512  1.00  0.00    -0.389 OA
HETATM   22  H   UNL     1       4.684  27.339  54.724  1.00  0.00     0.210 HD
ENDBRANCH  12  21
ENDBRANCH  11  12
ENDBRANCH   8  11
ENDBRANCH   1   7
BRANCH   2  23
HETATM   23  C   UNL     1       5.355  26.632  51.399  1.00  0.00     0.110 A 
HETATM   24  N   UNL     1       5.046  26.404  52.662  1.00  0.00    -0.233 NA
HETATM   25  C   UNL     1       5.961  25.482  53.110  1.00  0.00     0.087 A 
HETATM   26  C   UNL     1       6.861  25.150  52.105  1.00  0.00     0.062 A 
HETATM   27  C   UNL     1       6.082  24.885  54.372  1.00  0.00     0.057 A 
HETATM   28  N   UNL     1       6.464  25.905  51.031  1.00  0.00    -0.342 N 
HETATM   29  C   UNL     1       7.899  24.231  52.274  1.00  0.00     0.034 A 
HETATM   30  H   UNL     1       6.897  25.910  50.118  1.00  0.00     0.167 HD
HETATM   31  C   UNL     1       8.006  23.638  53.538  1.00  0.00     0.026 A 
HETATM   32  C   UNL     1       7.115  23.963  54.565  1.00  0.00     0.036 A 
HETATM   33 CL   UNL     1       7.291  23.207  56.103  1.00  0.00    -0.084 Cl
ENDBRANCH   2  23
TORSDOF 7
ENDMDL
MODEL 10
REMARK VINA RESULT:      -9.1      2.716      5.223
REMARK  7 active torsions:
REMARK  status: ('A' for Active; 'I' for Inactive)
REMARK    1  A    between atoms: O_2  and  C_3 
REMARK    2  A    between atoms: C_5  and  C_6 
REMARK    3  A    between atoms: C_6  and  O_7 
REMARK    4  A    between atoms: C_6  and  C_8 
REMARK    5  A    between atoms: C_8  and  N_9 
REMARK       I    between atoms: N_9  and  C_10 
REMARK    6  A    between atoms: C_10  and  C_11 
REMARK    7  A    between atoms: C_12  and  C_13 
ROOT
HETATM    1  C   UNL     1       5.467  27.360  53.204  1.00  0.00     0.089 C 
HETATM    2  C   UNL     1       6.369  26.483  52.300  1.00  0.00     0.068 C 
HETATM    3  C   UNL     1       5.651  26.107  50.987  1.00  0.00     0.013 C 
HETATM    4  C   UNL     1       5.090  27.317  50.254  1.00  0.00     0.001 C 
HETATM    5  C   UNL     1       4.162  28.119  51.154  1.00  0.00     0.001 C 
HETATM    6  C   UNL     1       4.883  28.552  52.422  1.00  0.00     0.015 C 
ENDROOT
BRANCH   1   7
HETATM    7  C   UNL     1       6.238  27.897  54.413  1.00  0.00     0.222 C 
HETATM    8  N   UNL     1       5.565  27.806  55.610  1.00  0.00    -0.358 N 
HETATM    9  H   UNL     1       4.749  27.191  55.643  1.00  0.00     0.162 HD
HETATM   10  O   UNL     1       7.367  28.373  54.333  1.00  0.00    -0.273 OA
BRANCH   8  11
HETATM   11  C   UNL     1       6.205  28.168  56.869  1.00  0.00     0.159 C 
BRANCH  11  12
HETATM   12  C   UNL     1       5.850  29.603  57.303  1.00  0.00     0.169 C 
BRANCH  12  13
HETATM   13  C   UNL     1       7.029  30.293  57.953  1.00  0.00    -0.025 A 
HETATM   14  C   UNL     1       8.343  30.093  57.491  1.00  0.00     0.046 A 
HETATM   15  C   UNL     1       9.418  30.762  58.082  1.00  0.00     0.068 A 
HETATM   16  C   UNL     1       9.178  31.639  59.141  1.00  0.00     0.037 A 
HETATM   17  C   UNL     1       7.881  31.851  59.609  1.00  0.00     0.003 A 
HETATM   18  C   UNL     1       6.811  31.184  59.015  1.00  0.00     0.010 A 
BRANCH  15  19
HETATM   19  O   UNL     1      10.732  30.652  57.718  1.00  0.00    -0.356 OA
HETATM   20  C   UNL     1      11.092  29.507  56.956  1.00  0.00     0.210 C 
ENDBRANCH  15  19
ENDBRANCH  12  13
BRANCH  12  21
HETATM   21  O   UNL     1       4.752  29.553  58.224  1.00  0.00    -0.389 OA
HETATM   22  H   UNL     1       3.955  29.613  57.666  1.00  0.00     0.210 HD
ENDBRANCH  12  21
ENDBRANCH  11  12
ENDBRANCH   8  11
ENDBRANCH   1   7
BRANCH   2  23
HETATM   23  C   UNL     1       6.810  25.211  52.978  1.00  0.00     0.110 A 
HETATM   24  N   UNL     1       6.801  24.956  54.273  1.00  0.00    -0.233 NA
HETATM   25  C   UNL     1       7.251  23.665  54.403  1.00  0.00     0.087 A 
HETATM   26  C   UNL     1       7.559  23.121  53.162  1.00  0.00     0.062 A 
HETATM   27  C   UNL     1       7.425  22.893  55.559  1.00  0.00     0.057 A 
HETATM   28  N   UNL     1       7.283  24.129  52.273  1.00  0.00    -0.342 N 
HETATM   29  C   UNL     1       8.034  21.820  52.989  1.00  0.00     0.034 A 
HETATM   30  H   UNL     1       7.388  24.078  51.269  1.00  0.00     0.167 HD
HETATM   31  C   UNL     1       8.199  21.057  54.151  1.00  0.00     0.026 A 
HETATM   32  C   UNL     1       7.901  21.587  55.410  1.00  0.00     0.036 A 
HETATM   33 CL   UNL     1       8.123  20.607  56.810  1.00  0.00    -0.084 Cl
ENDBRANCH   2  23
TORSDOF 7
ENDMDL
