MODEL 1
REMARK VINA RESULT:      -9.4      0.000      0.000
REMARK  9 active torsions:
REMARK  status: ('A' for Active; 'I' for Inactive)
REMARK    1  A    between atoms: C_2  and  O_3 
REMARK    2  A    between atoms: O_3  and  C_4 
REMARK    3  A    between atoms: C_4  and  C_5 
REMARK    4  A    between atoms: C_8  and  N_9 
REMARK       I    between atoms: N_9  and  C_10 
REMARK    5  A    between atoms: C_10  and  C_11 
REMARK       I    between atoms: C_11  and  N_12 
REMARK    6  A    between atoms: N_12  and  C_13 
REMARK    7  A    between atoms: C_13  and  C_14 
REMARK    8  A    between atoms: C_14  and  C_15 
REMARK    9  A    between atoms: C_18  and  O_19 
ROOT
HETATM    1  C   UNL     1       9.844  30.024  57.086  1.00  0.00     0.309 C 
HETATM    2  N   UNL     1       8.648  29.473  56.695  1.00  0.00    -0.352 N 
HETATM    3  O   UNL     1      10.944  29.799  56.598  1.00  0.00    -0.262 OA
HETATM    4  H   UNL     1       7.825  29.756  57.224  1.00  0.00     0.162 HD
ENDROOT
BRANCH   1   5
HETATM    5  C   UNL     1       9.728  30.980  58.293  1.00  0.00     0.313 C 
HETATM    6  N   UNL     1       8.762  30.559  59.182  1.00  0.00    -0.319 N 
HETATM    7  H   UNL     1       8.312  29.683  58.922  1.00  0.00     0.169 HD
HETATM    8  O   UNL     1      10.443  31.971  58.332  1.00  0.00    -0.262 OA
BRANCH   6   9
HETATM    9  C   UNL     1       8.312  31.210  60.341  1.00  0.00     0.035 A 
HETATM   10  C   UNL     1       7.240  32.105  60.361  1.00  0.00     0.030 A 
HETATM   11  C   UNL     1       6.826  32.687  61.565  1.00  0.00     0.020 A 
HETATM   12  C   UNL     1       7.479  32.381  62.766  1.00  0.00     0.039 A 
HETATM   13  C   UNL     1       8.561  31.495  62.745  1.00  0.00     0.020 A 
HETATM   14  C   UNL     1       8.972  30.915  61.539  1.00  0.00     0.030 A 
BRANCH  12  15
HETATM   15  C   UNL     1       6.979  33.008  64.019  1.00  0.00     0.293 C 
HETATM   16  O   UNL     1       7.690  33.638  64.787  1.00  0.00    -0.259 OA
BRANCH  15  17
HETATM   17  O   UNL     1       5.650  32.786  64.165  1.00  0.00    -0.318 OA
BRANCH  17  18
HETATM   18  C   UNL     1       5.004  33.534  65.207  1.00  0.00     0.174 C 
HETATM   19  C   UNL     1       3.800  34.275  64.655  1.00  0.00     0.034 C 
ENDBRANCH  17  18
ENDBRANCH  15  17
ENDBRANCH  12  15
ENDBRANCH   6   9
ENDBRANCH   1   5
BRANCH   2  20
HETATM   20  C   UNL     1       8.543  28.464  55.661  1.00  0.00     0.137 C 
BRANCH  20  21
HETATM   21  C   UNL     1       7.167  27.751  55.574  1.00  0.00     0.003 C 
HETATM   22  C   UNL     1       6.499  27.509  56.953  1.00  0.00     0.016 C 
HETATM   23  C   UNL     1       5.026  27.252  56.632  1.00  0.00     0.001 C 
HETATM   24  C   UNL     1       4.749  28.025  55.343  1.00  0.00     0.001 C 
HETATM   25  C   UNL     1       6.080  28.670  54.957  1.00  0.00     0.016 C 
BRANCH  21  26
HETATM   26  C   UNL     1       7.393  26.432  54.801  1.00  0.00    -0.048 A 
HETATM   27  C   UNL     1       7.539  25.216  55.495  1.00  0.00     0.011 A 
HETATM   28  C   UNL     1       7.763  24.013  54.817  1.00  0.00     0.037 A 
HETATM   29  C   UNL     1       7.872  23.987  53.430  1.00  0.00     0.068 A 
HETATM   30  C   UNL     1       7.761  25.182  52.726  1.00  0.00     0.037 A 
HETATM   31  C   UNL     1       7.531  26.388  53.404  1.00  0.00     0.011 A 
BRANCH  29  32
HETATM   32  O   UNL     1       8.092  22.749  52.893  1.00  0.00    -0.356 OA
HETATM   33  C   UNL     1       8.842  21.832  53.678  1.00  0.00     0.210 C 
ENDBRANCH  29  32
ENDBRANCH  21  26
ENDBRANCH  20  21
ENDBRANCH   2  20
TORSDOF 9
ENDMDL
MODEL 2
REMARK VINA RESULT:      -8.6      1.966     10.618
REMARK  9 active torsions:
REMARK  status: ('A' for Active; 'I' for Inactive)
REMARK    1  A    between atoms: C_2  and  O_3 
REMARK    2  A    between atoms: O_3  and  C_4 
REMARK    3  A    between atoms: C_4  and  C_5 
REMARK    4  A    between atoms: C_8  and  N_9 
REMARK       I    between atoms: N_9  and  C_10 
REMARK    5  A    between atoms: C_10  and  C_11 
REMARK       I    between atoms: C_11  and  N_12 
REMARK    6  A    between atoms: N_12  and  C_13 
REMARK    7  A    between atoms: C_13  and  C_14 
REMARK    8  A    between atoms: C_14  and  C_15 
REMARK    9  A    between atoms: C_18  and  O_19 
ROOT
HETATM    1  C   UNL     1       6.328  29.986  57.497  1.00  0.00     0.309 C 
HETATM    2  N   UNL     1       7.237  30.809  58.119  1.00  0.00    -0.352 N 
HETATM    3  O   UNL     1       5.114  29.994  57.651  1.00  0.00    -0.262 OA
HETATM    4  H   UNL     1       8.217  30.655  57.890  1.00  0.00     0.162 HD
ENDROOT
BRANCH   1   5
HETATM    5  C   UNL     1       6.971  28.942  56.559  1.00  0.00     0.313 C 
HETATM    6  N   UNL     1       6.389  27.701  56.707  1.00  0.00    -0.319 N 
HETATM    7  H   UNL     1       5.620  27.680  57.375  1.00  0.00     0.169 HD
HETATM    8  O   UNL     1       7.892  29.288  55.834  1.00  0.00    -0.262 OA
BRANCH   6   9
HETATM    9  C   UNL     1       6.760  26.494  56.095  1.00  0.00     0.035 A 
HETATM   10  C   UNL     1       6.205  26.026  54.902  1.00  0.00     0.030 A 
HETATM   11  C   UNL     1       6.655  24.828  54.333  1.00  0.00     0.020 A 
HETATM   12  C   UNL     1       7.665  24.082  54.951  1.00  0.00     0.039 A 
HETATM   13  C   UNL     1       8.213  24.542  56.154  1.00  0.00     0.020 A 
HETATM   14  C   UNL     1       7.761  25.741  56.719  1.00  0.00     0.030 A 
BRANCH  12  15
HETATM   15  C   UNL     1       8.123  22.830  54.289  1.00  0.00     0.293 C 
HETATM   16  O   UNL     1       7.626  22.391  53.264  1.00  0.00    -0.259 OA
BRANCH  15  17
HETATM   17  O   UNL     1       9.152  22.277  54.976  1.00  0.00    -0.318 OA
BRANCH  17  18
HETATM   18  C   UNL     1       9.025  20.877  55.268  1.00  0.00     0.174 C 
HETATM   19  C   UNL     1       8.091  20.667  56.446  1.00  0.00     0.034 C 
ENDBRANCH  17  18
ENDBRANCH  15  17
ENDBRANCH  12  15
ENDBRANCH   6   9
ENDBRANCH   1   5
BRANCH   2  20
HETATM   20  C   UNL     1       6.863  31.782  59.125  1.00  0.00     0.137 C 
BRANCH  20  21
HETATM   21  C   UNL     1       7.729  31.764  60.412  1.00  0.00     0.003 C 
HETATM   22  C   UNL     1       8.335  30.373  60.740  1.00  0.00     0.016 C 
HETATM   23  C   UNL     1       9.477  30.666  61.713  1.00  0.00     0.001 C 
HETATM   24  C   UNL     1       9.959  32.074  61.365  1.00  0.00     0.001 C 
HETATM   25  C   UNL     1       9.055  32.547  60.226  1.00  0.00     0.016 C 
BRANCH  21  26
HETATM   26  C   UNL     1       6.838  32.290  61.560  1.00  0.00    -0.048 A 
HETATM   27  C   UNL     1       6.018  31.408  62.288  1.00  0.00     0.011 A 
HETATM   28  C   UNL     1       5.190  31.866  63.318  1.00  0.00     0.037 A 
HETATM   29  C   UNL     1       5.135  33.219  63.641  1.00  0.00     0.068 A 
HETATM   30  C   UNL     1       5.916  34.113  62.914  1.00  0.00     0.037 A 
HETATM   31  C   UNL     1       6.750  33.655  61.884  1.00  0.00     0.011 A 
BRANCH  29  32
HETATM   32  O   UNL     1       4.286  33.534  64.664  1.00  0.00    -0.356 OA
HETATM   33  C   UNL     1       4.878  33.853  65.916  1.00  0.00     0.210 C 
ENDBRANCH  29  32
ENDBRANCH  21  26
ENDBRANCH  20  21
ENDBRANCH   2  20
TORSDOF 9
ENDMDL
MODEL 3
REMARK VINA RESULT:      -8.5      1.566      2.325
REMARK  9 active torsions:
REMARK  status: ('A' for Active; 'I' for Inactive)
REMARK    1  A    between atoms: C_2  and  O_3 
REMARK    2  A    between atoms: O_3  and  C_4 
REMARK    3  A    between atoms: C_4  and  C_5 
REMARK    4  A    between atoms: C_8  and  N_9 
REMARK       I    between atoms: N_9  and  C_10 
REMARK    5  A    between atoms: C_10  and  C_11 
REMARK       I    between atoms: C_11  and  N_12 
REMARK    6  A    between atoms: N_12  and  C_13 
REMARK    7  A    between atoms: C_13  and  C_14 
REMARK    8  A    between atoms: C_14  and  C_15 
REMARK    9  A    between atoms: C_18  and  O_19 
ROOT
HETATM    1  C   UNL     1       8.570  30.165  58.634  1.00  0.00     0.309 C 
HETATM    2  N   UNL     1       7.681  29.198  58.231  1.00  0.00    -0.352 N 
HETATM    3  O   UNL     1       9.769  30.198  58.391  1.00  0.00    -0.262 OA
HETATM    4  H   UNL     1       6.717  29.314  58.538  1.00  0.00     0.162 HD
ENDROOT
BRANCH   1   5
HETATM    5  C   UNL     1       7.940  31.267  59.512  1.00  0.00     0.313 C 
HETATM    6  N   UNL     1       7.885  30.890  60.837  1.00  0.00    -0.319 N 
HETATM    7  H   UNL     1       8.291  29.975  61.026  1.00  0.00     0.169 HD
HETATM    8  O   UNL     1       7.553  32.297  58.979  1.00  0.00    -0.262 OA
BRANCH   6   9
HETATM    9  C   UNL     1       7.303  31.585  61.910  1.00  0.00     0.035 A 
HETATM   10  C   UNL     1       8.031  32.101  62.983  1.00  0.00     0.030 A 
HETATM   11  C   UNL     1       7.383  32.816  63.999  1.00  0.00     0.020 A 
HETATM   12  C   UNL     1       5.999  33.021  63.954  1.00  0.00     0.039 A 
HETATM   13  C   UNL     1       5.267  32.491  62.886  1.00  0.00     0.020 A 
HETATM   14  C   UNL     1       5.918  31.778  61.871  1.00  0.00     0.030 A 
BRANCH  12  15
HETATM   15  C   UNL     1       5.367  33.809  65.046  1.00  0.00     0.293 C 
HETATM   16  O   UNL     1       4.513  33.360  65.794  1.00  0.00    -0.259 OA
BRANCH  15  17
HETATM   17  O   UNL     1       5.880  35.064  65.085  1.00  0.00    -0.318 OA
BRANCH  17  18
HETATM   18  C   UNL     1       5.050  36.094  64.528  1.00  0.00     0.174 C 
HETATM   19  C   UNL     1       5.625  36.580  63.211  1.00  0.00     0.034 C 
ENDBRANCH  17  18
ENDBRANCH  15  17
ENDBRANCH  12  15
ENDBRANCH   6   9
ENDBRANCH   1   5
BRANCH   2  20
HETATM   20  C   UNL     1       8.079  28.013  57.498  1.00  0.00     0.137 C 
BRANCH  20  21
HETATM   21  C   UNL     1       7.118  27.592  56.355  1.00  0.00     0.003 C 
HETATM   22  C   UNL     1       5.618  27.814  56.685  1.00  0.00     0.016 C 
HETATM   23  C   UNL     1       4.914  27.792  55.327  1.00  0.00     0.001 C 
HETATM   24  C   UNL     1       5.953  28.288  54.321  1.00  0.00     0.001 C 
HETATM   25  C   UNL     1       7.222  28.545  55.135  1.00  0.00     0.016 C 
BRANCH  21  26
HETATM   26  C   UNL     1       7.426  26.113  56.031  1.00  0.00    -0.048 A 
HETATM   27  C   UNL     1       7.618  25.700  54.700  1.00  0.00     0.011 A 
HETATM   28  C   UNL     1       7.879  24.363  54.382  1.00  0.00     0.037 A 
HETATM   29  C   UNL     1       7.936  23.393  55.377  1.00  0.00     0.068 A 
HETATM   30  C   UNL     1       7.719  23.773  56.698  1.00  0.00     0.037 A 
HETATM   31  C   UNL     1       7.461  25.114  57.018  1.00  0.00     0.011 A 
BRANCH  29  32
HETATM   32  O   UNL     1       8.197  22.126  54.933  1.00  0.00    -0.356 OA
HETATM   33  C   UNL     1       8.525  21.982  53.558  1.00  0.00     0.210 C 
ENDBRANCH  29  32
ENDBRANCH  21  26
ENDBRANCH  20  21
ENDBRANCH   2  20
TORSDOF 9
ENDMDL
MODEL 4
REMARK VINA RESULT:      -8.5      1.546      2.361
REMARK  9 active torsions:
REMARK  status: ('A' for Active; 'I' for Inactive)
REMARK    1  A    between atoms: C_2  and  O_3 
REMARK    2  A    between atoms: O_3  and  C_4 
REMARK    3  A    between atoms: C_4  and  C_5 
REMARK    4  A    between atoms: C_8  and  N_9 
REMARK       I    between atoms: N_9  and  C_10 
REMARK    5  A    between atoms: C_10  and  C_11 
REMARK       I    between atoms: C_11  and  N_12 
REMARK    6  A    between atoms: N_12  and  C_13 
REMARK    7  A    between atoms: C_13  and  C_14 
REMARK    8  A    between atoms: C_14  and  C_15 
REMARK    9  A    between atoms: C_18  and  O_19 
ROOT
HETATM    1  C   UNL     1       9.784  29.997  56.968  1.00  0.00     0.309 C 
HETATM    2  N   UNL     1       8.559  29.631  56.465  1.00  0.00    -0.352 N 
HETATM    3  O   UNL     1      10.877  29.603  56.581  1.00  0.00    -0.262 OA
HETATM    4  H   UNL     1       7.744  30.041  56.917  1.00  0.00     0.162 HD
ENDROOT
BRANCH   1   5
HETATM    5  C   UNL     1       9.704  30.969  58.164  1.00  0.00     0.313 C 
HETATM    6  N   UNL     1       8.794  30.540  59.106  1.00  0.00    -0.319 N 
HETATM    7  H   UNL     1       8.353  29.649  58.882  1.00  0.00     0.169 HD
HETATM    8  O   UNL     1      10.396  31.977  58.153  1.00  0.00    -0.262 OA
BRANCH   6   9
HETATM    9  C   UNL     1       8.386  31.199  60.277  1.00  0.00     0.035 A 
HETATM   10  C   UNL     1       8.982  31.003  61.524  1.00  0.00     0.030 A 
HETATM   11  C   UNL     1       8.542  31.727  62.639  1.00  0.00     0.020 A 
HETATM   12  C   UNL     1       7.499  32.653  62.522  1.00  0.00     0.039 A 
HETATM   13  C   UNL     1       6.892  32.839  61.276  1.00  0.00     0.020 A 
HETATM   14  C   UNL     1       7.335  32.115  60.162  1.00  0.00     0.030 A 
BRANCH  12  15
HETATM   15  C   UNL     1       7.090  33.412  63.735  1.00  0.00     0.293 C 
HETATM   16  O   UNL     1       7.793  33.526  64.726  1.00  0.00    -0.259 OA
BRANCH  15  17
HETATM   17  O   UNL     1       5.856  33.949  63.567  1.00  0.00    -0.318 OA
BRANCH  17  18
HETATM   18  C   UNL     1       4.787  33.278  64.251  1.00  0.00     0.174 C 
HETATM   19  C   UNL     1       4.472  33.985  65.557  1.00  0.00     0.034 C 
ENDBRANCH  17  18
ENDBRANCH  15  17
ENDBRANCH  12  15
ENDBRANCH   6   9
ENDBRANCH   1   5
BRANCH   2  20
HETATM   20  C   UNL     1       8.397  28.641  55.419  1.00  0.00     0.137 C 
BRANCH  20  21
HETATM   21  C   UNL     1       7.302  27.574  55.687  1.00  0.00     0.003 C 
HETATM   22  C   UNL     1       7.803  26.356  56.507  1.00  0.00     0.016 C 
HETATM   23  C   UNL     1       6.531  25.699  57.043  1.00  0.00     0.001 C 
HETATM   24  C   UNL     1       5.512  26.830  57.175  1.00  0.00     0.001 C 
HETATM   25  C   UNL     1       6.228  28.087  56.681  1.00  0.00     0.016 C 
BRANCH  21  26
HETATM   26  C   UNL     1       6.741  27.152  54.310  1.00  0.00    -0.048 A 
HETATM   27  C   UNL     1       7.407  26.184  53.536  1.00  0.00     0.011 A 
HETATM   28  C   UNL     1       6.927  25.801  52.278  1.00  0.00     0.037 A 
HETATM   29  C   UNL     1       5.782  26.385  51.745  1.00  0.00     0.068 A 
HETATM   30  C   UNL     1       5.125  27.367  52.481  1.00  0.00     0.037 A 
HETATM   31  C   UNL     1       5.602  27.748  53.743  1.00  0.00     0.011 A 
BRANCH  29  32
HETATM   32  O   UNL     1       5.422  25.924  50.510  1.00  0.00    -0.356 OA
HETATM   33  C   UNL     1       4.691  26.815  49.679  1.00  0.00     0.210 C 
ENDBRANCH  29  32
ENDBRANCH  21  26
ENDBRANCH  20  21
ENDBRANCH   2  20
TORSDOF 9
ENDMDL
MODEL 5
REMARK VINA RESULT:      -8.3      2.148      4.065
REMARK  9 active torsions:
REMARK  status: ('A' for Active; 'I' for Inactive)
REMARK    1  A    between atoms: C_2  and  O_3 
REMARK    2  A    between atoms: O_3  and  C_4 
REMARK    3  A    between atoms: C_4  and  C_5 
REMARK    4  A    between atoms: C_8  and  N_9 
REMARK       I    between atoms: N_9  and  C_10 
REMARK    5  A    between atoms: C_10  and  C_11 
REMARK       I    between atoms: C_11  and  N_12 
REMARK    6  A    between atoms: N_12  and  C_13 
REMARK    7  A    between atoms: C_13  and  C_14 
REMARK    8  A    between atoms: C_14  and  C_15 
REMARK    9  A    between atoms: C_18  and  O_19 
ROOT
HETATM    1  C   UNL     1       9.660  30.159  57.559  1.00  0.00     0.309 C 
HETATM    2  N   UNL     1       8.482  29.749  56.982  1.00  0.00    -0.352 N 
HETATM    3  O   UNL     1      10.784  29.764  57.279  1.00  0.00    -0.262 OA
HETATM    4  H   UNL     1       7.630  30.168  57.348  1.00  0.00     0.162 HD
ENDROOT
BRANCH   1   5
HETATM    5  C   UNL     1       9.475  31.188  58.696  1.00  0.00     0.313 C 
HETATM    6  N   UNL     1       8.578  30.741  59.642  1.00  0.00    -0.319 N 
HETATM    7  H   UNL     1       8.213  29.807  59.462  1.00  0.00     0.169 HD
HETATM    8  O   UNL     1      10.086  32.245  58.640  1.00  0.00    -0.262 OA
BRANCH   6   9
HETATM    9  C   UNL     1       8.091  31.430  60.764  1.00  0.00     0.035 A 
HETATM   10  C   UNL     1       6.913  32.179  60.762  1.00  0.00     0.030 A 
HETATM   11  C   UNL     1       6.472  32.809  61.933  1.00  0.00     0.020 A 
HETATM   12  C   UNL     1       7.206  32.698  63.120  1.00  0.00     0.039 A 
HETATM   13  C   UNL     1       8.394  31.960  63.120  1.00  0.00     0.020 A 
HETATM   14  C   UNL     1       8.831  31.331  61.947  1.00  0.00     0.030 A 
BRANCH  12  15
HETATM   15  C   UNL     1       6.677  33.366  64.340  1.00  0.00     0.293 C 
HETATM   16  O   UNL     1       7.367  34.029  65.098  1.00  0.00    -0.259 OA
BRANCH  15  17
HETATM   17  O   UNL     1       5.346  33.138  64.469  1.00  0.00    -0.318 OA
BRANCH  17  18
HETATM   18  C   UNL     1       4.558  34.264  64.883  1.00  0.00     0.174 C 
HETATM   19  C   UNL     1       3.306  34.373  64.032  1.00  0.00     0.034 C 
ENDBRANCH  17  18
ENDBRANCH  15  17
ENDBRANCH  12  15
ENDBRANCH   6   9
ENDBRANCH   1   5
BRANCH   2  20
HETATM   20  C   UNL     1       8.414  28.707  55.978  1.00  0.00     0.137 C 
BRANCH  20  21
HETATM   21  C   UNL     1       7.169  27.785  56.069  1.00  0.00     0.003 C 
HETATM   22  C   UNL     1       7.115  26.696  54.965  1.00  0.00     0.016 C 
HETATM   23  C   UNL     1       6.126  25.656  55.494  1.00  0.00     0.001 C 
HETATM   24  C   UNL     1       6.218  25.742  57.017  1.00  0.00     0.001 C 
HETATM   25  C   UNL     1       7.233  26.849  57.304  1.00  0.00     0.016 C 
BRANCH  21  26
HETATM   26  C   UNL     1       5.927  28.704  56.035  1.00  0.00    -0.048 A 
HETATM   27  C   UNL     1       5.351  29.167  57.233  1.00  0.00     0.011 A 
HETATM   28  C   UNL     1       4.215  29.984  57.227  1.00  0.00     0.037 A 
HETATM   29  C   UNL     1       3.606  30.348  56.030  1.00  0.00     0.068 A 
HETATM   30  C   UNL     1       4.142  29.877  54.834  1.00  0.00     0.037 A 
HETATM   31  C   UNL     1       5.282  29.062  54.839  1.00  0.00     0.011 A 
BRANCH  29  32
HETATM   32  O   UNL     1       2.505  31.147  56.163  1.00  0.00    -0.356 OA
HETATM   33  C   UNL     1       2.682  32.533  55.907  1.00  0.00     0.210 C 
ENDBRANCH  29  32
ENDBRANCH  21  26
ENDBRANCH  20  21
ENDBRANCH   2  20
TORSDOF 9
ENDMDL
MODEL 6
REMARK VINA RESULT:      -8.3      7.156     10.910
REMARK  9 active torsions:
REMARK  status: ('A' for Active; 'I' for Inactive)
REMARK    1  A    between atoms: C_2  and  O_3 
REMARK    2  A    between atoms: O_3  and  C_4 
REMARK    3  A    between atoms: C_4  and  C_5 
REMARK    4  A    between atoms: C_8  and  N_9 
REMARK       I    between atoms: N_9  and  C_10 
REMARK    5  A    between atoms: C_10  and  C_11 
REMARK       I    between atoms: C_11  and  N_12 
REMARK    6  A    between atoms: N_12  and  C_13 
REMARK    7  A    between atoms: C_13  and  C_14 
REMARK    8  A    between atoms: C_14  and  C_15 
REMARK    9  A    between atoms: C_18  and  O_19 
ROOT
HETATM    1  C   UNL     1       3.991  28.436  52.727  1.00  0.00     0.309 C 
HETATM    2  N   UNL     1       4.010  27.972  51.433  1.00  0.00    -0.352 N 
HETATM    3  O   UNL     1       3.280  29.328  53.170  1.00  0.00    -0.262 OA
HETATM    4  H   UNL     1       4.679  27.233  51.228  1.00  0.00     0.162 HD
ENDROOT
BRANCH   1   5
HETATM    5  C   UNL     1       5.022  27.752  53.651  1.00  0.00     0.313 C 
HETATM    6  N   UNL     1       5.277  26.457  53.255  1.00  0.00    -0.319 N 
HETATM    7  H   UNL     1       4.780  26.174  52.412  1.00  0.00     0.169 HD
HETATM    8  O   UNL     1       5.469  28.378  54.601  1.00  0.00    -0.262 OA
BRANCH   6   9
HETATM    9  C   UNL     1       6.082  25.501  53.894  1.00  0.00     0.035 A 
HETATM   10  C   UNL     1       5.898  25.091  55.216  1.00  0.00     0.030 A 
HETATM   11  C   UNL     1       6.721  24.103  55.772  1.00  0.00     0.020 A 
HETATM   12  C   UNL     1       7.739  23.514  55.013  1.00  0.00     0.039 A 
HETATM   13  C   UNL     1       7.934  23.935  53.693  1.00  0.00     0.020 A 
HETATM   14  C   UNL     1       7.108  24.922  53.140  1.00  0.00     0.030 A 
BRANCH  12  15
HETATM   15  C   UNL     1       8.566  22.452  55.646  1.00  0.00     0.293 C 
HETATM   16  O   UNL     1       8.627  22.276  56.853  1.00  0.00    -0.259 OA
BRANCH  15  17
HETATM   17  O   UNL     1       9.212  21.725  54.702  1.00  0.00    -0.318 OA
BRANCH  17  18
HETATM   18  C   UNL     1       8.605  20.470  54.358  1.00  0.00     0.174 C 
HETATM   19  C   UNL     1       8.336  20.405  52.866  1.00  0.00     0.034 C 
ENDBRANCH  17  18
ENDBRANCH  15  17
ENDBRANCH  12  15
ENDBRANCH   6   9
ENDBRANCH   1   5
BRANCH   2  20
HETATM   20  C   UNL     1       3.208  28.551  50.375  1.00  0.00     0.137 C 
BRANCH  20  21
HETATM   21  C   UNL     1       3.601  28.114  48.938  1.00  0.00     0.003 C 
HETATM   22  C   UNL     1       4.852  28.845  48.382  1.00  0.00     0.016 C 
HETATM   23  C   UNL     1       5.327  27.972  47.219  1.00  0.00     0.001 C 
HETATM   24  C   UNL     1       4.891  26.551  47.571  1.00  0.00     0.001 C 
HETATM   25  C   UNL     1       4.156  26.666  48.907  1.00  0.00     0.016 C 
BRANCH  21  26
HETATM   26  C   UNL     1       2.359  28.335  48.046  1.00  0.00    -0.048 A 
HETATM   27  C   UNL     1       2.052  29.618  47.557  1.00  0.00     0.011 A 
HETATM   28  C   UNL     1       0.922  29.845  46.765  1.00  0.00     0.037 A 
HETATM   29  C   UNL     1       0.051  28.806  46.452  1.00  0.00     0.068 A 
HETATM   30  C   UNL     1       0.319  27.533  46.949  1.00  0.00     0.037 A 
HETATM   31  C   UNL     1       1.454  27.305  47.741  1.00  0.00     0.011 A 
BRANCH  29  32
HETATM   32  O   UNL     1      -1.014  29.160  45.672  1.00  0.00    -0.356 OA
HETATM   33  C   UNL     1      -0.749  30.030  44.580  1.00  0.00     0.210 C 
ENDBRANCH  29  32
ENDBRANCH  21  26
ENDBRANCH  20  21
ENDBRANCH   2  20
TORSDOF 9
ENDMDL
MODEL 7
REMARK VINA RESULT:      -8.2      7.058     12.432
REMARK  9 active torsions:
REMARK  status: ('A' for Active; 'I' for Inactive)
REMARK    1  A    between atoms: C_2  and  O_3 
REMARK    2  A    between atoms: O_3  and  C_4 
REMARK    3  A    between atoms: C_4  and  C_5 
REMARK    4  A    between atoms: C_8  and  N_9 
REMARK       I    between atoms: N_9  and  C_10 
REMARK    5  A    between atoms: C_10  and  C_11 
REMARK       I    between atoms: C_11  and  N_12 
REMARK    6  A    between atoms: N_12  and  C_13 
REMARK    7  A    between atoms: C_13  and  C_14 
REMARK    8  A    between atoms: C_14  and  C_15 
REMARK    9  A    between atoms: C_18  and  O_19 
ROOT
HETATM    1  C   UNL     1       4.969  27.993  51.155  1.00  0.00     0.309 C 
HETATM    2  N   UNL     1       4.634  26.872  51.875  1.00  0.00    -0.352 N 
HETATM    3  O   UNL     1       5.623  28.947  51.555  1.00  0.00    -0.262 OA
HETATM    4  H   UNL     1       4.067  26.178  51.393  1.00  0.00     0.162 HD
ENDROOT
BRANCH   1   5
HETATM    5  C   UNL     1       4.398  28.009  49.720  1.00  0.00     0.313 C 
HETATM    6  N   UNL     1       3.021  27.943  49.722  1.00  0.00    -0.319 N 
HETATM    7  H   UNL     1       2.607  27.928  50.653  1.00  0.00     0.169 HD
HETATM    8  O   UNL     1       5.174  28.053  48.777  1.00  0.00    -0.262 OA
BRANCH   6   9
HETATM    9  C   UNL     1       2.159  27.846  48.619  1.00  0.00     0.035 A 
HETATM   10  C   UNL     1       2.061  26.712  47.809  1.00  0.00     0.030 A 
HETATM   11  C   UNL     1       1.149  26.678  46.747  1.00  0.00     0.020 A 
HETATM   12  C   UNL     1       0.324  27.778  46.480  1.00  0.00     0.039 A 
HETATM   13  C   UNL     1       0.432  28.919  47.283  1.00  0.00     0.020 A 
HETATM   14  C   UNL     1       1.344  28.949  48.344  1.00  0.00     0.030 A 
BRANCH  12  15
HETATM   15  C   UNL     1      -0.645  27.676  45.356  1.00  0.00     0.293 C 
HETATM   16  O   UNL     1      -0.579  26.822  44.485  1.00  0.00    -0.259 OA
BRANCH  15  17
HETATM   17  O   UNL     1      -1.589  28.645  45.452  1.00  0.00    -0.318 OA
BRANCH  17  18
HETATM   18  C   UNL     1      -1.782  29.446  44.276  1.00  0.00     0.174 C 
HETATM   19  C   UNL     1      -2.012  30.896  44.658  1.00  0.00     0.034 C 
ENDBRANCH  17  18
ENDBRANCH  15  17
ENDBRANCH  12  15
ENDBRANCH   6   9
ENDBRANCH   1   5
BRANCH   2  20
HETATM   20  C   UNL     1       4.967  26.703  53.275  1.00  0.00     0.137 C 
BRANCH  20  21
HETATM   21  C   UNL     1       6.266  25.900  53.550  1.00  0.00     0.003 C 
HETATM   22  C   UNL     1       6.022  24.398  53.852  1.00  0.00     0.016 C 
HETATM   23  C   UNL     1       7.379  23.730  53.627  1.00  0.00     0.001 C 
HETATM   24  C   UNL     1       8.088  24.590  52.581  1.00  0.00     0.001 C 
HETATM   25  C   UNL     1       7.124  25.734  52.268  1.00  0.00     0.016 C 
BRANCH  21  26
HETATM   26  C   UNL     1       6.995  26.612  54.712  1.00  0.00    -0.048 A 
HETATM   27  C   UNL     1       7.579  27.877  54.518  1.00  0.00     0.011 A 
HETATM   28  C   UNL     1       8.260  28.531  55.550  1.00  0.00     0.037 A 
HETATM   29  C   UNL     1       8.400  27.936  56.800  1.00  0.00     0.068 A 
HETATM   30  C   UNL     1       7.857  26.671  57.006  1.00  0.00     0.037 A 
HETATM   31  C   UNL     1       7.170  26.017  55.973  1.00  0.00     0.011 A 
BRANCH  29  32
HETATM   32  O   UNL     1       9.088  28.679  57.719  1.00  0.00    -0.356 OA
HETATM   33  C   UNL     1       8.680  30.029  57.889  1.00  0.00     0.210 C 
ENDBRANCH  29  32
ENDBRANCH  21  26
ENDBRANCH  20  21
ENDBRANCH   2  20
TORSDOF 9
ENDMDL
MODEL 8
REMARK VINA RESULT:      -8.1      2.661      3.700
REMARK  9 active torsions:
REMARK  status: ('A' for Active; 'I' for Inactive)
REMARK    1  A    between atoms: C_2  and  O_3 
REMARK    2  A    between atoms: O_3  and  C_4 
REMARK    3  A    between atoms: C_4  and  C_5 
REMARK    4  A    between atoms: C_8  and  N_9 
REMARK       I    between atoms: N_9  and  C_10 
REMARK    5  A    between atoms: C_10  and  C_11 
REMARK       I    between atoms: C_11  and  N_12 
REMARK    6  A    between atoms: N_12  and  C_13 
REMARK    7  A    between atoms: C_13  and  C_14 
REMARK    8  A    between atoms: C_14  and  C_15 
REMARK    9  A    between atoms: C_18  and  O_19 
ROOT
HETATM    1  C   UNL     1       4.611  30.172  57.436  1.00  0.00     0.309 C 
HETATM    2  N   UNL     1       5.108  28.961  57.855  1.00  0.00    -0.352 N 
HETATM    3  O   UNL     1       4.457  30.535  56.278  1.00  0.00    -0.262 OA
HETATM    4  H   UNL     1       5.188  28.828  58.861  1.00  0.00     0.162 HD
ENDROOT
BRANCH   1   5
HETATM    5  C   UNL     1       4.274  31.141  58.590  1.00  0.00     0.313 C 
HETATM    6  N   UNL     1       5.409  31.725  59.111  1.00  0.00    -0.319 N 
HETATM    7  H   UNL     1       6.270  31.454  58.638  1.00  0.00     0.169 HD
HETATM    8  O   UNL     1       3.106  31.274  58.927  1.00  0.00    -0.262 OA
BRANCH   6   9
HETATM    9  C   UNL     1       5.510  32.584  60.216  1.00  0.00     0.035 A 
HETATM   10  C   UNL     1       6.343  32.343  61.311  1.00  0.00     0.030 A 
HETATM   11  C   UNL     1       6.417  33.267  62.360  1.00  0.00     0.020 A 
HETATM   12  C   UNL     1       5.658  34.443  62.329  1.00  0.00     0.039 A 
HETATM   13  C   UNL     1       4.813  34.678  61.240  1.00  0.00     0.020 A 
HETATM   14  C   UNL     1       4.742  33.752  60.191  1.00  0.00     0.030 A 
BRANCH  12  15
HETATM   15  C   UNL     1       5.796  35.402  63.459  1.00  0.00     0.293 C 
HETATM   16  O   UNL     1       5.830  36.613  63.313  1.00  0.00    -0.259 OA
BRANCH  15  17
HETATM   17  O   UNL     1       5.865  34.738  64.640  1.00  0.00    -0.318 OA
BRANCH  17  18
HETATM   18  C   UNL     1       4.884  35.108  65.620  1.00  0.00     0.174 C 
HETATM   19  C   UNL     1       3.508  34.628  65.197  1.00  0.00     0.034 C 
ENDBRANCH  17  18
ENDBRANCH  15  17
ENDBRANCH  12  15
ENDBRANCH   6   9
ENDBRANCH   1   5
BRANCH   2  20
HETATM   20  C   UNL     1       5.595  27.949  56.940  1.00  0.00     0.137 C 
BRANCH  20  21
HETATM   21  C   UNL     1       7.126  27.975  56.685  1.00  0.00     0.003 C 
HETATM   22  C   UNL     1       7.551  28.912  55.523  1.00  0.00     0.016 C 
HETATM   23  C   UNL     1       9.046  29.150  55.743  1.00  0.00     0.001 C 
HETATM   24  C   UNL     1       9.263  29.020  57.250  1.00  0.00     0.001 C 
HETATM   25  C   UNL     1       7.890  28.682  57.835  1.00  0.00     0.016 C 
BRANCH  21  26
HETATM   26  C   UNL     1       7.565  26.514  56.438  1.00  0.00    -0.048 A 
HETATM   27  C   UNL     1       7.358  25.910  55.184  1.00  0.00     0.011 A 
HETATM   28  C   UNL     1       7.729  24.582  54.944  1.00  0.00     0.037 A 
HETATM   29  C   UNL     1       8.298  23.809  55.951  1.00  0.00     0.068 A 
HETATM   30  C   UNL     1       8.484  24.376  57.209  1.00  0.00     0.037 A 
HETATM   31  C   UNL     1       8.116  25.708  57.449  1.00  0.00     0.011 A 
BRANCH  29  32
HETATM   32  O   UNL     1       8.613  22.530  55.587  1.00  0.00    -0.356 OA
HETATM   33  C   UNL     1       8.463  21.524  56.580  1.00  0.00     0.210 C 
ENDBRANCH  29  32
ENDBRANCH  21  26
ENDBRANCH  20  21
ENDBRANCH   2  20
TORSDOF 9
ENDMDL
MODEL 9
REMARK VINA RESULT:      -8.0      7.157     10.240
REMARK  9 active torsions:
REMARK  status: ('A' for Active; 'I' for Inactive)
REMARK    1  A    between atoms: C_2  and  O_3 
REMARK    2  A    between atoms: O_3  and  C_4 
REMARK    3  A    between atoms: C_4  and  C_5 
REMARK    4  A    between atoms: C_8  and  N_9 
REMARK       I    between atoms: N_9  and  C_10 
REMARK    5  A    between atoms: C_10  and  C_11 
REMARK       I    between atoms: C_11  and  N_12 
REMARK    6  A    between atoms: N_12  and  C_13 
REMARK    7  A    between atoms: C_13  and  C_14 
REMARK    8  A    between atoms: C_14  and  C_15 
REMARK    9  A    between atoms: C_18  and  O_19 
ROOT
HETATM    1  C   UNL     1       4.582  28.895  52.886  1.00  0.00     0.309 C 
HETATM    2  N   UNL     1       5.110  29.842  52.041  1.00  0.00    -0.352 N 
HETATM    3  O   UNL     1       3.413  28.804  53.237  1.00  0.00    -0.262 OA
HETATM    4  H   UNL     1       6.111  29.784  51.867  1.00  0.00     0.162 HD
ENDROOT
BRANCH   1   5
HETATM    5  C   UNL     1       5.626  27.905  53.446  1.00  0.00     0.313 C 
HETATM    6  N   UNL     1       5.588  26.698  52.781  1.00  0.00    -0.319 N 
HETATM    7  H   UNL     1       4.913  26.665  52.019  1.00  0.00     0.169 HD
HETATM    8  O   UNL     1       6.328  28.256  54.383  1.00  0.00    -0.262 OA
BRANCH   6   9
HETATM    9  C   UNL     1       6.318  25.533  53.063  1.00  0.00     0.035 A 
HETATM   10  C   UNL     1       6.163  24.785  54.232  1.00  0.00     0.030 A 
HETATM   11  C   UNL     1       6.902  23.612  54.424  1.00  0.00     0.020 A 
HETATM   12  C   UNL     1       7.807  23.172  53.451  1.00  0.00     0.039 A 
HETATM   13  C   UNL     1       7.974  23.928  52.286  1.00  0.00     0.020 A 
HETATM   14  C   UNL     1       7.232  25.101  52.096  1.00  0.00     0.030 A 
BRANCH  12  15
HETATM   15  C   UNL     1       8.547  21.905  53.697  1.00  0.00     0.293 C 
HETATM   16  O   UNL     1       8.633  21.005  52.876  1.00  0.00    -0.259 OA
BRANCH  15  17
HETATM   17  O   UNL     1       9.101  21.910  54.935  1.00  0.00    -0.318 OA
BRANCH  17  18
HETATM   18  C   UNL     1       8.914  20.713  55.705  1.00  0.00     0.174 C 
HETATM   19  C   UNL     1       8.413  21.054  57.096  1.00  0.00     0.034 C 
ENDBRANCH  17  18
ENDBRANCH  15  17
ENDBRANCH  12  15
ENDBRANCH   6   9
ENDBRANCH   1   5
BRANCH   2  20
HETATM   20  C   UNL     1       4.332  30.935  51.493  1.00  0.00     0.137 C 
BRANCH  20  21
HETATM   21  C   UNL     1       4.576  31.227  49.988  1.00  0.00     0.003 C 
HETATM   22  C   UNL     1       3.695  32.371  49.422  1.00  0.00     0.016 C 
HETATM   23  C   UNL     1       4.394  32.798  48.131  1.00  0.00     0.001 C 
HETATM   24  C   UNL     1       5.875  32.492  48.349  1.00  0.00     0.001 C 
HETATM   25  C   UNL     1       5.965  31.872  49.744  1.00  0.00     0.016 C 
BRANCH  21  26
HETATM   26  C   UNL     1       4.354  29.898  49.232  1.00  0.00    -0.048 A 
HETATM   27  C   UNL     1       5.442  29.215  48.657  1.00  0.00     0.011 A 
HETATM   28  C   UNL     1       5.262  28.021  47.951  1.00  0.00     0.037 A 
HETATM   29  C   UNL     1       3.991  27.481  47.777  1.00  0.00     0.068 A 
HETATM   30  C   UNL     1       2.897  28.155  48.312  1.00  0.00     0.037 A 
HETATM   31  C   UNL     1       3.077  29.350  49.023  1.00  0.00     0.011 A 
BRANCH  29  32
HETATM   32  O   UNL     1       3.953  26.313  47.068  1.00  0.00    -0.356 OA
HETATM   33  C   UNL     1       3.031  25.324  47.506  1.00  0.00     0.210 C 
ENDBRANCH  29  32
ENDBRANCH  21  26
ENDBRANCH  20  21
ENDBRANCH   2  20
TORSDOF 9
ENDMDL
MODEL 10
REMARK VINA RESULT:      -8.0      7.428     11.057
REMARK  9 active torsions:
REMARK  status: ('A' for Active; 'I' for Inactive)
REMARK    1  A    between atoms: C_2  and  O_3 
REMARK    2  A    between atoms: O_3  and  C_4 
REMARK    3  A    between atoms: C_4  and  C_5 
REMARK    4  A    between atoms: C_8  and  N_9 
REMARK       I    between atoms: N_9  and  C_10 
REMARK    5  A    between atoms: C_10  and  C_11 
REMARK       I    between atoms: C_11  and  N_12 
REMARK    6  A    between atoms: N_12  and  C_13 
REMARK    7  A    between atoms: C_13  and  C_14 
REMARK    8  A    between atoms: C_14  and  C_15 
REMARK    9  A    between atoms: C_18  and  O_19 
ROOT
HETATM    1  C   UNL     1       3.784  28.788  52.123  1.00  0.00     0.309 C 
HETATM    2  N   UNL     1       3.449  28.132  50.962  1.00  0.00    -0.352 N 
HETATM    3  O   UNL     1       3.313  29.844  52.524  1.00  0.00    -0.262 OA
HETATM    4  H   UNL     1       3.953  27.269  50.769  1.00  0.00     0.162 HD
ENDROOT
BRANCH   1   5
HETATM    5  C   UNL     1       4.901  28.095  52.933  1.00  0.00     0.313 C 
HETATM    6  N   UNL     1       4.931  26.737  52.695  1.00  0.00    -0.319 N 
HETATM    7  H   UNL     1       4.247  26.419  52.011  1.00  0.00     0.169 HD
HETATM    8  O   UNL     1       5.594  28.770  53.678  1.00  0.00    -0.262 OA
BRANCH   6   9
HETATM    9  C   UNL     1       5.742  25.771  53.311  1.00  0.00     0.035 A 
HETATM   10  C   UNL     1       5.737  25.515  54.683  1.00  0.00     0.030 A 
HETATM   11  C   UNL     1       6.549  24.507  55.218  1.00  0.00     0.020 A 
HETATM   12  C   UNL     1       7.377  23.743  54.387  1.00  0.00     0.039 A 
HETATM   13  C   UNL     1       7.392  24.007  53.013  1.00  0.00     0.020 A 
HETATM   14  C   UNL     1       6.578  25.015  52.482  1.00  0.00     0.030 A 
BRANCH  12  15
HETATM   15  C   UNL     1       8.198  22.668  55.006  1.00  0.00     0.293 C 
HETATM   16  O   UNL     1       9.257  22.874  55.577  1.00  0.00    -0.259 OA
BRANCH  15  17
HETATM   17  O   UNL     1       7.599  21.461  54.850  1.00  0.00    -0.318 OA
BRANCH  17  18
HETATM   18  C   UNL     1       8.427  20.419  54.312  1.00  0.00     0.174 C 
HETATM   19  C   UNL     1       8.307  20.379  52.800  1.00  0.00     0.034 C 
ENDBRANCH  17  18
ENDBRANCH  15  17
ENDBRANCH  12  15
ENDBRANCH   6   9
ENDBRANCH   1   5
BRANCH   2  20
HETATM   20  C   UNL     1       2.509  28.664  49.996  1.00  0.00     0.137 C 
BRANCH  20  21
HETATM   21  C   UNL     1       2.589  28.029  48.582  1.00  0.00     0.003 C 
HETATM   22  C   UNL     1       3.540  26.806  48.498  1.00  0.00     0.016 C 
HETATM   23  C   UNL     1       3.125  26.079  47.218  1.00  0.00     0.001 C 
HETATM   24  C   UNL     1       1.640  26.393  47.033  1.00  0.00     0.001 C 
HETATM   25  C   UNL     1       1.268  27.313  48.197  1.00  0.00     0.016 C 
BRANCH  21  26
HETATM   26  C   UNL     1       3.007  29.154  47.609  1.00  0.00    -0.048 A 
HETATM   27  C   UNL     1       4.365  29.475  47.431  1.00  0.00     0.011 A 
HETATM   28  C   UNL     1       4.765  30.502  46.570  1.00  0.00     0.037 A 
HETATM   29  C   UNL     1       3.824  31.256  45.875  1.00  0.00     0.068 A 
HETATM   30  C   UNL     1       2.473  30.976  46.059  1.00  0.00     0.037 A 
HETATM   31  C   UNL     1       2.071  29.944  46.919  1.00  0.00     0.011 A 
BRANCH  29  32
HETATM   32  O   UNL     1       4.346  32.229  45.069  1.00  0.00    -0.356 OA
HETATM   33  C   UNL     1       5.139  33.227  45.697  1.00  0.00     0.210 C 
ENDBRANCH  29  32
ENDBRANCH  21  26
ENDBRANCH  20  21
ENDBRANCH   2  20
TORSDOF 9
ENDMDL
