MODEL 1
REMARK VINA RESULT:      -9.9      0.000      0.000
REMARK  6 active torsions:
REMARK  status: ('A' for Active; 'I' for Inactive)
REMARK    1  A    between atoms: C_2  and  C_3 
REMARK    2  A    between atoms: C_3  and  C_4 
REMARK    3  A    between atoms: C_3  and  C_10 
REMARK    4  A    between atoms: C_10  and  C_11 
REMARK       I    between atoms: C_11  and  N_12 
REMARK    5  A    between atoms: N_12  and  C_13 
REMARK    6  A    between atoms: C_20  and  C_21 
REMARK       I    between atoms: C_21  and  N_22 
ROOT
HETATM    1  C   UNL     1       8.382  28.386  57.075  1.00  0.00     0.035 A 
HETATM    2  C   UNL     1       7.803  29.253  58.012  1.00  0.00     0.046 A 
HETATM    3  C   UNL     1       8.524  30.386  58.453  1.00  0.00     0.030 A 
HETATM    4  C   UNL     1       9.801  30.605  57.952  1.00  0.00     0.063 A 
HETATM    5  N   UNL     1      10.239  31.748  58.560  1.00  0.00    -0.277 N 
HETATM    6  H   UNL     1      11.135  32.204  58.436  1.00  0.00     0.189 HD
HETATM    7  N   UNL     1       9.354  32.304  59.402  1.00  0.00    -0.168 NA
HETATM    8  C   UNL     1       8.287  31.475  59.346  1.00  0.00     0.156 A 
HETATM    9  C   UNL     1      10.409  29.763  57.021  1.00  0.00     0.034 A 
HETATM   10  C   UNL     1       9.670  28.655  56.590  1.00  0.00     0.032 A 
ENDROOT
BRANCH   1  11
HETATM   11  N   UNL     1       7.743  27.237  56.561  1.00  0.00    -0.327 N 
HETATM   12  C   UNL     1       7.763  25.954  57.079  1.00  0.00     0.223 C 
HETATM   13  O   UNL     1       8.326  25.598  58.109  1.00  0.00    -0.273 OA
HETATM   14  H   UNL     1       7.248  27.373  55.691  1.00  0.00     0.169 HD
BRANCH  12  15
HETATM   15  C   UNL     1       6.923  24.955  56.293  1.00  0.00     0.116 C 
BRANCH  15  16
HETATM   16  C   UNL     1       7.421  24.651  54.867  1.00  0.00     0.049 C 
BRANCH  16  17
HETATM   17  C   UNL     1       6.514  25.342  53.857  1.00  0.00    -0.027 C 
HETATM   18  C   UNL     1       5.186  25.224  53.719  1.00  0.00     0.007 C 
ENDBRANCH  16  17
BRANCH  16  19
HETATM   19  C   UNL     1       7.655  23.170  54.605  1.00  0.00    -0.050 A 
HETATM   20  C   UNL     1       7.880  22.671  53.312  1.00  0.00     0.008 A 
HETATM   21  C   UNL     1       8.089  21.307  53.101  1.00  0.00     0.001 A 
HETATM   22  C   UNL     1       8.080  20.423  54.178  1.00  0.00     0.000 A 
HETATM   23  C   UNL     1       7.869  20.902  55.467  1.00  0.00     0.001 A 
HETATM   24  C   UNL     1       7.661  22.267  55.680  1.00  0.00     0.008 A 
ENDBRANCH  16  19
ENDBRANCH  15  16
ENDBRANCH  12  15
ENDBRANCH   1  11
BRANCH   8  25
HETATM   25  C   UNL     1       7.075  31.746  60.132  1.00  0.00     0.270 C 
HETATM   26  N   UNL     1       7.090  31.198  61.387  1.00  0.00    -0.365 N 
HETATM   27  H   UNL     1       7.907  30.674  61.676  1.00  0.00     0.159 HD
HETATM   28  H   UNL     1       6.308  31.345  62.004  1.00  0.00     0.159 HD
HETATM   29  O   UNL     1       6.118  32.406  59.742  1.00  0.00    -0.266 OA
ENDBRANCH   8  25
TORSDOF 6
ENDMDL
MODEL 2
REMARK VINA RESULT:      -9.1      1.955      2.367
REMARK  6 active torsions:
REMARK  status: ('A' for Active; 'I' for Inactive)
REMARK    1  A    between atoms: C_2  and  C_3 
REMARK    2  A    between atoms: C_3  and  C_4 
REMARK    3  A    between atoms: C_3  and  C_10 
REMARK    4  A    between atoms: C_10  and  C_11 
REMARK       I    between atoms: C_11  and  N_12 
REMARK    5  A    between atoms: N_12  and  C_13 
REMARK    6  A    between atoms: C_20  and  C_21 
REMARK       I    between atoms: C_21  and  N_22 
ROOT
HETATM    1  C   UNL     1       7.223  27.951  56.383  1.00  0.00     0.035 A 
HETATM    2  C   UNL     1       6.175  28.796  56.770  1.00  0.00     0.046 A 
HETATM    3  C   UNL     1       6.442  29.897  57.614  1.00  0.00     0.030 A 
HETATM    4  C   UNL     1       7.744  30.108  58.051  1.00  0.00     0.063 A 
HETATM    5  N   UNL     1       7.687  31.220  58.844  1.00  0.00    -0.277 N 
HETATM    6  H   UNL     1       8.454  31.661  59.337  1.00  0.00     0.189 HD
HETATM    7  N   UNL     1       6.465  31.764  58.951  1.00  0.00    -0.168 NA
HETATM    8  C   UNL     1       5.683  30.960  58.195  1.00  0.00     0.156 A 
HETATM    9  C   UNL     1       8.811  29.286  57.688  1.00  0.00     0.034 A 
HETATM   10  C   UNL     1       8.523  28.210  56.841  1.00  0.00     0.032 A 
ENDROOT
BRANCH   1  11
HETATM   11  N   UNL     1       7.066  26.834  55.534  1.00  0.00    -0.327 N 
HETATM   12  C   UNL     1       6.603  25.574  55.870  1.00  0.00     0.223 C 
HETATM   13  O   UNL     1       6.215  25.217  56.978  1.00  0.00    -0.273 OA
HETATM   14  H   UNL     1       7.367  26.973  54.580  1.00  0.00     0.169 HD
BRANCH  12  15
HETATM   15  C   UNL     1       6.516  24.611  54.693  1.00  0.00     0.116 C 
BRANCH  15  16
HETATM   16  C   UNL     1       7.864  24.227  54.053  1.00  0.00     0.049 C 
BRANCH  16  17
HETATM   17  C   UNL     1       7.939  24.805  52.645  1.00  0.00    -0.027 C 
HETATM   18  C   UNL     1       6.950  25.338  51.915  1.00  0.00     0.007 C 
ENDBRANCH  16  17
BRANCH  16  19
HETATM   19  C   UNL     1       8.185  22.742  54.150  1.00  0.00    -0.050 A 
HETATM   20  C   UNL     1       8.702  22.169  55.322  1.00  0.00     0.008 A 
HETATM   21  C   UNL     1       8.989  20.803  55.381  1.00  0.00     0.001 A 
HETATM   22  C   UNL     1       8.761  19.992  54.272  1.00  0.00     0.000 A 
HETATM   23  C   UNL     1       8.240  20.543  53.105  1.00  0.00     0.001 A 
HETATM   24  C   UNL     1       7.950  21.907  53.045  1.00  0.00     0.008 A 
ENDBRANCH  16  19
ENDBRANCH  15  16
ENDBRANCH  12  15
ENDBRANCH   1  11
BRANCH   8  25
HETATM   25  C   UNL     1       4.247  31.228  58.039  1.00  0.00     0.270 C 
HETATM   26  N   UNL     1       3.441  30.385  58.757  1.00  0.00    -0.365 N 
HETATM   27  H   UNL     1       3.876  29.671  59.329  1.00  0.00     0.159 HD
HETATM   28  H   UNL     1       2.442  30.504  58.724  1.00  0.00     0.159 HD
HETATM   29  O   UNL     1       3.771  32.121  57.347  1.00  0.00    -0.266 OA
ENDBRANCH   8  25
TORSDOF 6
ENDMDL
MODEL 3
REMARK VINA RESULT:      -9.1      2.138      2.782
REMARK  6 active torsions:
REMARK  status: ('A' for Active; 'I' for Inactive)
REMARK    1  A    between atoms: C_2  and  C_3 
REMARK    2  A    between atoms: C_3  and  C_4 
REMARK    3  A    between atoms: C_3  and  C_10 
REMARK    4  A    between atoms: C_10  and  C_11 
REMARK       I    between atoms: C_11  and  N_12 
REMARK    5  A    between atoms: N_12  and  C_13 
REMARK    6  A    between atoms: C_20  and  C_21 
REMARK       I    between atoms: C_21  and  N_22 
ROOT
HETATM    1  C   UNL     1       6.184  28.399  56.782  1.00  0.00     0.035 A 
HETATM    2  C   UNL     1       6.867  29.249  57.662  1.00  0.00     0.046 A 
HETATM    3  C   UNL     1       6.377  30.554  57.892  1.00  0.00     0.030 A 
HETATM    4  C   UNL     1       5.229  30.967  57.227  1.00  0.00     0.063 A 
HETATM    5  N   UNL     1       5.013  32.253  57.638  1.00  0.00    -0.277 N 
HETATM    6  H   UNL     1       4.263  32.870  57.351  1.00  0.00     0.189 HD
HETATM    7  N   UNL     1       5.909  32.711  58.526  1.00  0.00    -0.168 NA
HETATM    8  C   UNL     1       6.758  31.672  58.697  1.00  0.00     0.156 A 
HETATM    9  C   UNL     1       4.526  30.150  56.343  1.00  0.00     0.034 A 
HETATM   10  C   UNL     1       5.023  28.857  56.141  1.00  0.00     0.032 A 
ENDROOT
BRANCH   1  11
HETATM   11  N   UNL     1       6.581  27.075  56.493  1.00  0.00    -0.327 N 
HETATM   12  C   UNL     1       7.246  26.618  55.369  1.00  0.00     0.223 C 
HETATM   13  O   UNL     1       7.637  27.303  54.430  1.00  0.00    -0.273 OA
HETATM   14  H   UNL     1       6.307  26.385  57.178  1.00  0.00     0.169 HD
BRANCH  12  15
HETATM   15  C   UNL     1       7.563  25.128  55.400  1.00  0.00     0.116 C 
BRANCH  15  16
HETATM   16  C   UNL     1       7.182  24.345  54.128  1.00  0.00     0.049 C 
BRANCH  16  17
HETATM   17  C   UNL     1       5.720  24.606  53.792  1.00  0.00    -0.027 C 
HETATM   18  C   UNL     1       5.185  24.915  52.603  1.00  0.00     0.007 C 
ENDBRANCH  16  17
BRANCH  16  19
HETATM   19  C   UNL     1       7.572  22.874  54.177  1.00  0.00    -0.050 A 
HETATM   20  C   UNL     1       7.655  22.168  55.388  1.00  0.00     0.008 A 
HETATM   21  C   UNL     1       8.017  20.819  55.402  1.00  0.00     0.001 A 
HETATM   22  C   UNL     1       8.298  20.157  54.209  1.00  0.00     0.000 A 
HETATM   23  C   UNL     1       8.212  20.840  53.000  1.00  0.00     0.001 A 
HETATM   24  C   UNL     1       7.847  22.188  52.983  1.00  0.00     0.008 A 
ENDBRANCH  16  19
ENDBRANCH  15  16
ENDBRANCH  12  15
ENDBRANCH   1  11
BRANCH   8  25
HETATM   25  C   UNL     1       7.897  31.768  59.621  1.00  0.00     0.270 C 
HETATM   26  N   UNL     1       7.828  30.904  60.682  1.00  0.00    -0.365 N 
HETATM   27  H   UNL     1       7.034  30.279  60.745  1.00  0.00     0.159 HD
HETATM   28  H   UNL     1       8.573  30.888  61.359  1.00  0.00     0.159 HD
HETATM   29  O   UNL     1       8.847  32.531  59.487  1.00  0.00    -0.266 OA
ENDBRANCH   8  25
TORSDOF 6
ENDMDL
MODEL 4
REMARK VINA RESULT:      -9.1      1.939      2.784
REMARK  6 active torsions:
REMARK  status: ('A' for Active; 'I' for Inactive)
REMARK    1  A    between atoms: C_2  and  C_3 
REMARK    2  A    between atoms: C_3  and  C_4 
REMARK    3  A    between atoms: C_3  and  C_10 
REMARK    4  A    between atoms: C_10  and  C_11 
REMARK       I    between atoms: C_11  and  N_12 
REMARK    5  A    between atoms: N_12  and  C_13 
REMARK    6  A    between atoms: C_20  and  C_21 
REMARK       I    between atoms: C_21  and  N_22 
ROOT
HETATM    1  C   UNL     1       6.489  27.985  56.131  1.00  0.00     0.035 A 
HETATM    2  C   UNL     1       7.650  28.686  56.485  1.00  0.00     0.046 A 
HETATM    3  C   UNL     1       7.559  29.781  57.375  1.00  0.00     0.030 A 
HETATM    4  C   UNL     1       6.311  30.142  57.868  1.00  0.00     0.063 A 
HETATM    5  N   UNL     1       6.538  31.220  58.678  1.00  0.00    -0.277 N 
HETATM    6  H   UNL     1       5.851  31.749  59.202  1.00  0.00     0.189 HD
HETATM    7  N   UNL     1       7.827  31.584  58.771  1.00  0.00    -0.168 NA
HETATM    8  C   UNL     1       8.472  30.703  57.973  1.00  0.00     0.156 A 
HETATM    9  C   UNL     1       5.136  29.470  57.535  1.00  0.00     0.034 A 
HETATM   10  C   UNL     1       5.254  28.381  56.663  1.00  0.00     0.032 A 
ENDROOT
BRANCH   1  11
HETATM   11  N   UNL     1       6.473  26.872  55.262  1.00  0.00    -0.327 N 
HETATM   12  C   UNL     1       6.400  25.533  55.605  1.00  0.00     0.223 C 
HETATM   13  O   UNL     1       6.305  25.080  56.741  1.00  0.00    -0.273 OA
HETATM   14  H   UNL     1       6.565  27.090  54.281  1.00  0.00     0.169 HD
BRANCH  12  15
HETATM   15  C   UNL     1       6.358  24.589  54.410  1.00  0.00     0.116 C 
BRANCH  15  16
HETATM   16  C   UNL     1       7.729  24.211  53.818  1.00  0.00     0.049 C 
BRANCH  16  17
HETATM   17  C   UNL     1       7.801  24.675  52.369  1.00  0.00    -0.027 C 
HETATM   18  C   UNL     1       6.884  25.361  51.672  1.00  0.00     0.007 C 
ENDBRANCH  16  17
BRANCH  16  19
HETATM   19  C   UNL     1       8.108  22.753  54.039  1.00  0.00    -0.050 A 
HETATM   20  C   UNL     1       7.986  21.791  53.024  1.00  0.00     0.008 A 
HETATM   21  C   UNL     1       8.340  20.461  53.257  1.00  0.00     0.001 A 
HETATM   22  C   UNL     1       8.823  20.073  54.504  1.00  0.00     0.000 A 
HETATM   23  C   UNL     1       8.959  21.015  55.519  1.00  0.00     0.001 A 
HETATM   24  C   UNL     1       8.608  22.347  55.288  1.00  0.00     0.008 A 
ENDBRANCH  16  19
ENDBRANCH  15  16
ENDBRANCH  12  15
ENDBRANCH   1  11
BRANCH   8  25
HETATM   25  C   UNL     1       9.932  30.756  57.809  1.00  0.00     0.270 C 
HETATM   26  N   UNL     1      10.499  29.556  57.473  1.00  0.00    -0.365 N 
HETATM   27  H   UNL     1       9.895  28.751  57.355  1.00  0.00     0.159 HD
HETATM   28  H   UNL     1      11.493  29.500  57.324  1.00  0.00     0.159 HD
HETATM   29  O   UNL     1      10.616  31.764  57.944  1.00  0.00    -0.266 OA
ENDBRANCH   8  25
TORSDOF 6
ENDMDL
MODEL 5
REMARK VINA RESULT:      -8.9      1.872      3.172
REMARK  6 active torsions:
REMARK  status: ('A' for Active; 'I' for Inactive)
REMARK    1  A    between atoms: C_2  and  C_3 
REMARK    2  A    between atoms: C_3  and  C_4 
REMARK    3  A    between atoms: C_3  and  C_10 
REMARK    4  A    between atoms: C_10  and  C_11 
REMARK       I    between atoms: C_11  and  N_12 
REMARK    5  A    between atoms: N_12  and  C_13 
REMARK    6  A    between atoms: C_20  and  C_21 
REMARK       I    between atoms: C_21  and  N_22 
ROOT
HETATM    1  C   UNL     1       7.359  27.640  56.735  1.00  0.00     0.035 A 
HETATM    2  C   UNL     1       7.761  28.431  57.819  1.00  0.00     0.046 A 
HETATM    3  C   UNL     1       7.245  29.740  57.956  1.00  0.00     0.030 A 
HETATM    4  C   UNL     1       6.357  30.215  56.999  1.00  0.00     0.063 A 
HETATM    5  N   UNL     1       6.048  31.488  57.390  1.00  0.00    -0.277 N 
HETATM    6  H   UNL     1       5.428  32.139  56.922  1.00  0.00     0.189 HD
HETATM    7  N   UNL     1       6.643  31.881  58.526  1.00  0.00    -0.168 NA
HETATM    8  C   UNL     1       7.386  30.811  58.891  1.00  0.00     0.156 A 
HETATM    9  C   UNL     1       5.937  29.457  55.907  1.00  0.00     0.034 A 
HETATM   10  C   UNL     1       6.451  28.159  55.800  1.00  0.00     0.032 A 
ENDROOT
BRANCH   1  11
HETATM   11  N   UNL     1       7.803  26.318  56.513  1.00  0.00    -0.327 N 
HETATM   12  C   UNL     1       7.142  25.141  56.818  1.00  0.00     0.223 C 
HETATM   13  O   UNL     1       6.025  25.046  57.315  1.00  0.00    -0.273 OA
HETATM   14  H   UNL     1       8.730  26.236  56.121  1.00  0.00     0.169 HD
BRANCH  12  15
HETATM   15  C   UNL     1       7.893  23.883  56.400  1.00  0.00     0.116 C 
BRANCH  15  16
HETATM   16  C   UNL     1       7.283  23.114  55.212  1.00  0.00     0.049 C 
BRANCH  16  17
HETATM   17  C   UNL     1       8.124  21.877  54.926  1.00  0.00    -0.027 C 
HETATM   18  C   UNL     1       7.742  20.730  54.347  1.00  0.00     0.007 C 
ENDBRANCH  16  17
BRANCH  16  19
HETATM   19  C   UNL     1       7.003  23.989  53.998  1.00  0.00    -0.050 A 
HETATM   20  C   UNL     1       7.986  24.255  53.031  1.00  0.00     0.008 A 
HETATM   21  C   UNL     1       7.701  25.063  51.929  1.00  0.00     0.001 A 
HETATM   22  C   UNL     1       6.431  25.614  51.775  1.00  0.00     0.000 A 
HETATM   23  C   UNL     1       5.442  25.353  52.719  1.00  0.00     0.001 A 
HETATM   24  C   UNL     1       5.725  24.543  53.821  1.00  0.00     0.008 A 
ENDBRANCH  16  19
ENDBRANCH  15  16
ENDBRANCH  12  15
ENDBRANCH   1  11
BRANCH   8  25
HETATM   25  C   UNL     1       8.197  30.834  60.117  1.00  0.00     0.270 C 
HETATM   26  N   UNL     1       7.467  30.998  61.265  1.00  0.00    -0.365 N 
HETATM   27  H   UNL     1       6.461  31.079  61.190  1.00  0.00     0.159 HD
HETATM   28  H   UNL     1       7.937  31.010  62.155  1.00  0.00     0.159 HD
HETATM   29  O   UNL     1       9.416  30.712  60.154  1.00  0.00    -0.266 OA
ENDBRANCH   8  25
TORSDOF 6
ENDMDL
MODEL 6
REMARK VINA RESULT:      -8.9      1.361      2.545
REMARK  6 active torsions:
REMARK  status: ('A' for Active; 'I' for Inactive)
REMARK    1  A    between atoms: C_2  and  C_3 
REMARK    2  A    between atoms: C_3  and  C_4 
REMARK    3  A    between atoms: C_3  and  C_10 
REMARK    4  A    between atoms: C_10  and  C_11 
REMARK       I    between atoms: C_11  and  N_12 
REMARK    5  A    between atoms: N_12  and  C_13 
REMARK    6  A    between atoms: C_20  and  C_21 
REMARK       I    between atoms: C_21  and  N_22 
ROOT
HETATM    1  C   UNL     1       8.032  28.364  57.250  1.00  0.00     0.035 A 
HETATM    2  C   UNL     1       7.573  29.353  58.130  1.00  0.00     0.046 A 
HETATM    3  C   UNL     1       8.412  30.445  58.450  1.00  0.00     0.030 A 
HETATM    4  C   UNL     1       9.682  30.501  57.890  1.00  0.00     0.063 A 
HETATM    5  N   UNL     1      10.248  31.643  58.385  1.00  0.00    -0.277 N 
HETATM    6  H   UNL     1      11.176  32.001  58.193  1.00  0.00     0.189 HD
HETATM    7  N   UNL     1       9.453  32.346  59.207  1.00  0.00    -0.168 NA
HETATM    8  C   UNL     1       8.312  31.620  59.256  1.00  0.00     0.156 A 
HETATM    9  C   UNL     1      10.172  29.534  57.014  1.00  0.00     0.034 A 
HETATM   10  C   UNL     1       9.318  28.470  56.702  1.00  0.00     0.032 A 
ENDROOT
BRANCH   1  11
HETATM   11  N   UNL     1       7.270  27.242  56.856  1.00  0.00    -0.327 N 
HETATM   12  C   UNL     1       7.277  25.976  57.413  1.00  0.00     0.223 C 
HETATM   13  O   UNL     1       7.937  25.615  58.382  1.00  0.00    -0.273 OA
HETATM   14  H   UNL     1       6.683  27.384  56.046  1.00  0.00     0.169 HD
BRANCH  12  15
HETATM   15  C   UNL     1       6.292  25.009  56.768  1.00  0.00     0.116 C 
BRANCH  15  16
HETATM   16  C   UNL     1       6.890  24.074  55.698  1.00  0.00     0.049 C 
BRANCH  16  17
HETATM   17  C   UNL     1       8.321  23.720  56.079  1.00  0.00    -0.027 C 
HETATM   18  C   UNL     1       8.928  22.527  56.004  1.00  0.00     0.007 C 
ENDBRANCH  16  17
BRANCH  16  19
HETATM   19  C   UNL     1       6.717  24.586  54.275  1.00  0.00    -0.050 A 
HETATM   20  C   UNL     1       7.800  24.695  53.388  1.00  0.00     0.008 A 
HETATM   21  C   UNL     1       7.612  25.170  52.089  1.00  0.00     0.001 A 
HETATM   22  C   UNL     1       6.341  25.539  51.656  1.00  0.00     0.000 A 
HETATM   23  C   UNL     1       5.255  25.429  52.519  1.00  0.00     0.001 A 
HETATM   24  C   UNL     1       5.440  24.951  53.818  1.00  0.00     0.008 A 
ENDBRANCH  16  19
ENDBRANCH  15  16
ENDBRANCH  12  15
ENDBRANCH   1  11
BRANCH   8  25
HETATM   25  C   UNL     1       7.164  32.067  60.057  1.00  0.00     0.270 C 
HETATM   26  N   UNL     1       6.123  32.556  59.314  1.00  0.00    -0.365 N 
HETATM   27  H   UNL     1       6.212  32.566  58.305  1.00  0.00     0.159 HD
HETATM   28  H   UNL     1       5.286  32.872  59.776  1.00  0.00     0.159 HD
HETATM   29  O   UNL     1       7.098  32.015  61.280  1.00  0.00    -0.266 OA
ENDBRANCH   8  25
TORSDOF 6
ENDMDL
MODEL 7
REMARK VINA RESULT:      -8.8      5.124      7.945
REMARK  6 active torsions:
REMARK  status: ('A' for Active; 'I' for Inactive)
REMARK    1  A    between atoms: C_2  and  C_3 
REMARK    2  A    between atoms: C_3  and  C_4 
REMARK    3  A    between atoms: C_3  and  C_10 
REMARK    4  A    between atoms: C_10  and  C_11 
REMARK       I    between atoms: C_11  and  N_12 
REMARK    5  A    between atoms: N_12  and  C_13 
REMARK    6  A    between atoms: C_20  and  C_21 
REMARK       I    between atoms: C_21  and  N_22 
ROOT
HETATM    1  C   UNL     1       5.275  27.405  52.218  1.00  0.00     0.035 A 
HETATM    2  C   UNL     1       5.178  27.149  50.844  1.00  0.00     0.046 A 
HETATM    3  C   UNL     1       4.223  27.847  50.070  1.00  0.00     0.030 A 
HETATM    4  C   UNL     1       3.392  28.765  50.700  1.00  0.00     0.063 A 
HETATM    5  N   UNL     1       2.585  29.260  49.714  1.00  0.00    -0.277 N 
HETATM    6  H   UNL     1       1.850  29.951  49.812  1.00  0.00     0.189 HD
HETATM    7  N   UNL     1       2.826  28.759  48.493  1.00  0.00    -0.168 NA
HETATM    8  C   UNL     1       3.838  27.884  48.695  1.00  0.00     0.156 A 
HETATM    9  C   UNL     1       3.459  29.043  52.064  1.00  0.00     0.034 A 
HETATM   10  C   UNL     1       4.422  28.349  52.806  1.00  0.00     0.032 A 
ENDROOT
BRANCH   1  11
HETATM   11  N   UNL     1       6.202  26.774  53.076  1.00  0.00    -0.327 N 
HETATM   12  C   UNL     1       6.049  25.578  53.755  1.00  0.00     0.223 C 
HETATM   13  O   UNL     1       5.073  24.836  53.702  1.00  0.00    -0.273 OA
HETATM   14  H   UNL     1       7.059  27.285  53.234  1.00  0.00     0.169 HD
BRANCH  12  15
HETATM   15  C   UNL     1       7.271  25.163  54.564  1.00  0.00     0.116 C 
BRANCH  15  16
HETATM   16  C   UNL     1       7.068  23.949  55.492  1.00  0.00     0.049 C 
BRANCH  16  17
HETATM   17  C   UNL     1       7.614  24.274  56.876  1.00  0.00    -0.027 C 
HETATM   18  C   UNL     1       8.855  24.653  57.210  1.00  0.00     0.007 C 
ENDBRANCH  16  17
BRANCH  16  19
HETATM   19  C   UNL     1       7.570  22.639  54.901  1.00  0.00    -0.050 A 
HETATM   20  C   UNL     1       7.845  22.499  53.531  1.00  0.00     0.008 A 
HETATM   21  C   UNL     1       8.302  21.284  53.017  1.00  0.00     0.001 A 
HETATM   22  C   UNL     1       8.493  20.193  53.863  1.00  0.00     0.000 A 
HETATM   23  C   UNL     1       8.233  20.318  55.224  1.00  0.00     0.001 A 
HETATM   24  C   UNL     1       7.779  21.533  55.741  1.00  0.00     0.008 A 
ENDBRANCH  16  19
ENDBRANCH  15  16
ENDBRANCH  12  15
ENDBRANCH   1  11
BRANCH   8  25
HETATM   25  C   UNL     1       4.414  27.120  47.579  1.00  0.00     0.270 C 
HETATM   26  N   UNL     1       5.725  27.417  47.318  1.00  0.00    -0.365 N 
HETATM   27  H   UNL     1       6.188  28.108  47.895  1.00  0.00     0.159 HD
HETATM   28  H   UNL     1       6.207  26.931  46.580  1.00  0.00     0.159 HD
HETATM   29  O   UNL     1       3.813  26.277  46.922  1.00  0.00    -0.266 OA
ENDBRANCH   8  25
TORSDOF 6
ENDMDL
MODEL 8
REMARK VINA RESULT:      -8.5      4.237      9.231
REMARK  6 active torsions:
REMARK  status: ('A' for Active; 'I' for Inactive)
REMARK    1  A    between atoms: C_2  and  C_3 
REMARK    2  A    between atoms: C_3  and  C_4 
REMARK    3  A    between atoms: C_3  and  C_10 
REMARK    4  A    between atoms: C_10  and  C_11 
REMARK       I    between atoms: C_11  and  N_12 
REMARK    5  A    between atoms: N_12  and  C_13 
REMARK    6  A    between atoms: C_20  and  C_21 
REMARK       I    between atoms: C_21  and  N_22 
ROOT
HETATM    1  C   UNL     1       8.113  29.804  58.503  1.00  0.00     0.035 A 
HETATM    2  C   UNL     1       6.979  29.371  57.803  1.00  0.00     0.046 A 
HETATM    3  C   UNL     1       7.099  28.988  56.448  1.00  0.00     0.030 A 
HETATM    4  C   UNL     1       8.346  29.063  55.838  1.00  0.00     0.063 A 
HETATM    5  N   UNL     1       8.147  28.645  54.552  1.00  0.00    -0.277 N 
HETATM    6  H   UNL     1       8.839  28.576  53.816  1.00  0.00     0.189 HD
HETATM    7  N   UNL     1       6.884  28.289  54.272  1.00  0.00    -0.168 NA
HETATM    8  C   UNL     1       6.223  28.493  55.434  1.00  0.00     0.156 A 
HETATM    9  C   UNL     1       9.495  29.491  56.502  1.00  0.00     0.034 A 
HETATM   10  C   UNL     1       9.352  29.852  57.847  1.00  0.00     0.032 A 
ENDROOT
BRANCH   1  11
HETATM   11  N   UNL     1       8.103  30.195  59.860  1.00  0.00    -0.327 N 
HETATM   12  C   UNL     1       8.304  31.463  60.376  1.00  0.00     0.223 C 
HETATM   13  O   UNL     1       8.499  32.486  59.728  1.00  0.00    -0.273 OA
HETATM   14  H   UNL     1       7.972  29.445  60.523  1.00  0.00     0.169 HD
BRANCH  12  15
HETATM   15  C   UNL     1       8.181  31.541  61.892  1.00  0.00     0.116 C 
BRANCH  15  16
HETATM   16  C   UNL     1       7.609  32.863  62.441  1.00  0.00     0.049 C 
BRANCH  16  17
HETATM   17  C   UNL     1       7.967  32.995  63.916  1.00  0.00    -0.027 C 
HETATM   18  C   UNL     1       7.245  33.552  64.898  1.00  0.00     0.007 C 
ENDBRANCH  16  17
BRANCH  16  19
HETATM   19  C   UNL     1       6.134  33.069  62.123  1.00  0.00    -0.050 A 
HETATM   20  C   UNL     1       5.637  34.303  61.675  1.00  0.00     0.008 A 
HETATM   21  C   UNL     1       4.279  34.464  61.392  1.00  0.00     0.001 A 
HETATM   22  C   UNL     1       3.400  33.394  61.551  1.00  0.00     0.000 A 
HETATM   23  C   UNL     1       3.878  32.162  61.985  1.00  0.00     0.001 A 
HETATM   24  C   UNL     1       5.237  31.998  62.265  1.00  0.00     0.008 A 
ENDBRANCH  16  19
ENDBRANCH  15  16
ENDBRANCH  12  15
ENDBRANCH   1  11
BRANCH   8  25
HETATM   25  C   UNL     1       4.786  28.203  55.551  1.00  0.00     0.270 C 
HETATM   26  N   UNL     1       4.479  27.294  56.527  1.00  0.00    -0.365 N 
HETATM   27  H   UNL     1       5.231  26.909  57.085  1.00  0.00     0.159 HD
HETATM   28  H   UNL     1       3.516  27.046  56.690  1.00  0.00     0.159 HD
HETATM   29  O   UNL     1       3.910  28.713  54.862  1.00  0.00    -0.266 OA
ENDBRANCH   8  25
TORSDOF 6
ENDMDL
MODEL 9
REMARK VINA RESULT:      -8.5      3.355      3.977
REMARK  6 active torsions:
REMARK  status: ('A' for Active; 'I' for Inactive)
REMARK    1  A    between atoms: C_2  and  C_3 
REMARK    2  A    between atoms: C_3  and  C_4 
REMARK    3  A    between atoms: C_3  and  C_10 
REMARK    4  A    between atoms: C_10  and  C_11 
REMARK       I    between atoms: C_11  and  N_12 
REMARK    5  A    between atoms: N_12  and  C_13 
REMARK    6  A    between atoms: C_20  and  C_21 
REMARK       I    between atoms: C_21  and  N_22 
ROOT
HETATM    1  C   UNL     1       4.797  28.234  55.455  1.00  0.00     0.035 A 
HETATM    2  C   UNL     1       4.596  28.995  56.615  1.00  0.00     0.046 A 
HETATM    3  C   UNL     1       3.932  30.239  56.526  1.00  0.00     0.030 A 
HETATM    4  C   UNL     1       3.504  30.684  55.281  1.00  0.00     0.063 A 
HETATM    5  N   UNL     1       2.919  31.898  55.510  1.00  0.00    -0.277 N 
HETATM    6  H   UNL     1       2.498  32.515  54.825  1.00  0.00     0.189 HD
HETATM    7  N   UNL     1       2.911  32.277  56.797  1.00  0.00    -0.168 NA
HETATM    8  C   UNL     1       3.532  31.262  57.440  1.00  0.00     0.156 A 
HETATM    9  C   UNL     1       3.690  29.956  54.107  1.00  0.00     0.034 A 
HETATM   10  C   UNL     1       4.338  28.720  54.222  1.00  0.00     0.032 A 
ENDROOT
BRANCH   1  11
HETATM   11  N   UNL     1       5.436  26.975  55.436  1.00  0.00    -0.327 N 
HETATM   12  C   UNL     1       6.737  26.691  55.060  1.00  0.00     0.223 C 
HETATM   13  O   UNL     1       7.580  27.506  54.699  1.00  0.00    -0.273 OA
HETATM   14  H   UNL     1       4.851  26.192  55.694  1.00  0.00     0.169 HD
BRANCH  12  15
HETATM   15  C   UNL     1       7.117  25.223  55.204  1.00  0.00     0.116 C 
BRANCH  15  16
HETATM   16  C   UNL     1       7.028  24.387  53.912  1.00  0.00     0.049 C 
BRANCH  16  17
HETATM   17  C   UNL     1       5.649  24.564  53.290  1.00  0.00    -0.027 C 
HETATM   18  C   UNL     1       5.338  25.099  52.101  1.00  0.00     0.007 C 
ENDBRANCH  16  17
BRANCH  16  19
HETATM   19  C   UNL     1       7.466  22.940  54.090  1.00  0.00    -0.050 A 
HETATM   20  C   UNL     1       7.863  22.145  53.004  1.00  0.00     0.008 A 
HETATM   21  C   UNL     1       8.258  20.820  53.197  1.00  0.00     0.001 A 
HETATM   22  C   UNL     1       8.264  20.271  54.477  1.00  0.00     0.000 A 
HETATM   23  C   UNL     1       7.881  21.048  55.566  1.00  0.00     0.001 A 
HETATM   24  C   UNL     1       7.489  22.374  55.376  1.00  0.00     0.008 A 
ENDBRANCH  16  19
ENDBRANCH  15  16
ENDBRANCH  12  15
ENDBRANCH   1  11
BRANCH   8  25
HETATM   25  C   UNL     1       3.718  31.288  58.898  1.00  0.00     0.270 C 
HETATM   26  N   UNL     1       4.977  31.655  59.292  1.00  0.00    -0.365 N 
HETATM   27  H   UNL     1       5.660  31.882  58.580  1.00  0.00     0.159 HD
HETATM   28  H   UNL     1       5.192  31.716  60.274  1.00  0.00     0.159 HD
HETATM   29  O   UNL     1       2.849  31.021  59.721  1.00  0.00    -0.266 OA
ENDBRANCH   8  25
TORSDOF 6
ENDMDL
MODEL 10
REMARK VINA RESULT:      -8.5      5.274      7.473
REMARK  6 active torsions:
REMARK  status: ('A' for Active; 'I' for Inactive)
REMARK    1  A    between atoms: C_2  and  C_3 
REMARK    2  A    between atoms: C_3  and  C_4 
REMARK    3  A    between atoms: C_3  and  C_10 
REMARK    4  A    between atoms: C_10  and  C_11 
REMARK       I    between atoms: C_11  and  N_12 
REMARK    5  A    between atoms: N_12  and  C_13 
REMARK    6  A    between atoms: C_20  and  C_21 
REMARK       I    between atoms: C_21  and  N_22 
ROOT
HETATM    1  C   UNL     1       4.982  26.845  50.419  1.00  0.00     0.035 A 
HETATM    2  C   UNL     1       4.607  28.109  50.895  1.00  0.00     0.046 A 
HETATM    3  C   UNL     1       3.639  28.860  50.192  1.00  0.00     0.030 A 
HETATM    4  C   UNL     1       3.088  28.327  49.032  1.00  0.00     0.063 A 
HETATM    5  N   UNL     1       2.209  29.270  48.580  1.00  0.00    -0.277 N 
HETATM    6  H   UNL     1       1.630  29.221  47.750  1.00  0.00     0.189 HD
HETATM    7  N   UNL     1       2.123  30.366  49.351  1.00  0.00    -0.168 NA
HETATM    8  C   UNL     1       3.000  30.127  50.353  1.00  0.00     0.156 A 
HETATM    9  C   UNL     1       3.439  27.075  48.528  1.00  0.00     0.034 A 
HETATM   10  C   UNL     1       4.391  26.345  49.250  1.00  0.00     0.032 A 
ENDROOT
BRANCH   1  11
HETATM   11  N   UNL     1       5.928  26.010  51.053  1.00  0.00    -0.327 N 
HETATM   12  C   UNL     1       5.755  25.253  52.199  1.00  0.00     0.223 C 
HETATM   13  O   UNL     1       4.722  25.155  52.853  1.00  0.00    -0.273 OA
HETATM   14  H   UNL     1       6.846  26.004  50.632  1.00  0.00     0.169 HD
BRANCH  12  15
HETATM   15  C   UNL     1       6.975  24.428  52.585  1.00  0.00     0.116 C 
BRANCH  15  16
HETATM   16  C   UNL     1       6.977  23.887  54.029  1.00  0.00     0.049 C 
BRANCH  16  17
HETATM   17  C   UNL     1       7.570  24.935  54.961  1.00  0.00    -0.027 C 
HETATM   18  C   UNL     1       6.990  25.536  56.009  1.00  0.00     0.007 C 
ENDBRANCH  16  17
BRANCH  16  19
HETATM   19  C   UNL     1       7.588  22.498  54.160  1.00  0.00    -0.050 A 
HETATM   20  C   UNL     1       8.018  21.768  53.041  1.00  0.00     0.008 A 
HETATM   21  C   UNL     1       8.573  20.495  53.191  1.00  0.00     0.001 A 
HETATM   22  C   UNL     1       8.709  19.936  54.460  1.00  0.00     0.000 A 
HETATM   23  C   UNL     1       8.296  20.651  55.580  1.00  0.00     0.001 A 
HETATM   24  C   UNL     1       7.743  21.925  55.432  1.00  0.00     0.008 A 
ENDBRANCH  16  19
ENDBRANCH  15  16
ENDBRANCH  12  15
ENDBRANCH   1  11
BRANCH   8  25
HETATM   25  C   UNL     1       3.196  31.102  51.435  1.00  0.00     0.270 C 
HETATM   26  N   UNL     1       2.679  30.709  52.641  1.00  0.00    -0.365 N 
HETATM   27  H   UNL     1       2.225  29.805  52.701  1.00  0.00     0.159 HD
HETATM   28  H   UNL     1       2.781  31.306  53.445  1.00  0.00     0.159 HD
HETATM   29  O   UNL     1       3.773  32.177  51.315  1.00  0.00    -0.266 OA
ENDBRANCH   8  25
TORSDOF 6
ENDMDL
