MODEL 1
REMARK VINA RESULT:      -9.1      0.000      0.000
REMARK  4 active torsions:
REMARK  status: ('A' for Active; 'I' for Inactive)
REMARK    1  A    between atoms: N_2  and  C_3 
REMARK    2  A    between atoms: C_5  and  C_6 
REMARK    3  A    between atoms: C_6  and  C_7 
REMARK    4  A    between atoms: C_13  and  O_14 
ROOT
HETATM    1  C   UNL     1       7.650  29.840  58.375  1.00  0.00     0.113 A 
HETATM    2  N   UNL     1       6.652  29.132  57.811  1.00  0.00    -0.223 NA
HETATM    3  C   UNL     1       6.859  28.559  56.596  1.00  0.00     0.106 A 
HETATM    4  N   UNL     1       8.016  28.667  55.922  1.00  0.00    -0.347 N 
HETATM    5  H   UNL     1       8.126  28.236  55.007  1.00  0.00     0.167 HD
HETATM    6  C   UNL     1       9.011  29.347  56.486  1.00  0.00     0.020 A 
HETATM    7  C   UNL     1       8.859  29.944  57.726  1.00  0.00     0.005 A 
HETATM    8  C   UNL     1      10.115  30.651  58.121  1.00  0.00     0.044 C 
HETATM    9  C   UNL     1      11.136  30.014  57.160  1.00  0.00     0.011 C 
HETATM   10  C   UNL     1      10.363  29.594  55.899  1.00  0.00     0.058 C 
ENDROOT
BRANCH   3  11
HETATM   11  C   UNL     1       5.715  27.815  55.966  1.00  0.00     0.085 C 
BRANCH  11  12
HETATM   12  C   UNL     1       5.989  26.311  55.857  1.00  0.00     0.021 C 
HETATM   13  C   UNL     1       7.048  25.813  56.839  1.00  0.00     0.181 C 
HETATM   14  O   UNL     1       7.108  24.387  56.812  1.00  0.00    -0.347 OA
HETATM   15  C   UNL     1       7.316  23.830  55.575  1.00  0.00     0.108 A 
HETATM   16  C   UNL     1       7.014  24.549  54.400  1.00  0.00    -0.021 A 
HETATM   17  C   UNL     1       7.791  22.511  55.488  1.00  0.00     0.102 A 
HETATM   18  C   UNL     1       6.483  25.955  54.452  1.00  0.00     0.048 C 
HETATM   19  C   UNL     1       7.236  23.961  53.146  1.00  0.00     0.010 A 
HETATM   20  C   UNL     1       7.725  22.663  53.058  1.00  0.00     0.003 A 
HETATM   21  C   UNL     1       7.994  21.946  54.221  1.00  0.00     0.039 A 
BRANCH  17  22
HETATM   22  O   UNL     1       8.113  21.644  56.497  1.00  0.00    -0.353 OA
HETATM   23  C   UNL     1       8.881  20.490  56.200  1.00  0.00     0.210 C 
ENDBRANCH  17  22
ENDBRANCH  11  12
ENDBRANCH   3  11
BRANCH   1  24
HETATM   24  N   UNL     1       7.499  30.390  59.643  1.00  0.00    -0.281 NA
HETATM   25  C   UNL     1       6.987  31.752  59.700  1.00  0.00     0.114 C 
HETATM   26  H   UNL     1       8.334  30.280  60.213  1.00  0.00     0.128 HD
ENDBRANCH   1  24
TORSDOF 4
ENDMDL
MODEL 2
REMARK VINA RESULT:      -9.0      2.943      7.337
REMARK  4 active torsions:
REMARK  status: ('A' for Active; 'I' for Inactive)
REMARK    1  A    between atoms: N_2  and  C_3 
REMARK    2  A    between atoms: C_5  and  C_6 
REMARK    3  A    between atoms: C_6  and  C_7 
REMARK    4  A    between atoms: C_13  and  O_14 
ROOT
HETATM    1  C   UNL     1       6.409  24.632  54.065  1.00  0.00     0.113 A 
HETATM    2  N   UNL     1       5.874  25.696  54.697  1.00  0.00    -0.223 NA
HETATM    3  C   UNL     1       6.136  25.872  56.020  1.00  0.00     0.106 A 
HETATM    4  N   UNL     1       6.902  25.032  56.734  1.00  0.00    -0.347 N 
HETATM    5  H   UNL     1       7.060  25.191  57.727  1.00  0.00     0.167 HD
HETATM    6  C   UNL     1       7.448  23.993  56.109  1.00  0.00     0.020 A 
HETATM    7  C   UNL     1       7.223  23.769  54.761  1.00  0.00     0.005 A 
HETATM    8  C   UNL     1       7.938  22.535  54.311  1.00  0.00     0.044 C 
HETATM    9  C   UNL     1       8.946  22.335  55.459  1.00  0.00     0.011 C 
HETATM   10  C   UNL     1       8.314  22.941  56.722  1.00  0.00     0.058 C 
ENDROOT
BRANCH   3  11
HETATM   11  C   UNL     1       5.491  27.040  56.713  1.00  0.00     0.085 C 
BRANCH  11  12
HETATM   12  C   UNL     1       6.518  27.962  57.378  1.00  0.00     0.021 C 
HETATM   13  C   UNL     1       6.076  29.424  57.435  1.00  0.00     0.181 C 
HETATM   14  O   UNL     1       6.986  30.181  58.232  1.00  0.00    -0.347 OA
HETATM   15  C   UNL     1       8.303  30.104  57.854  1.00  0.00     0.108 A 
HETATM   16  C   UNL     1       8.770  29.021  57.080  1.00  0.00    -0.021 A 
HETATM   17  C   UNL     1       9.200  31.094  58.288  1.00  0.00     0.102 A 
HETATM   18  C   UNL     1       7.845  27.930  56.615  1.00  0.00     0.048 C 
HETATM   19  C   UNL     1      10.119  28.964  56.703  1.00  0.00     0.010 A 
HETATM   20  C   UNL     1      11.004  29.953  57.115  1.00  0.00     0.003 A 
HETATM   21  C   UNL     1      10.545  31.005  57.905  1.00  0.00     0.039 A 
BRANCH  17  22
HETATM   22  O   UNL     1       8.956  32.196  59.061  1.00  0.00    -0.353 OA
HETATM   23  C   UNL     1       9.154  32.117  60.463  1.00  0.00     0.210 C 
ENDBRANCH  17  22
ENDBRANCH  11  12
ENDBRANCH   3  11
BRANCH   1  24
HETATM   24  N   UNL     1       6.214  24.450  52.700  1.00  0.00    -0.281 NA
HETATM   25  C   UNL     1       5.024  25.062  52.129  1.00  0.00     0.114 C 
HETATM   26  H   UNL     1       6.302  23.474  52.427  1.00  0.00     0.128 HD
ENDBRANCH   1  24
TORSDOF 4
ENDMDL
MODEL 3
REMARK VINA RESULT:      -8.7      1.750      3.071
REMARK  4 active torsions:
REMARK  status: ('A' for Active; 'I' for Inactive)
REMARK    1  A    between atoms: N_2  and  C_3 
REMARK    2  A    between atoms: C_5  and  C_6 
REMARK    3  A    between atoms: C_6  and  C_7 
REMARK    4  A    between atoms: C_13  and  O_14 
ROOT
HETATM    1  C   UNL     1       8.440  29.048  55.523  1.00  0.00     0.113 A 
HETATM    2  N   UNL     1       8.337  28.180  54.498  1.00  0.00    -0.223 NA
HETATM    3  C   UNL     1       7.154  27.539  54.298  1.00  0.00     0.106 A 
HETATM    4  N   UNL     1       6.077  27.726  55.078  1.00  0.00    -0.347 N 
HETATM    5  H   UNL     1       5.215  27.215  54.904  1.00  0.00     0.167 HD
HETATM    6  C   UNL     1       6.170  28.598  56.078  1.00  0.00     0.020 A 
HETATM    7  C   UNL     1       7.346  29.286  56.323  1.00  0.00     0.005 A 
HETATM    8  C   UNL     1       7.186  30.188  57.505  1.00  0.00     0.044 C 
HETATM    9  C   UNL     1       5.651  30.256  57.627  1.00  0.00     0.011 C 
HETATM   10  C   UNL     1       5.098  28.937  57.063  1.00  0.00     0.058 C 
ENDROOT
BRANCH   3  11
HETATM   11  C   UNL     1       7.078  26.541  53.176  1.00  0.00     0.085 C 
BRANCH  11  12
HETATM   12  C   UNL     1       6.978  25.099  53.685  1.00  0.00     0.021 C 
HETATM   13  C   UNL     1       7.577  24.903  55.077  1.00  0.00     0.181 C 
HETATM   14  O   UNL     1       7.276  23.594  55.560  1.00  0.00    -0.347 OA
HETATM   15  C   UNL     1       7.655  22.563  54.738  1.00  0.00     0.108 A 
HETATM   16  C   UNL     1       7.868  22.779  53.360  1.00  0.00    -0.021 A 
HETATM   17  C   UNL     1       7.783  21.271  55.273  1.00  0.00     0.102 A 
HETATM   18  C   UNL     1       7.719  24.144  52.746  1.00  0.00     0.048 C 
HETATM   19  C   UNL     1       8.257  21.712  52.538  1.00  0.00     0.010 A 
HETATM   20  C   UNL     1       8.403  20.435  53.070  1.00  0.00     0.003 A 
HETATM   21  C   UNL     1       8.162  20.221  54.425  1.00  0.00     0.039 A 
BRANCH  17  22
HETATM   22  O   UNL     1       7.594  20.851  56.561  1.00  0.00    -0.353 OA
HETATM   23  C   UNL     1       8.508  21.259  57.565  1.00  0.00     0.210 C 
ENDBRANCH  17  22
ENDBRANCH  11  12
ENDBRANCH   3  11
BRANCH   1  24
HETATM   24  N   UNL     1       9.612  29.768  55.726  1.00  0.00    -0.281 NA
HETATM   25  C   UNL     1      10.535  29.236  56.717  1.00  0.00     0.114 C 
HETATM   26  H   UNL     1       9.435  30.758  55.872  1.00  0.00     0.128 HD
ENDBRANCH   1  24
TORSDOF 4
ENDMDL
MODEL 4
REMARK VINA RESULT:      -8.5      1.714      2.536
REMARK  4 active torsions:
REMARK  status: ('A' for Active; 'I' for Inactive)
REMARK    1  A    between atoms: N_2  and  C_3 
REMARK    2  A    between atoms: C_5  and  C_6 
REMARK    3  A    between atoms: C_6  and  C_7 
REMARK    4  A    between atoms: C_13  and  O_14 
ROOT
HETATM    1  C   UNL     1       5.911  29.179  57.076  1.00  0.00     0.113 A 
HETATM    2  N   UNL     1       5.757  28.467  55.941  1.00  0.00    -0.223 NA
HETATM    3  C   UNL     1       6.853  28.196  55.184  1.00  0.00     0.106 A 
HETATM    4  N   UNL     1       8.090  28.607  55.508  1.00  0.00    -0.347 N 
HETATM    5  H   UNL     1       8.882  28.396  54.906  1.00  0.00     0.167 HD
HETATM    6  C   UNL     1       8.248  29.291  56.638  1.00  0.00     0.020 A 
HETATM    7  C   UNL     1       7.170  29.589  57.453  1.00  0.00     0.005 A 
HETATM    8  C   UNL     1       7.617  30.372  58.645  1.00  0.00     0.044 C 
HETATM    9  C   UNL     1       9.134  30.103  58.631  1.00  0.00     0.011 C 
HETATM   10  C   UNL     1       9.530  29.847  57.168  1.00  0.00     0.058 C 
ENDROOT
BRANCH   3  11
HETATM   11  C   UNL     1       6.649  27.441  53.900  1.00  0.00     0.085 C 
BRANCH  11  12
HETATM   12  C   UNL     1       7.195  26.011  53.971  1.00  0.00     0.021 C 
HETATM   13  C   UNL     1       6.308  24.985  53.268  1.00  0.00     0.181 C 
HETATM   14  O   UNL     1       6.971  23.723  53.209  1.00  0.00    -0.347 OA
HETATM   15  C   UNL     1       7.397  23.225  54.414  1.00  0.00     0.108 A 
HETATM   16  C   UNL     1       7.598  24.081  55.518  1.00  0.00    -0.021 A 
HETATM   17  C   UNL     1       7.679  21.854  54.530  1.00  0.00     0.102 A 
HETATM   18  C   UNL     1       7.329  25.558  55.427  1.00  0.00     0.048 C 
HETATM   19  C   UNL     1       8.032  23.551  56.741  1.00  0.00     0.010 A 
HETATM   20  C   UNL     1       8.293  22.191  56.863  1.00  0.00     0.003 A 
HETATM   21  C   UNL     1       8.122  21.355  55.762  1.00  0.00     0.039 A 
BRANCH  17  22
HETATM   22  O   UNL     1       7.579  20.873  53.582  1.00  0.00    -0.353 OA
HETATM   23  C   UNL     1       8.754  20.410  52.937  1.00  0.00     0.210 C 
ENDBRANCH  17  22
ENDBRANCH  11  12
ENDBRANCH   3  11
BRANCH   1  24
HETATM   24  N   UNL     1       4.825  29.426  57.909  1.00  0.00    -0.281 NA
HETATM   25  C   UNL     1       3.895  30.456  57.469  1.00  0.00     0.114 C 
HETATM   26  H   UNL     1       5.107  29.563  58.876  1.00  0.00     0.128 HD
ENDBRANCH   1  24
TORSDOF 4
ENDMDL
MODEL 5
REMARK VINA RESULT:      -8.4      1.842      3.704
REMARK  4 active torsions:
REMARK  status: ('A' for Active; 'I' for Inactive)
REMARK    1  A    between atoms: N_2  and  C_3 
REMARK    2  A    between atoms: C_5  and  C_6 
REMARK    3  A    between atoms: C_6  and  C_7 
REMARK    4  A    between atoms: C_13  and  O_14 
ROOT
HETATM    1  C   UNL     1       9.426  31.012  58.483  1.00  0.00     0.113 A 
HETATM    2  N   UNL     1       8.495  30.508  57.650  1.00  0.00    -0.223 NA
HETATM    3  C   UNL     1       7.222  30.356  58.104  1.00  0.00     0.106 A 
HETATM    4  N   UNL     1       6.845  30.681  59.351  1.00  0.00    -0.347 N 
HETATM    5  H   UNL     1       5.885  30.537  59.657  1.00  0.00     0.167 HD
HETATM    6  C   UNL     1       7.757  31.199  60.169  1.00  0.00     0.020 A 
HETATM    7  C   UNL     1       9.066  31.385  59.757  1.00  0.00     0.005 A 
HETATM    8  C   UNL     1       9.884  31.966  60.866  1.00  0.00     0.044 C 
HETATM    9  C   UNL     1       8.784  32.495  61.807  1.00  0.00     0.011 C 
HETATM   10  C   UNL     1       7.546  31.611  61.590  1.00  0.00     0.058 C 
ENDROOT
BRANCH   3  11
HETATM   11  C   UNL     1       6.212  29.748  57.171  1.00  0.00     0.085 C 
BRANCH  11  12
HETATM   12  C   UNL     1       6.753  28.506  56.456  1.00  0.00     0.021 C 
HETATM   13  C   UNL     1       5.698  27.772  55.629  1.00  0.00     0.181 C 
HETATM   14  O   UNL     1       6.313  26.750  54.846  1.00  0.00    -0.347 OA
HETATM   15  C   UNL     1       7.070  25.846  55.548  1.00  0.00     0.108 A 
HETATM   16  C   UNL     1       7.585  26.170  56.820  1.00  0.00    -0.021 A 
HETATM   17  C   UNL     1       7.371  24.605  54.965  1.00  0.00     0.102 A 
HETATM   18  C   UNL     1       7.303  27.498  57.468  1.00  0.00     0.048 C 
HETATM   19  C   UNL     1       8.355  25.231  57.521  1.00  0.00     0.010 A 
HETATM   20  C   UNL     1       8.637  23.994  56.954  1.00  0.00     0.003 A 
HETATM   21  C   UNL     1       8.152  23.689  55.684  1.00  0.00     0.039 A 
BRANCH  17  22
HETATM   22  O   UNL     1       6.998  24.115  53.743  1.00  0.00    -0.353 OA
HETATM   23  C   UNL     1       7.965  24.020  52.710  1.00  0.00     0.210 C 
ENDBRANCH  17  22
ENDBRANCH  11  12
ENDBRANCH   3  11
BRANCH   1  24
HETATM   24  N   UNL     1      10.724  31.239  58.038  1.00  0.00    -0.281 NA
HETATM   25  C   UNL     1      11.356  30.152  57.305  1.00  0.00     0.114 C 
HETATM   26  H   UNL     1      11.327  31.594  58.776  1.00  0.00     0.128 HD
ENDBRANCH   1  24
TORSDOF 4
ENDMDL
MODEL 6
REMARK VINA RESULT:      -8.4      4.269      9.348
REMARK  4 active torsions:
REMARK  status: ('A' for Active; 'I' for Inactive)
REMARK    1  A    between atoms: N_2  and  C_3 
REMARK    2  A    between atoms: C_5  and  C_6 
REMARK    3  A    between atoms: C_6  and  C_7 
REMARK    4  A    between atoms: C_13  and  O_14 
ROOT
HETATM    1  C   UNL     1       8.611  29.164  57.297  1.00  0.00     0.113 A 
HETATM    2  N   UNL     1       8.146  30.354  57.727  1.00  0.00    -0.223 NA
HETATM    3  C   UNL     1       6.815  30.490  57.965  1.00  0.00     0.106 A 
HETATM    4  N   UNL     1       5.932  29.494  57.788  1.00  0.00    -0.347 N 
HETATM    5  H   UNL     1       4.941  29.641  57.962  1.00  0.00     0.167 HD
HETATM    6  C   UNL     1       6.391  28.312  57.383  1.00  0.00     0.020 A 
HETATM    7  C   UNL     1       7.738  28.113  57.134  1.00  0.00     0.005 A 
HETATM    8  C   UNL     1       7.983  26.709  56.682  1.00  0.00     0.044 C 
HETATM    9  C   UNL     1       6.680  26.017  57.128  1.00  0.00     0.011 C 
HETATM   10  C   UNL     1       5.578  27.088  57.115  1.00  0.00     0.058 C 
ENDROOT
BRANCH   3  11
HETATM   11  C   UNL     1       6.314  31.839  58.400  1.00  0.00     0.085 C 
BRANCH  11  12
HETATM   12  C   UNL     1       6.021  31.895  59.903  1.00  0.00     0.021 C 
HETATM   13  C   UNL     1       4.894  32.861  60.267  1.00  0.00     0.181 C 
HETATM   14  O   UNL     1       4.551  32.716  61.645  1.00  0.00    -0.347 OA
HETATM   15  C   UNL     1       5.592  32.856  62.528  1.00  0.00     0.108 A 
HETATM   16  C   UNL     1       6.926  32.674  62.106  1.00  0.00    -0.021 A 
HETATM   17  C   UNL     1       5.315  33.138  63.875  1.00  0.00     0.102 A 
HETATM   18  C   UNL     1       7.261  32.350  60.677  1.00  0.00     0.048 C 
HETATM   19  C   UNL     1       7.974  32.824  63.025  1.00  0.00     0.010 A 
HETATM   20  C   UNL     1       7.703  33.122  64.356  1.00  0.00     0.003 A 
HETATM   21  C   UNL     1       6.383  33.271  64.774  1.00  0.00     0.039 A 
BRANCH  17  22
HETATM   22  O   UNL     1       4.103  33.320  64.485  1.00  0.00    -0.353 OA
HETATM   23  C   UNL     1       3.702  34.629  64.852  1.00  0.00     0.210 C 
ENDBRANCH  17  22
ENDBRANCH  11  12
ENDBRANCH   3  11
BRANCH   1  24
HETATM   24  N   UNL     1       9.974  28.966  57.100  1.00  0.00    -0.281 NA
HETATM   25  C   UNL     1      10.835  30.115  57.340  1.00  0.00     0.114 C 
HETATM   26  H   UNL     1      10.173  28.529  56.204  1.00  0.00     0.128 HD
ENDBRANCH   1  24
TORSDOF 4
ENDMDL
MODEL 7
REMARK VINA RESULT:      -8.3      4.604      7.575
REMARK  4 active torsions:
REMARK  status: ('A' for Active; 'I' for Inactive)
REMARK    1  A    between atoms: N_2  and  C_3 
REMARK    2  A    between atoms: C_5  and  C_6 
REMARK    3  A    between atoms: C_6  and  C_7 
REMARK    4  A    between atoms: C_13  and  O_14 
ROOT
HETATM    1  C   UNL     1       7.982  23.940  55.548  1.00  0.00     0.113 A 
HETATM    2  N   UNL     1       6.934  24.705  55.184  1.00  0.00    -0.223 NA
HETATM    3  C   UNL     1       6.260  24.396  54.045  1.00  0.00     0.106 A 
HETATM    4  N   UNL     1       6.589  23.361  53.256  1.00  0.00    -0.347 N 
HETATM    5  H   UNL     1       6.069  23.173  52.402  1.00  0.00     0.167 HD
HETATM    6  C   UNL     1       7.610  22.591  53.622  1.00  0.00     0.020 A 
HETATM    7  C   UNL     1       8.327  22.853  54.777  1.00  0.00     0.005 A 
HETATM    8  C   UNL     1       9.423  21.851  54.950  1.00  0.00     0.044 C 
HETATM    9  C   UNL     1       8.964  20.735  53.992  1.00  0.00     0.011 C 
HETATM   10  C   UNL     1       8.142  21.408  52.881  1.00  0.00     0.058 C 
ENDROOT
BRANCH   3  11
HETATM   11  C   UNL     1       5.124  25.292  53.637  1.00  0.00     0.085 C 
BRANCH  11  12
HETATM   12  C   UNL     1       5.561  26.368  52.636  1.00  0.00     0.021 C 
HETATM   13  C   UNL     1       5.176  27.784  53.059  1.00  0.00     0.181 C 
HETATM   14  O   UNL     1       5.780  28.738  52.185  1.00  0.00    -0.347 OA
HETATM   15  C   UNL     1       5.518  28.560  50.850  1.00  0.00     0.108 A 
HETATM   16  C   UNL     1       5.111  27.303  50.356  1.00  0.00    -0.021 A 
HETATM   17  C   UNL     1       5.707  29.634  49.965  1.00  0.00     0.102 A 
HETATM   18  C   UNL     1       4.919  26.123  51.268  1.00  0.00     0.048 C 
HETATM   19  C   UNL     1       4.847  27.144  48.988  1.00  0.00     0.010 A 
HETATM   20  C   UNL     1       5.014  28.211  48.113  1.00  0.00     0.003 A 
HETATM   21  C   UNL     1       5.446  29.442  48.601  1.00  0.00     0.039 A 
BRANCH  17  22
HETATM   22  O   UNL     1       6.121  30.909  50.236  1.00  0.00    -0.353 OA
HETATM   23  C   UNL     1       6.064  31.889  49.213  1.00  0.00     0.210 C 
ENDBRANCH  17  22
ENDBRANCH  11  12
ENDBRANCH   3  11
BRANCH   1  24
HETATM   24  N   UNL     1       8.660  24.187  56.737  1.00  0.00    -0.281 NA
HETATM   25  C   UNL     1       8.350  25.439  57.410  1.00  0.00     0.114 C 
HETATM   26  H   UNL     1       9.663  24.050  56.642  1.00  0.00     0.128 HD
ENDBRANCH   1  24
TORSDOF 4
ENDMDL
MODEL 8
REMARK VINA RESULT:      -8.3      4.295      9.488
REMARK  4 active torsions:
REMARK  status: ('A' for Active; 'I' for Inactive)
REMARK    1  A    between atoms: N_2  and  C_3 
REMARK    2  A    between atoms: C_5  and  C_6 
REMARK    3  A    between atoms: C_6  and  C_7 
REMARK    4  A    between atoms: C_13  and  O_14 
ROOT
HETATM    1  C   UNL     1       6.316  30.081  56.553  1.00  0.00     0.113 A 
HETATM    2  N   UNL     1       6.858  30.975  57.403  1.00  0.00    -0.223 NA
HETATM    3  C   UNL     1       7.710  30.533  58.365  1.00  0.00     0.106 A 
HETATM    4  N   UNL     1       8.038  29.240  58.516  1.00  0.00    -0.347 N 
HETATM    5  H   UNL     1       8.667  28.947  59.260  1.00  0.00     0.167 HD
HETATM    6  C   UNL     1       7.521  28.357  57.666  1.00  0.00     0.020 A 
HETATM    7  C   UNL     1       6.655  28.751  56.661  1.00  0.00     0.005 A 
HETATM    8  C   UNL     1       6.213  27.570  55.859  1.00  0.00     0.044 C 
HETATM    9  C   UNL     1       7.273  26.524  56.254  1.00  0.00     0.011 C 
HETATM   10  C   UNL     1       7.748  26.880  57.672  1.00  0.00     0.058 C 
ENDROOT
BRANCH   3  11
HETATM   11  C   UNL     1       8.265  31.544  59.330  1.00  0.00     0.085 C 
BRANCH  11  12
HETATM   12  C   UNL     1       7.396  31.691  60.583  1.00  0.00     0.021 C 
HETATM   13  C   UNL     1       6.152  32.552  60.363  1.00  0.00     0.181 C 
HETATM   14  O   UNL     1       5.301  32.484  61.507  1.00  0.00    -0.347 OA
HETATM   15  C   UNL     1       5.893  32.812  62.701  1.00  0.00     0.108 A 
HETATM   16  C   UNL     1       7.294  32.745  62.854  1.00  0.00    -0.021 A 
HETATM   17  C   UNL     1       5.085  33.172  63.791  1.00  0.00     0.102 A 
HETATM   18  C   UNL     1       8.191  32.343  61.717  1.00  0.00     0.048 C 
HETATM   19  C   UNL     1       7.878  33.087  64.083  1.00  0.00     0.010 A 
HETATM   20  C   UNL     1       7.080  33.462  65.158  1.00  0.00     0.003 A 
HETATM   21  C   UNL     1       5.696  33.497  65.010  1.00  0.00     0.039 A 
BRANCH  17  22
HETATM   22  O   UNL     1       3.721  33.267  63.857  1.00  0.00    -0.353 OA
HETATM   23  C   UNL     1       3.087  34.452  63.405  1.00  0.00     0.210 C 
ENDBRANCH  17  22
ENDBRANCH  11  12
ENDBRANCH   3  11
BRANCH   1  24
HETATM   24  N   UNL     1       5.487  30.500  55.518  1.00  0.00    -0.281 NA
HETATM   25  C   UNL     1       4.064  30.572  55.817  1.00  0.00     0.114 C 
HETATM   26  H   UNL     1       5.664  29.992  54.655  1.00  0.00     0.128 HD
ENDBRANCH   1  24
TORSDOF 4
ENDMDL
MODEL 9
REMARK VINA RESULT:      -8.3      4.813      7.597
REMARK  4 active torsions:
REMARK  status: ('A' for Active; 'I' for Inactive)
REMARK    1  A    between atoms: N_2  and  C_3 
REMARK    2  A    between atoms: C_5  and  C_6 
REMARK    3  A    between atoms: C_6  and  C_7 
REMARK    4  A    between atoms: C_13  and  O_14 
ROOT
HETATM    1  C   UNL     1       7.720  23.106  54.594  1.00  0.00     0.113 A 
HETATM    2  N   UNL     1       6.840  23.454  53.635  1.00  0.00    -0.223 NA
HETATM    3  C   UNL     1       5.993  24.492  53.868  1.00  0.00     0.106 A 
HETATM    4  N   UNL     1       5.988  25.191  55.015  1.00  0.00    -0.347 N 
HETATM    5  H   UNL     1       5.327  25.952  55.156  1.00  0.00     0.167 HD
HETATM    6  C   UNL     1       6.870  24.863  55.955  1.00  0.00     0.020 A 
HETATM    7  C   UNL     1       7.762  23.821  55.769  1.00  0.00     0.005 A 
HETATM    8  C   UNL     1       8.629  23.654  56.975  1.00  0.00     0.044 C 
HETATM    9  C   UNL     1       8.418  25.005  57.686  1.00  0.00     0.011 C 
HETATM   10  C   UNL     1       7.017  25.502  57.297  1.00  0.00     0.058 C 
ENDROOT
BRANCH   3  11
HETATM   11  C   UNL     1       4.989  24.832  52.802  1.00  0.00     0.085 C 
BRANCH  11  12
HETATM   12  C   UNL     1       5.444  26.003  51.925  1.00  0.00     0.021 C 
HETATM   13  C   UNL     1       5.102  27.372  52.512  1.00  0.00     0.181 C 
HETATM   14  O   UNL     1       5.721  28.403  51.745  1.00  0.00    -0.347 OA
HETATM   15  C   UNL     1       5.441  28.386  50.402  1.00  0.00     0.108 A 
HETATM   16  C   UNL     1       4.995  27.205  49.773  1.00  0.00    -0.021 A 
HETATM   17  C   UNL     1       5.648  29.550  49.644  1.00  0.00     0.102 A 
HETATM   18  C   UNL     1       4.781  25.934  50.547  1.00  0.00     0.048 C 
HETATM   19  C   UNL     1       4.711  27.211  48.399  1.00  0.00     0.010 A 
HETATM   20  C   UNL     1       4.898  28.367  47.650  1.00  0.00     0.003 A 
HETATM   21  C   UNL     1       5.367  29.523  48.270  1.00  0.00     0.039 A 
BRANCH  17  22
HETATM   22  O   UNL     1       6.099  30.775  50.053  1.00  0.00    -0.353 OA
HETATM   23  C   UNL     1       5.170  31.725  50.548  1.00  0.00     0.210 C 
ENDBRANCH  17  22
ENDBRANCH  11  12
ENDBRANCH   3  11
BRANCH   1  24
HETATM   24  N   UNL     1       8.643  22.089  54.371  1.00  0.00    -0.281 NA
HETATM   25  C   UNL     1       8.154  20.727  54.531  1.00  0.00     0.114 C 
HETATM   26  H   UNL     1       9.510  22.238  54.881  1.00  0.00     0.128 HD
ENDBRANCH   1  24
TORSDOF 4
ENDMDL
MODEL 10
REMARK VINA RESULT:      -8.2      9.957     13.648
REMARK  4 active torsions:
REMARK  status: ('A' for Active; 'I' for Inactive)
REMARK    1  A    between atoms: N_2  and  C_3 
REMARK    2  A    between atoms: C_5  and  C_6 
REMARK    3  A    between atoms: C_6  and  C_7 
REMARK    4  A    between atoms: C_13  and  O_14 
ROOT
HETATM    1  C   UNL     1       7.399  35.302  69.819  1.00  0.00     0.113 A 
HETATM    2  N   UNL     1       6.419  35.543  68.926  1.00  0.00    -0.223 NA
HETATM    3  C   UNL     1       5.506  34.567  68.675  1.00  0.00     0.106 A 
HETATM    4  N   UNL     1       5.534  33.365  69.273  1.00  0.00    -0.347 N 
HETATM    5  H   UNL     1       4.841  32.656  69.046  1.00  0.00     0.167 HD
HETATM    6  C   UNL     1       6.488  33.131  70.171  1.00  0.00     0.020 A 
HETATM    7  C   UNL     1       7.438  34.091  70.473  1.00  0.00     0.005 A 
HETATM    8  C   UNL     1       8.397  33.573  71.497  1.00  0.00     0.044 C 
HETATM    9  C   UNL     1       7.615  32.370  72.059  1.00  0.00     0.011 C 
HETATM   10  C   UNL     1       6.701  31.863  70.932  1.00  0.00     0.058 C 
ENDROOT
BRANCH   3  11
HETATM   11  C   UNL     1       4.450  34.843  67.641  1.00  0.00     0.085 C 
BRANCH  11  12
HETATM   12  C   UNL     1       5.011  34.819  66.215  1.00  0.00     0.021 C 
HETATM   13  C   UNL     1       3.973  34.439  65.161  1.00  0.00     0.181 C 
HETATM   14  O   UNL     1       4.513  34.625  63.853  1.00  0.00    -0.347 OA
HETATM   15  C   UNL     1       5.693  33.971  63.605  1.00  0.00     0.108 A 
HETATM   16  C   UNL     1       6.529  33.565  64.666  1.00  0.00    -0.021 A 
HETATM   17  C   UNL     1       6.090  33.750  62.276  1.00  0.00     0.102 A 
HETATM   18  C   UNL     1       6.151  33.803  66.102  1.00  0.00     0.048 C 
HETATM   19  C   UNL     1       7.731  32.896  64.391  1.00  0.00     0.010 A 
HETATM   20  C   UNL     1       8.115  32.659  63.076  1.00  0.00     0.003 A 
HETATM   21  C   UNL     1       7.301  33.089  62.031  1.00  0.00     0.039 A 
BRANCH  17  22
HETATM   22  O   UNL     1       5.444  34.090  61.118  1.00  0.00    -0.353 OA
HETATM   23  C   UNL     1       4.734  33.092  60.403  1.00  0.00     0.210 C 
ENDBRANCH  17  22
ENDBRANCH  11  12
ENDBRANCH   3  11
BRANCH   1  24
HETATM   24  N   UNL     1       8.316  36.294  70.148  1.00  0.00    -0.281 NA
HETATM   25  C   UNL     1       7.907  37.236  71.180  1.00  0.00     0.114 C 
HETATM   26  H   UNL     1       8.676  36.772  69.327  1.00  0.00     0.128 HD
ENDBRANCH   1  24
TORSDOF 4
ENDMDL
