MODEL 1
REMARK VINA RESULT:      -9.0      0.000      0.000
REMARK  5 active torsions:
REMARK  status: ('A' for Active; 'I' for Inactive)
REMARK    1  A    between atoms: C_6  and  N_7 
REMARK       I    between atoms: N_7  and  C_8 
REMARK    2  A    between atoms: C_8  and  C_9 
REMARK    3  A    between atoms: C_9  and  O_10 
REMARK    4  A    between atoms: O_10  and  C_11 
REMARK    5  A    between atoms: C_19  and  C_20 
ROOT
HETATM    1  C   UNL     1       9.115  21.949  54.033  1.00  0.00     0.073 C 
HETATM    2  C   UNL     1       8.484  22.650  55.178  1.00  0.00     0.065 A 
HETATM    3  N   UNL     1       8.724  22.239  56.430  1.00  0.00    -0.177 NA
HETATM    4  N   UNL     1       7.987  23.064  57.190  1.00  0.00    -0.262 N 
HETATM    5  H   UNL     1       8.033  22.953  58.198  1.00  0.00     0.191 HD
HETATM    6  C   UNL     1       7.290  24.007  56.481  1.00  0.00     0.137 A 
HETATM    7  C   UNL     1       7.593  23.758  55.154  1.00  0.00     0.046 A 
ENDROOT
BRANCH   6   8
HETATM    8  N   UNL     1       6.528  25.021  57.025  1.00  0.00    -0.309 N 
HETATM    9  C   UNL     1       6.810  26.359  57.100  1.00  0.00     0.247 C 
HETATM   10  O   UNL     1       5.892  27.143  57.359  1.00  0.00    -0.271 OA
HETATM   11  H   UNL     1       5.617  24.772  57.395  1.00  0.00     0.170 HD
BRANCH   9  12
HETATM   12  C   UNL     1       8.262  26.835  57.062  1.00  0.00     0.278 C 
BRANCH  12  13
HETATM   13  O   UNL     1       8.456  28.063  56.380  1.00  0.00    -0.342 OA
BRANCH  13  14
HETATM   14  C   UNL     1       8.877  29.115  57.158  1.00  0.00     0.069 A 
HETATM   15  C   UNL     1      10.155  29.597  56.855  1.00  0.00     0.040 A 
HETATM   16  C   UNL     1      10.705  30.654  57.584  1.00  0.00     0.045 A 
HETATM   17  C   UNL     1       9.972  31.230  58.613  1.00  0.00     0.116 A 
HETATM   18  F   UNL     1      10.495  32.244  59.313  1.00  0.00    -0.206 F 
HETATM   19  C   UNL     1       8.700  30.767  58.924  1.00  0.00     0.045 A 
HETATM   20  C   UNL     1       8.149  29.708  58.196  1.00  0.00     0.040 A 
ENDBRANCH  13  14
ENDBRANCH  12  13
ENDBRANCH   9  12
ENDBRANCH   6   8
BRANCH   7  21
HETATM   21  C   UNL     1       6.946  24.410  54.034  1.00  0.00    -0.020 A 
HETATM   22  C   UNL     1       5.553  24.519  53.962  1.00  0.00     0.014 A 
HETATM   23  C   UNL     1       4.955  25.097  52.838  1.00  0.00     0.020 A 
HETATM   24  C   UNL     1       5.749  25.568  51.794  1.00  0.00     0.011 A 
HETATM   25 BR   UNL     1       4.938  26.329  50.264  1.00  0.00    -0.051 Br
HETATM   26  C   UNL     1       7.137  25.478  51.863  1.00  0.00     0.020 A 
HETATM   27  C   UNL     1       7.734  24.899  52.984  1.00  0.00     0.014 A 
ENDBRANCH   7  21
TORSDOF 5
ENDMDL
MODEL 2
REMARK VINA RESULT:      -9.0      3.126      3.674
REMARK  5 active torsions:
REMARK  status: ('A' for Active; 'I' for Inactive)
REMARK    1  A    between atoms: C_6  and  N_7 
REMARK       I    between atoms: N_7  and  C_8 
REMARK    2  A    between atoms: C_8  and  C_9 
REMARK    3  A    between atoms: C_9  and  O_10 
REMARK    4  A    between atoms: O_10  and  C_11 
REMARK    5  A    between atoms: C_19  and  C_20 
ROOT
HETATM    1  C   UNL     1       7.594  20.466  53.248  1.00  0.00     0.073 C 
HETATM    2  C   UNL     1       8.097  21.295  54.371  1.00  0.00     0.065 A 
HETATM    3  N   UNL     1       8.650  20.709  55.440  1.00  0.00    -0.177 NA
HETATM    4  N   UNL     1       8.959  21.735  56.249  1.00  0.00    -0.262 N 
HETATM    5  H   UNL     1       9.423  21.527  57.129  1.00  0.00     0.191 HD
HETATM    6  C   UNL     1       8.643  22.966  55.739  1.00  0.00     0.137 A 
HETATM    7  C   UNL     1       8.070  22.710  54.506  1.00  0.00     0.046 A 
ENDROOT
BRANCH   6   8
HETATM    8  N   UNL     1       8.932  24.180  56.330  1.00  0.00    -0.309 N 
HETATM    9  C   UNL     1       8.125  24.968  57.107  1.00  0.00     0.247 C 
HETATM   10  O   UNL     1       8.643  25.866  57.777  1.00  0.00    -0.271 OA
HETATM   11  H   UNL     1       9.872  24.542  56.218  1.00  0.00     0.170 HD
BRANCH   9  12
HETATM   12  C   UNL     1       6.605  24.858  56.984  1.00  0.00     0.278 C 
BRANCH  12  13
HETATM   13  O   UNL     1       5.908  26.064  57.247  1.00  0.00    -0.342 OA
BRANCH  13  14
HETATM   14  C   UNL     1       5.814  26.938  56.190  1.00  0.00     0.069 A 
HETATM   15  C   UNL     1       4.527  27.429  55.946  1.00  0.00     0.040 A 
HETATM   16  C   UNL     1       4.295  28.314  54.890  1.00  0.00     0.045 A 
HETATM   17  C   UNL     1       5.354  28.710  54.084  1.00  0.00     0.116 A 
HETATM   18  F   UNL     1       5.136  29.559  53.072  1.00  0.00    -0.206 F 
HETATM   19  C   UNL     1       6.638  28.236  54.315  1.00  0.00     0.045 A 
HETATM   20  C   UNL     1       6.872  27.349  55.371  1.00  0.00     0.040 A 
ENDBRANCH  13  14
ENDBRANCH  12  13
ENDBRANCH   9  12
ENDBRANCH   6   8
BRANCH   7  21
HETATM   21  C   UNL     1       7.432  23.714  53.680  1.00  0.00    -0.020 A 
HETATM   22  C   UNL     1       6.077  24.029  53.835  1.00  0.00     0.014 A 
HETATM   23  C   UNL     1       5.473  24.956  52.980  1.00  0.00     0.020 A 
HETATM   24  C   UNL     1       6.224  25.568  51.977  1.00  0.00     0.011 A 
HETATM   25 BR   UNL     1       5.401  26.805  50.807  1.00  0.00    -0.051 Br
HETATM   26  C   UNL     1       7.577  25.272  51.825  1.00  0.00     0.020 A 
HETATM   27  C   UNL     1       8.179  24.345  52.677  1.00  0.00     0.014 A 
ENDBRANCH   7  21
TORSDOF 5
ENDMDL
MODEL 3
REMARK VINA RESULT:      -8.8      3.763      6.364
REMARK  5 active torsions:
REMARK  status: ('A' for Active; 'I' for Inactive)
REMARK    1  A    between atoms: C_6  and  N_7 
REMARK       I    between atoms: N_7  and  C_8 
REMARK    2  A    between atoms: C_8  and  C_9 
REMARK    3  A    between atoms: C_9  and  O_10 
REMARK    4  A    between atoms: O_10  and  C_11 
REMARK    5  A    between atoms: C_19  and  C_20 
ROOT
HETATM    1  C   UNL     1       9.641  29.395  55.279  1.00  0.00     0.073 C 
HETATM    2  C   UNL     1       8.691  28.649  56.142  1.00  0.00     0.065 A 
HETATM    3  N   UNL     1       8.957  28.488  57.444  1.00  0.00    -0.177 NA
HETATM    4  N   UNL     1       7.923  27.761  57.899  1.00  0.00    -0.262 N 
HETATM    5  H   UNL     1       7.898  27.534  58.888  1.00  0.00     0.191 HD
HETATM    6  C   UNL     1       6.988  27.459  56.945  1.00  0.00     0.137 A 
HETATM    7  C   UNL     1       7.467  28.026  55.777  1.00  0.00     0.046 A 
ENDROOT
BRANCH   6   8
HETATM    8  N   UNL     1       5.797  26.799  57.167  1.00  0.00    -0.309 N 
HETATM    9  C   UNL     1       5.475  25.496  56.894  1.00  0.00     0.247 C 
HETATM   10  O   UNL     1       4.469  25.012  57.422  1.00  0.00    -0.271 OA
HETATM   11  H   UNL     1       5.055  27.317  57.625  1.00  0.00     0.170 HD
BRANCH   9  12
HETATM   12  C   UNL     1       6.234  24.735  55.808  1.00  0.00     0.278 C 
BRANCH  12  13
HETATM   13  O   UNL     1       7.115  23.738  56.299  1.00  0.00    -0.342 OA
BRANCH  13  14
HETATM   14  C   UNL     1       7.463  22.758  55.401  1.00  0.00     0.069 A 
HETATM   15  C   UNL     1       7.561  23.185  54.072  1.00  0.00     0.040 A 
HETATM   16  C   UNL     1       7.892  22.281  53.060  1.00  0.00     0.045 A 
HETATM   17  C   UNL     1       8.130  20.951  53.381  1.00  0.00     0.116 A 
HETATM   18  F   UNL     1       8.449  20.082  52.414  1.00  0.00    -0.206 F 
HETATM   19  C   UNL     1       8.042  20.512  54.695  1.00  0.00     0.045 A 
HETATM   20  C   UNL     1       7.709  21.415  55.709  1.00  0.00     0.040 A 
ENDBRANCH  13  14
ENDBRANCH  12  13
ENDBRANCH   9  12
ENDBRANCH   6   8
BRANCH   7  21
HETATM   21  C   UNL     1       6.881  27.816  54.469  1.00  0.00    -0.020 A 
HETATM   22  C   UNL     1       5.732  28.506  54.068  1.00  0.00     0.014 A 
HETATM   23  C   UNL     1       5.152  28.234  52.825  1.00  0.00     0.020 A 
HETATM   24  C   UNL     1       5.726  27.281  51.984  1.00  0.00     0.011 A 
HETATM   25 BR   UNL     1       4.929  26.898  50.313  1.00  0.00    -0.051 Br
HETATM   26  C   UNL     1       6.879  26.600  52.368  1.00  0.00     0.020 A 
HETATM   27  C   UNL     1       7.456  26.869  53.610  1.00  0.00     0.014 A 
ENDBRANCH   7  21
TORSDOF 5
ENDMDL
MODEL 4
REMARK VINA RESULT:      -8.8      2.625      3.972
REMARK  5 active torsions:
REMARK  status: ('A' for Active; 'I' for Inactive)
REMARK    1  A    between atoms: C_6  and  N_7 
REMARK       I    between atoms: N_7  and  C_8 
REMARK    2  A    between atoms: C_8  and  C_9 
REMARK    3  A    between atoms: C_9  and  O_10 
REMARK    4  A    between atoms: O_10  and  C_11 
REMARK    5  A    between atoms: C_19  and  C_20 
ROOT
HETATM    1  C   UNL     1       5.513  26.355  51.586  1.00  0.00     0.073 C 
HETATM    2  C   UNL     1       6.145  26.947  52.791  1.00  0.00     0.065 A 
HETATM    3  N   UNL     1       6.107  28.272  52.984  1.00  0.00    -0.177 NA
HETATM    4  N   UNL     1       6.782  28.452  54.130  1.00  0.00    -0.262 N 
HETATM    5  H   UNL     1       6.862  29.398  54.493  1.00  0.00     0.191 HD
HETATM    6  C   UNL     1       7.243  27.294  54.698  1.00  0.00     0.137 A 
HETATM    7  C   UNL     1       6.843  26.287  53.838  1.00  0.00     0.046 A 
ENDROOT
BRANCH   6   8
HETATM    8  N   UNL     1       7.891  27.197  55.913  1.00  0.00    -0.309 N 
HETATM    9  C   UNL     1       7.436  27.546  57.157  1.00  0.00     0.247 C 
HETATM   10  O   UNL     1       8.039  27.123  58.147  1.00  0.00    -0.271 OA
HETATM   11  H   UNL     1       8.816  26.782  55.916  1.00  0.00     0.170 HD
BRANCH   9  12
HETATM   12  C   UNL     1       6.334  28.595  57.298  1.00  0.00     0.278 C 
BRANCH  12  13
HETATM   13  O   UNL     1       6.733  29.913  56.958  1.00  0.00    -0.342 OA
BRANCH  13  14
HETATM   14  C   UNL     1       7.531  30.548  57.880  1.00  0.00     0.069 A 
HETATM   15  C   UNL     1       6.839  31.281  58.850  1.00  0.00     0.040 A 
HETATM   16  C   UNL     1       7.536  31.986  59.835  1.00  0.00     0.045 A 
HETATM   17  C   UNL     1       8.923  31.952  59.849  1.00  0.00     0.116 A 
HETATM   18  F   UNL     1       9.595  32.625  60.791  1.00  0.00    -0.206 F 
HETATM   19  C   UNL     1       9.625  31.226  58.896  1.00  0.00     0.045 A 
HETATM   20  C   UNL     1       8.930  30.521  57.909  1.00  0.00     0.040 A 
ENDBRANCH  13  14
ENDBRANCH  12  13
ENDBRANCH   9  12
ENDBRANCH   6   8
BRANCH   7  21
HETATM   21  C   UNL     1       7.257  24.903  53.955  1.00  0.00    -0.020 A 
HETATM   22  C   UNL     1       7.902  24.245  52.902  1.00  0.00     0.014 A 
HETATM   23  C   UNL     1       8.231  22.892  53.022  1.00  0.00     0.020 A 
HETATM   24  C   UNL     1       7.921  22.202  54.193  1.00  0.00     0.011 A 
HETATM   25 BR   UNL     1       8.346  20.365  54.344  1.00  0.00    -0.051 Br
HETATM   26  C   UNL     1       7.293  22.852  55.252  1.00  0.00     0.020 A 
HETATM   27  C   UNL     1       6.962  24.203  55.133  1.00  0.00     0.014 A 
ENDBRANCH   7  21
TORSDOF 5
ENDMDL
MODEL 5
REMARK VINA RESULT:      -8.7     10.130     12.760
REMARK  5 active torsions:
REMARK  status: ('A' for Active; 'I' for Inactive)
REMARK    1  A    between atoms: C_6  and  N_7 
REMARK       I    between atoms: N_7  and  C_8 
REMARK    2  A    between atoms: C_8  and  C_9 
REMARK    3  A    between atoms: C_9  and  O_10 
REMARK    4  A    between atoms: O_10  and  C_11 
REMARK    5  A    between atoms: C_19  and  C_20 
ROOT
HETATM    1  C   UNL     1       4.422  34.356  59.892  1.00  0.00     0.073 C 
HETATM    2  C   UNL     1       3.730  34.216  61.197  1.00  0.00     0.065 A 
HETATM    3  N   UNL     1       2.925  33.169  61.419  1.00  0.00    -0.177 NA
HETATM    4  N   UNL     1       2.460  33.376  62.661  1.00  0.00    -0.262 N 
HETATM    5  H   UNL     1       1.837  32.679  63.060  1.00  0.00     0.191 HD
HETATM    6  C   UNL     1       2.944  34.508  63.261  1.00  0.00     0.137 A 
HETATM    7  C   UNL     1       3.779  35.085  62.321  1.00  0.00     0.046 A 
ENDROOT
BRANCH   6   8
HETATM    8  N   UNL     1       2.689  34.903  64.559  1.00  0.00    -0.309 N 
HETATM    9  C   UNL     1       3.516  34.849  65.649  1.00  0.00     0.247 C 
HETATM   10  O   UNL     1       3.219  35.506  66.651  1.00  0.00    -0.271 OA
HETATM   11  H   UNL     1       1.787  35.324  64.750  1.00  0.00     0.170 HD
BRANCH   9  12
HETATM   12  C   UNL     1       4.666  33.842  65.684  1.00  0.00     0.278 C 
BRANCH  12  13
HETATM   13  O   UNL     1       4.578  32.819  64.706  1.00  0.00    -0.342 OA
BRANCH  13  14
HETATM   14  C   UNL     1       5.732  32.567  64.004  1.00  0.00     0.069 A 
HETATM   15  C   UNL     1       6.870  33.222  64.486  1.00  0.00     0.040 A 
HETATM   16  C   UNL     1       8.103  33.062  63.850  1.00  0.00     0.045 A 
HETATM   17  C   UNL     1       8.196  32.241  62.735  1.00  0.00     0.116 A 
HETATM   18  F   UNL     1       9.376  32.083  62.123  1.00  0.00    -0.206 F 
HETATM   19  C   UNL     1       7.078  31.579  62.245  1.00  0.00     0.045 A 
HETATM   20  C   UNL     1       5.842  31.740  62.880  1.00  0.00     0.040 A 
ENDBRANCH  13  14
ENDBRANCH  12  13
ENDBRANCH   9  12
ENDBRANCH   6   8
BRANCH   7  21
HETATM   21  C   UNL     1       4.383  36.394  62.461  1.00  0.00    -0.020 A 
HETATM   22  C   UNL     1       5.581  36.571  63.164  1.00  0.00     0.014 A 
HETATM   23  C   UNL     1       6.105  37.855  63.338  1.00  0.00     0.020 A 
HETATM   24  C   UNL     1       5.437  38.957  62.806  1.00  0.00     0.011 A 
HETATM   25 BR   UNL     1       6.135  40.695  63.061  1.00  0.00    -0.051 Br
HETATM   26  C   UNL     1       4.252  38.790  62.092  1.00  0.00     0.020 A 
HETATM   27  C   UNL     1       3.727  37.508  61.920  1.00  0.00     0.014 A 
ENDBRANCH   7  21
TORSDOF 5
ENDMDL
MODEL 6
REMARK VINA RESULT:      -8.5      3.066      4.546
REMARK  5 active torsions:
REMARK  status: ('A' for Active; 'I' for Inactive)
REMARK    1  A    between atoms: C_6  and  N_7 
REMARK       I    between atoms: N_7  and  C_8 
REMARK    2  A    between atoms: C_8  and  C_9 
REMARK    3  A    between atoms: C_9  and  O_10 
REMARK    4  A    between atoms: O_10  and  C_11 
REMARK    5  A    between atoms: C_19  and  C_20 
ROOT
HETATM    1  C   UNL     1       3.663  27.793  53.317  1.00  0.00     0.073 C 
HETATM    2  C   UNL     1       4.820  28.351  54.059  1.00  0.00     0.065 A 
HETATM    3  N   UNL     1       4.833  29.645  54.405  1.00  0.00    -0.177 NA
HETATM    4  N   UNL     1       6.014  29.804  55.023  1.00  0.00    -0.262 N 
HETATM    5  H   UNL     1       6.235  30.720  55.402  1.00  0.00     0.191 HD
HETATM    6  C   UNL     1       6.762  28.659  55.107  1.00  0.00     0.137 A 
HETATM    7  C   UNL     1       6.005  27.687  54.478  1.00  0.00     0.046 A 
ENDROOT
BRANCH   6   8
HETATM    8  N   UNL     1       7.969  28.534  55.763  1.00  0.00    -0.309 N 
HETATM    9  C   UNL     1       8.232  28.644  57.103  1.00  0.00     0.247 C 
HETATM   10  O   UNL     1       9.309  28.219  57.531  1.00  0.00    -0.271 OA
HETATM   11  H   UNL     1       8.781  28.295  55.205  1.00  0.00     0.170 HD
BRANCH   9  12
HETATM   12  C   UNL     1       7.295  29.453  58.000  1.00  0.00     0.278 C 
BRANCH  12  13
HETATM   13  O   UNL     1       7.694  30.798  58.199  1.00  0.00    -0.342 OA
BRANCH  13  14
HETATM   14  C   UNL     1       7.967  31.151  59.499  1.00  0.00     0.069 A 
HETATM   15  C   UNL     1       7.228  32.235  59.983  1.00  0.00     0.040 A 
HETATM   16  C   UNL     1       7.424  32.702  61.285  1.00  0.00     0.045 A 
HETATM   17  C   UNL     1       8.356  32.078  62.102  1.00  0.00     0.116 A 
HETATM   18  F   UNL     1       8.546  32.521  63.352  1.00  0.00    -0.206 F 
HETATM   19  C   UNL     1       9.095  30.998  61.640  1.00  0.00     0.045 A 
HETATM   20  C   UNL     1       8.902  30.531  60.337  1.00  0.00     0.040 A 
ENDBRANCH  13  14
ENDBRANCH  12  13
ENDBRANCH   9  12
ENDBRANCH   6   8
BRANCH   7  21
HETATM   21  C   UNL     1       6.479  26.350  54.182  1.00  0.00    -0.020 A 
HETATM   22  C   UNL     1       6.303  25.299  55.090  1.00  0.00     0.014 A 
HETATM   23  C   UNL     1       6.828  24.035  54.805  1.00  0.00     0.020 A 
HETATM   24  C   UNL     1       7.520  23.823  53.613  1.00  0.00     0.011 A 
HETATM   25 BR   UNL     1       8.249  22.118  53.239  1.00  0.00    -0.051 Br
HETATM   26  C   UNL     1       7.686  24.858  52.697  1.00  0.00     0.020 A 
HETATM   27  C   UNL     1       7.165  26.121  52.982  1.00  0.00     0.014 A 
ENDBRANCH   7  21
TORSDOF 5
ENDMDL
MODEL 7
REMARK VINA RESULT:      -8.3      5.168      8.197
REMARK  5 active torsions:
REMARK  status: ('A' for Active; 'I' for Inactive)
REMARK    1  A    between atoms: C_6  and  N_7 
REMARK       I    between atoms: N_7  and  C_8 
REMARK    2  A    between atoms: C_8  and  C_9 
REMARK    3  A    between atoms: C_9  and  O_10 
REMARK    4  A    between atoms: O_10  and  C_11 
REMARK    5  A    between atoms: C_19  and  C_20 
ROOT
HETATM    1  C   UNL     1       7.744  27.090  56.386  1.00  0.00     0.073 C 
HETATM    2  C   UNL     1       6.613  26.856  55.455  1.00  0.00     0.065 A 
HETATM    3  N   UNL     1       5.651  27.778  55.325  1.00  0.00    -0.177 NA
HETATM    4  N   UNL     1       4.798  27.235  54.443  1.00  0.00    -0.262 N 
HETATM    5  H   UNL     1       3.986  27.779  54.166  1.00  0.00     0.191 HD
HETATM    6  C   UNL     1       5.177  26.002  53.982  1.00  0.00     0.137 A 
HETATM    7  C   UNL     1       6.365  25.723  54.633  1.00  0.00     0.046 A 
ENDROOT
BRANCH   6   8
HETATM    8  N   UNL     1       4.522  25.270  53.012  1.00  0.00    -0.309 N 
HETATM    9  C   UNL     1       4.683  25.312  51.652  1.00  0.00     0.247 C 
HETATM   10  O   UNL     1       4.222  24.390  50.973  1.00  0.00    -0.271 OA
HETATM   11  H   UNL     1       3.851  24.577  53.324  1.00  0.00     0.170 HD
BRANCH   9  12
HETATM   12  C   UNL     1       5.243  26.570  50.989  1.00  0.00     0.278 C 
BRANCH  12  13
HETATM   13  O   UNL     1       5.147  26.579  49.575  1.00  0.00    -0.342 OA
BRANCH  13  14
HETATM   14  C   UNL     1       3.907  26.882  49.065  1.00  0.00     0.069 A 
HETATM   15  C   UNL     1       3.459  26.024  48.056  1.00  0.00     0.040 A 
HETATM   16  C   UNL     1       2.221  26.234  47.444  1.00  0.00     0.045 A 
HETATM   17  C   UNL     1       1.430  27.301  47.849  1.00  0.00     0.116 A 
HETATM   18  F   UNL     1       0.242  27.505  47.267  1.00  0.00    -0.206 F 
HETATM   19  C   UNL     1       1.857  28.160  48.853  1.00  0.00     0.045 A 
HETATM   20  C   UNL     1       3.097  27.952  49.465  1.00  0.00     0.040 A 
ENDBRANCH  13  14
ENDBRANCH  12  13
ENDBRANCH   9  12
ENDBRANCH   6   8
BRANCH   7  21
HETATM   21  C   UNL     1       7.045  24.445  54.576  1.00  0.00    -0.020 A 
HETATM   22  C   UNL     1       7.696  24.018  53.413  1.00  0.00     0.014 A 
HETATM   23  C   UNL     1       8.287  22.753  53.368  1.00  0.00     0.020 A 
HETATM   24  C   UNL     1       8.233  21.920  54.485  1.00  0.00     0.011 A 
HETATM   25 BR   UNL     1       9.015  20.199  54.416  1.00  0.00    -0.051 Br
HETATM   26  C   UNL     1       7.602  22.342  55.653  1.00  0.00     0.020 A 
HETATM   27  C   UNL     1       7.009  23.605  55.697  1.00  0.00     0.014 A 
ENDBRANCH   7  21
TORSDOF 5
ENDMDL
MODEL 8
REMARK VINA RESULT:      -8.3      1.697      2.295
REMARK  5 active torsions:
REMARK  status: ('A' for Active; 'I' for Inactive)
REMARK    1  A    between atoms: C_6  and  N_7 
REMARK       I    between atoms: N_7  and  C_8 
REMARK    2  A    between atoms: C_8  and  C_9 
REMARK    3  A    between atoms: C_9  and  O_10 
REMARK    4  A    between atoms: O_10  and  C_11 
REMARK    5  A    between atoms: C_19  and  C_20 
ROOT
HETATM    1  C   UNL     1       8.447  23.678  55.082  1.00  0.00     0.073 C 
HETATM    2  C   UNL     1       7.441  24.476  55.826  1.00  0.00     0.065 A 
HETATM    3  N   UNL     1       7.368  24.384  57.160  1.00  0.00    -0.177 NA
HETATM    4  N   UNL     1       6.354  25.201  57.486  1.00  0.00    -0.262 N 
HETATM    5  H   UNL     1       6.128  25.313  58.471  1.00  0.00     0.191 HD
HETATM    6  C   UNL     1       5.776  25.833  56.417  1.00  0.00     0.137 A 
HETATM    7  C   UNL     1       6.466  25.373  55.310  1.00  0.00     0.046 A 
ENDROOT
BRANCH   6   8
HETATM    8  N   UNL     1       4.776  26.782  56.488  1.00  0.00    -0.309 N 
HETATM    9  C   UNL     1       4.891  28.145  56.552  1.00  0.00     0.247 C 
HETATM   10  O   UNL     1       3.894  28.834  56.321  1.00  0.00    -0.271 OA
HETATM   11  H   UNL     1       3.817  26.452  56.456  1.00  0.00     0.170 HD
BRANCH   9  12
HETATM   12  C   UNL     1       6.174  28.777  57.092  1.00  0.00     0.278 C 
BRANCH  12  13
HETATM   13  O   UNL     1       6.100  30.180  57.281  1.00  0.00    -0.342 OA
BRANCH  13  14
HETATM   14  C   UNL     1       7.031  30.714  58.139  1.00  0.00     0.069 A 
HETATM   15  C   UNL     1       8.302  30.135  58.063  1.00  0.00     0.040 A 
HETATM   16  C   UNL     1       9.333  30.577  58.895  1.00  0.00     0.045 A 
HETATM   17  C   UNL     1       9.091  31.604  59.797  1.00  0.00     0.116 A 
HETATM   18  F   UNL     1      10.077  32.033  60.595  1.00  0.00    -0.206 F 
HETATM   19  C   UNL     1       7.837  32.194  59.882  1.00  0.00     0.045 A 
HETATM   20  C   UNL     1       6.803  31.751  59.052  1.00  0.00     0.040 A 
ENDBRANCH  13  14
ENDBRANCH  12  13
ENDBRANCH   9  12
ENDBRANCH   6   8
BRANCH   7  21
HETATM   21  C   UNL     1       6.086  25.649  53.940  1.00  0.00    -0.020 A 
HETATM   22  C   UNL     1       6.441  26.850  53.315  1.00  0.00     0.014 A 
HETATM   23  C   UNL     1       6.004  27.116  52.014  1.00  0.00     0.020 A 
HETATM   24  C   UNL     1       5.221  26.180  51.339  1.00  0.00     0.011 A 
HETATM   25 BR   UNL     1       4.612  26.550  49.587  1.00  0.00    -0.051 Br
HETATM   26  C   UNL     1       4.876  24.976  51.946  1.00  0.00     0.020 A 
HETATM   27  C   UNL     1       5.309  24.711  53.247  1.00  0.00     0.014 A 
ENDBRANCH   7  21
TORSDOF 5
ENDMDL
MODEL 9
REMARK VINA RESULT:      -8.3      9.023     11.195
REMARK  5 active torsions:
REMARK  status: ('A' for Active; 'I' for Inactive)
REMARK    1  A    between atoms: C_6  and  N_7 
REMARK       I    between atoms: N_7  and  C_8 
REMARK    2  A    between atoms: C_8  and  C_9 
REMARK    3  A    between atoms: C_9  and  O_10 
REMARK    4  A    between atoms: O_10  and  C_11 
REMARK    5  A    between atoms: C_19  and  C_20 
ROOT
HETATM    1  C   UNL     1       9.579  31.799  61.650  1.00  0.00     0.073 C 
HETATM    2  C   UNL     1       8.244  31.761  61.002  1.00  0.00     0.065 A 
HETATM    3  N   UNL     1       8.139  31.449  59.704  1.00  0.00    -0.177 NA
HETATM    4  N   UNL     1       6.823  31.537  59.455  1.00  0.00    -0.262 N 
HETATM    5  H   UNL     1       6.498  31.313  58.519  1.00  0.00     0.191 HD
HETATM    6  C   UNL     1       6.067  31.878  60.546  1.00  0.00     0.137 A 
HETATM    7  C   UNL     1       6.974  32.036  61.578  1.00  0.00     0.046 A 
ENDROOT
BRANCH   6   8
HETATM    8  N   UNL     1       4.689  31.953  60.578  1.00  0.00    -0.309 N 
HETATM    9  C   UNL     1       3.870  32.907  60.037  1.00  0.00     0.247 C 
HETATM   10  O   UNL     1       2.667  32.657  59.919  1.00  0.00    -0.271 OA
HETATM   11  H   UNL     1       4.191  31.192  61.027  1.00  0.00     0.170 HD
BRANCH   9  12
HETATM   12  C   UNL     1       4.408  34.314  59.776  1.00  0.00     0.278 C 
BRANCH  12  13
HETATM   13  O   UNL     1       3.641  35.352  60.362  1.00  0.00    -0.342 OA
BRANCH  13  14
HETATM   14  C   UNL     1       4.116  35.840  61.556  1.00  0.00     0.069 A 
HETATM   15  C   UNL     1       3.137  36.072  62.528  1.00  0.00     0.040 A 
HETATM   16  C   UNL     1       3.489  36.584  63.780  1.00  0.00     0.045 A 
HETATM   17  C   UNL     1       4.822  36.857  64.057  1.00  0.00     0.116 A 
HETATM   18  F   UNL     1       5.164  37.346  65.256  1.00  0.00    -0.206 F 
HETATM   19  C   UNL     1       5.807  36.628  63.105  1.00  0.00     0.045 A 
HETATM   20  C   UNL     1       5.456  36.118  61.852  1.00  0.00     0.040 A 
ENDBRANCH  13  14
ENDBRANCH  12  13
ENDBRANCH   9  12
ENDBRANCH   6   8
BRANCH   7  21
HETATM   21  C   UNL     1       6.637  32.561  62.886  1.00  0.00    -0.020 A 
HETATM   22  C   UNL     1       5.308  32.639  63.317  1.00  0.00     0.014 A 
HETATM   23  C   UNL     1       5.010  33.209  64.558  1.00  0.00     0.020 A 
HETATM   24  C   UNL     1       6.038  33.693  65.367  1.00  0.00     0.011 A 
HETATM   25 BR   UNL     1       5.631  34.485  67.035  1.00  0.00    -0.051 Br
HETATM   26  C   UNL     1       7.365  33.606  64.952  1.00  0.00     0.020 A 
HETATM   27  C   UNL     1       7.663  33.039  63.712  1.00  0.00     0.014 A 
ENDBRANCH   7  21
TORSDOF 5
ENDMDL
MODEL 10
REMARK VINA RESULT:      -8.1      4.572      6.619
REMARK  5 active torsions:
REMARK  status: ('A' for Active; 'I' for Inactive)
REMARK    1  A    between atoms: C_6  and  N_7 
REMARK       I    between atoms: N_7  and  C_8 
REMARK    2  A    between atoms: C_8  and  C_9 
REMARK    3  A    between atoms: C_9  and  O_10 
REMARK    4  A    between atoms: O_10  and  C_11 
REMARK    5  A    between atoms: C_19  and  C_20 
ROOT
HETATM    1  C   UNL     1      11.296  29.698  57.028  1.00  0.00     0.073 C 
HETATM    2  C   UNL     1      10.042  30.218  57.627  1.00  0.00     0.065 A 
HETATM    3  N   UNL     1      10.083  31.261  58.466  1.00  0.00    -0.177 NA
HETATM    4  N   UNL     1       8.802  31.439  58.825  1.00  0.00    -0.262 N 
HETATM    5  H   UNL     1       8.584  32.208  59.452  1.00  0.00     0.191 HD
HETATM    6  C   UNL     1       7.928  30.562  58.238  1.00  0.00     0.137 A 
HETATM    7  C   UNL     1       8.714  29.744  57.447  1.00  0.00     0.046 A 
ENDROOT
BRANCH   6   8
HETATM    8  N   UNL     1       6.554  30.585  58.374  1.00  0.00    -0.309 N 
HETATM    9  C   UNL     1       5.765  31.545  58.949  1.00  0.00     0.247 C 
HETATM   10  O   UNL     1       4.552  31.527  58.722  1.00  0.00    -0.271 OA
HETATM   11  H   UNL     1       6.033  29.813  57.971  1.00  0.00     0.170 HD
BRANCH   9  12
HETATM   12  C   UNL     1       6.353  32.485  60.001  1.00  0.00     0.278 C 
BRANCH  12  13
HETATM   13  O   UNL     1       6.964  31.826  61.097  1.00  0.00    -0.342 OA
BRANCH  13  14
HETATM   14  C   UNL     1       6.853  32.462  62.310  1.00  0.00     0.069 A 
HETATM   15  C   UNL     1       5.631  33.109  62.525  1.00  0.00     0.040 A 
HETATM   16  C   UNL     1       5.398  33.806  63.713  1.00  0.00     0.045 A 
HETATM   17  C   UNL     1       6.387  33.850  64.686  1.00  0.00     0.116 A 
HETATM   18  F   UNL     1       6.167  34.516  65.827  1.00  0.00    -0.206 F 
HETATM   19  C   UNL     1       7.603  33.210  64.491  1.00  0.00     0.045 A 
HETATM   20  C   UNL     1       7.839  32.513  63.302  1.00  0.00     0.040 A 
ENDBRANCH  13  14
ENDBRANCH  12  13
ENDBRANCH   9  12
ENDBRANCH   6   8
BRANCH   7  21
HETATM   21  C   UNL     1       8.231  28.560  56.766  1.00  0.00    -0.020 A 
HETATM   22  C   UNL     1       7.774  28.617  55.445  1.00  0.00     0.014 A 
HETATM   23  C   UNL     1       7.253  27.471  54.836  1.00  0.00     0.020 A 
HETATM   24  C   UNL     1       7.196  26.272  55.546  1.00  0.00     0.011 A 
HETATM   25 BR   UNL     1       6.471  24.728  54.729  1.00  0.00    -0.051 Br
HETATM   26  C   UNL     1       7.663  26.202  56.856  1.00  0.00     0.020 A 
HETATM   27  C   UNL     1       8.180  27.346  57.465  1.00  0.00     0.014 A 
ENDBRANCH   7  21
TORSDOF 5
ENDMDL
