MODEL 1
REMARK VINA RESULT:      -7.7      0.000      0.000
REMARK  1 active torsions:
REMARK  status: ('A' for Active; 'I' for Inactive)
REMARK    1  A    between atoms: C_8  and  C_9 
ROOT
HETATM    1  C   UNL     1       5.723  28.588  50.747  1.00  0.00     0.073 C 
HETATM    2  C   UNL     1       5.053  28.192  52.013  1.00  0.00     0.062 C 
HETATM    3  N   UNL     1       3.718  28.110  52.052  1.00  0.00    -0.178 NA
HETATM    4  N   UNL     1       3.457  27.706  53.301  1.00  0.00    -0.262 N 
HETATM    5  H   UNL     1       2.488  27.563  53.564  1.00  0.00     0.191 HD
HETATM    6  C   UNL     1       4.564  27.660  54.100  1.00  0.00     0.134 C 
HETATM    7  C   UNL     1       5.650  27.847  53.268  1.00  0.00     0.032 C 
HETATM    8  C   UNL     1       7.105  27.657  53.538  1.00  0.00     0.119 C 
HETATM    9  S   UNL     1       7.835  28.379  55.030  1.00  0.00    -0.141 SA
HETATM   10  C   UNL     1       6.422  28.904  56.042  1.00  0.00     0.136 C 
HETATM   11  C   UNL     1       5.805  30.226  55.594  1.00  0.00     0.031 C 
HETATM   12  C   UNL     1       5.409  27.807  56.364  1.00  0.00     0.236 C 
HETATM   13  O   UNL     1       5.341  27.316  57.496  1.00  0.00    -0.272 OA
HETATM   14  N   UNL     1       4.474  27.422  55.445  1.00  0.00    -0.311 N 
HETATM   15  H   UNL     1       3.685  26.914  55.827  1.00  0.00     0.170 HD
ENDROOT
BRANCH   8  16
HETATM   16  C   UNL     1       7.347  26.150  53.413  1.00  0.00    -0.040 A 
HETATM   17  C   UNL     1       7.430  25.362  54.577  1.00  0.00     0.010 A 
HETATM   18  C   UNL     1       7.687  23.989  54.507  1.00  0.00     0.024 A 
HETATM   19  C   UNL     1       7.857  23.379  53.267  1.00  0.00     0.034 A 
HETATM   20 CL   UNL     1       8.177  21.691  53.179  1.00  0.00    -0.084 Cl
HETATM   21  C   UNL     1       7.769  24.130  52.100  1.00  0.00     0.024 A 
HETATM   22  C   UNL     1       7.520  25.504  52.173  1.00  0.00     0.010 A 
ENDBRANCH   8  16
TORSDOF 1
ENDMDL
MODEL 2
REMARK VINA RESULT:      -7.5      2.828      4.210
REMARK  1 active torsions:
REMARK  status: ('A' for Active; 'I' for Inactive)
REMARK    1  A    between atoms: C_8  and  C_9 
ROOT
HETATM    1  C   UNL     1       8.879  29.175  57.890  1.00  0.00     0.073 C 
HETATM    2  C   UNL     1       8.553  28.903  56.466  1.00  0.00     0.062 C 
HETATM    3  N   UNL     1       9.324  29.424  55.504  1.00  0.00    -0.178 NA
HETATM    4  N   UNL     1       8.779  28.964  54.371  1.00  0.00    -0.262 N 
HETATM    5  H   UNL     1       9.212  29.228  53.492  1.00  0.00     0.191 HD
HETATM    6  C   UNL     1       7.611  28.283  54.567  1.00  0.00     0.134 C 
HETATM    7  C   UNL     1       7.488  28.108  55.931  1.00  0.00     0.032 C 
HETATM    8  C   UNL     1       6.552  27.240  56.703  1.00  0.00     0.119 C 
HETATM    9  S   UNL     1       4.783  27.277  56.320  1.00  0.00    -0.141 SA
HETATM   10  C   UNL     1       4.657  28.191  54.756  1.00  0.00     0.136 C 
HETATM   11  C   UNL     1       4.746  29.705  54.921  1.00  0.00     0.031 C 
HETATM   12  C   UNL     1       5.488  27.628  53.604  1.00  0.00     0.236 C 
HETATM   13  O   UNL     1       4.953  27.026  52.667  1.00  0.00    -0.272 OA
HETATM   14  N   UNL     1       6.830  27.875  53.520  1.00  0.00    -0.311 N 
HETATM   15  H   UNL     1       7.235  27.717  52.605  1.00  0.00     0.170 HD
ENDROOT
BRANCH   8  16
HETATM   16  C   UNL     1       7.157  25.835  56.639  1.00  0.00    -0.040 A 
HETATM   17  C   UNL     1       6.604  24.880  55.763  1.00  0.00     0.010 A 
HETATM   18  C   UNL     1       7.103  23.576  55.703  1.00  0.00     0.024 A 
HETATM   19  C   UNL     1       8.174  23.206  56.512  1.00  0.00     0.034 A 
HETATM   20 CL   UNL     1       8.787  21.601  56.441  1.00  0.00    -0.084 Cl
HETATM   21  C   UNL     1       8.748  24.130  57.378  1.00  0.00     0.024 A 
HETATM   22  C   UNL     1       8.242  25.432  57.443  1.00  0.00     0.010 A 
ENDBRANCH   8  16
TORSDOF 1
ENDMDL
MODEL 3
REMARK VINA RESULT:      -7.4     11.171     13.221
REMARK  1 active torsions:
REMARK  status: ('A' for Active; 'I' for Inactive)
REMARK    1  A    between atoms: C_8  and  C_9 
ROOT
HETATM    1  C   UNL     1       8.249  32.335  62.774  1.00  0.00     0.073 C 
HETATM    2  C   UNL     1       6.775  32.166  62.846  1.00  0.00     0.062 C 
HETATM    3  N   UNL     1       6.249  30.939  62.754  1.00  0.00    -0.178 NA
HETATM    4  N   UNL     1       4.933  31.142  62.887  1.00  0.00    -0.262 N 
HETATM    5  H   UNL     1       4.320  30.334  62.859  1.00  0.00     0.191 HD
HETATM    6  C   UNL     1       4.588  32.463  62.923  1.00  0.00     0.134 C 
HETATM    7  C   UNL     1       5.769  33.170  63.026  1.00  0.00     0.032 C 
HETATM    8  C   UNL     1       5.997  34.610  63.341  1.00  0.00     0.119 C 
HETATM    9  S   UNL     1       5.053  35.876  62.454  1.00  0.00    -0.141 SA
HETATM   10  C   UNL     1       3.746  34.967  61.582  1.00  0.00     0.136 C 
HETATM   11  C   UNL     1       4.220  34.290  60.299  1.00  0.00     0.031 C 
HETATM   12  C   UNL     1       2.857  34.095  62.468  1.00  0.00     0.236 C 
HETATM   13  O   UNL     1       1.698  34.429  62.732  1.00  0.00    -0.272 OA
HETATM   14  N   UNL     1       3.280  32.868  62.897  1.00  0.00    -0.311 N 
HETATM   15  H   UNL     1       2.544  32.255  63.225  1.00  0.00     0.170 HD
ENDROOT
BRANCH   8  16
HETATM   16  C   UNL     1       5.872  34.717  64.864  1.00  0.00    -0.040 A 
HETATM   17  C   UNL     1       6.823  34.080  65.684  1.00  0.00     0.010 A 
HETATM   18  C   UNL     1       6.723  34.122  67.078  1.00  0.00     0.024 A 
HETATM   19  C   UNL     1       5.672  34.812  67.677  1.00  0.00     0.034 A 
HETATM   20 CL   UNL     1       5.546  34.862  69.391  1.00  0.00    -0.084 Cl
HETATM   21  C   UNL     1       4.725  35.460  66.892  1.00  0.00     0.024 A 
HETATM   22  C   UNL     1       4.823  35.410  65.498  1.00  0.00     0.010 A 
ENDBRANCH   8  16
TORSDOF 1
ENDMDL
MODEL 4
REMARK VINA RESULT:      -7.3      8.954     10.327
REMARK  1 active torsions:
REMARK  status: ('A' for Active; 'I' for Inactive)
REMARK    1  A    between atoms: C_8  and  C_9 
ROOT
HETATM    1  C   UNL     1       4.569  33.994  58.249  1.00  0.00     0.073 C 
HETATM    2  C   UNL     1       3.987  33.505  59.526  1.00  0.00     0.062 C 
HETATM    3  N   UNL     1       2.898  32.729  59.497  1.00  0.00    -0.178 NA
HETATM    4  N   UNL     1       2.667  32.449  60.785  1.00  0.00    -0.262 N 
HETATM    5  H   UNL     1       1.878  31.853  61.011  1.00  0.00     0.191 HD
HETATM    6  C   UNL     1       3.486  33.128  61.643  1.00  0.00     0.134 C 
HETATM    7  C   UNL     1       4.449  33.734  60.862  1.00  0.00     0.032 C 
HETATM    8  C   UNL     1       5.724  34.398  61.260  1.00  0.00     0.119 C 
HETATM    9  S   UNL     1       5.713  35.621  62.595  1.00  0.00    -0.141 SA
HETATM   10  C   UNL     1       4.079  35.460  63.371  1.00  0.00     0.136 C 
HETATM   11  C   UNL     1       2.962  36.156  62.599  1.00  0.00     0.031 C 
HETATM   12  C   UNL     1       3.729  34.058  63.866  1.00  0.00     0.236 C 
HETATM   13  O   UNL     1       3.726  33.790  65.072  1.00  0.00    -0.272 OA
HETATM   14  N   UNL     1       3.297  33.093  62.999  1.00  0.00    -0.311 N 
HETATM   15  H   UNL     1       2.826  32.310  63.434  1.00  0.00     0.170 HD
ENDROOT
BRANCH   8  16
HETATM   16  C   UNL     1       6.719  33.257  61.493  1.00  0.00    -0.040 A 
HETATM   17  C   UNL     1       7.217  33.024  62.789  1.00  0.00     0.010 A 
HETATM   18  C   UNL     1       8.155  32.016  63.036  1.00  0.00     0.024 A 
HETATM   19  C   UNL     1       8.604  31.216  61.989  1.00  0.00     0.034 A 
HETATM   20 CL   UNL     1       9.760  29.979  62.290  1.00  0.00    -0.084 Cl
HETATM   21  C   UNL     1       8.121  31.416  60.700  1.00  0.00     0.024 A 
HETATM   22  C   UNL     1       7.189  32.429  60.454  1.00  0.00     0.010 A 
ENDBRANCH   8  16
TORSDOF 1
ENDMDL
MODEL 5
REMARK VINA RESULT:      -7.1      3.532      5.538
REMARK  1 active torsions:
REMARK  status: ('A' for Active; 'I' for Inactive)
REMARK    1  A    between atoms: C_8  and  C_9 
ROOT
HETATM    1  C   UNL     1       7.445  24.450  56.887  1.00  0.00     0.073 C 
HETATM    2  C   UNL     1       6.327  25.418  56.749  1.00  0.00     0.062 C 
HETATM    3  N   UNL     1       5.171  25.182  57.379  1.00  0.00    -0.178 NA
HETATM    4  N   UNL     1       4.415  26.244  57.074  1.00  0.00    -0.262 N 
HETATM    5  H   UNL     1       3.477  26.288  57.457  1.00  0.00     0.191 HD
HETATM    6  C   UNL     1       4.996  27.080  56.162  1.00  0.00     0.134 C 
HETATM    7  C   UNL     1       6.299  26.649  56.016  1.00  0.00     0.032 C 
HETATM    8  C   UNL     1       7.456  27.312  55.347  1.00  0.00     0.119 C 
HETATM    9  S   UNL     1       7.252  27.988  53.680  1.00  0.00    -0.141 SA
HETATM   10  C   UNL     1       5.463  27.964  53.374  1.00  0.00     0.136 C 
HETATM   11  C   UNL     1       4.926  26.590  52.982  1.00  0.00     0.031 C 
HETATM   12  C   UNL     1       4.616  28.705  54.408  1.00  0.00     0.236 C 
HETATM   13  O   UNL     1       4.097  29.794  54.143  1.00  0.00    -0.272 OA
HETATM   14  N   UNL     1       4.314  28.130  55.611  1.00  0.00    -0.311 N 
HETATM   15  H   UNL     1       3.535  28.554  56.101  1.00  0.00     0.170 HD
ENDROOT
BRANCH   8  16
HETATM   16  C   UNL     1       7.974  28.339  56.358  1.00  0.00    -0.040 A 
HETATM   17  C   UNL     1       9.123  29.094  56.053  1.00  0.00     0.010 A 
HETATM   18  C   UNL     1       9.649  30.015  56.965  1.00  0.00     0.024 A 
HETATM   19  C   UNL     1       9.028  30.203  58.197  1.00  0.00     0.034 A 
HETATM   20 CL   UNL     1       9.676  31.332  59.320  1.00  0.00    -0.084 Cl
HETATM   21  C   UNL     1       7.885  29.479  58.520  1.00  0.00     0.024 A 
HETATM   22  C   UNL     1       7.365  28.554  57.610  1.00  0.00     0.010 A 
ENDBRANCH   8  16
TORSDOF 1
ENDMDL
MODEL 6
REMARK VINA RESULT:      -7.0      2.137      2.696
REMARK  1 active torsions:
REMARK  status: ('A' for Active; 'I' for Inactive)
REMARK    1  A    between atoms: C_8  and  C_9 
ROOT
HETATM    1  C   UNL     1       7.001  25.711  51.416  1.00  0.00     0.073 C 
HETATM    2  C   UNL     1       6.031  25.458  52.512  1.00  0.00     0.062 C 
HETATM    3  N   UNL     1       4.739  25.271  52.216  1.00  0.00    -0.178 NA
HETATM    4  N   UNL     1       4.167  25.041  53.404  1.00  0.00    -0.262 N 
HETATM    5  H   UNL     1       3.170  24.860  53.426  1.00  0.00     0.191 HD
HETATM    6  C   UNL     1       5.019  25.211  54.459  1.00  0.00     0.134 C 
HETATM    7  C   UNL     1       6.280  25.360  53.919  1.00  0.00     0.032 C 
HETATM    8  C   UNL     1       7.614  25.337  54.586  1.00  0.00     0.119 C 
HETATM    9  S   UNL     1       7.885  26.337  56.071  1.00  0.00    -0.141 SA
HETATM   10  C   UNL     1       6.231  26.890  56.577  1.00  0.00     0.136 C 
HETATM   11  C   UNL     1       5.704  28.071  55.767  1.00  0.00     0.031 C 
HETATM   12  C   UNL     1       5.213  25.773  56.807  1.00  0.00     0.236 C 
HETATM   13  O   UNL     1       4.862  25.457  57.948  1.00  0.00    -0.272 OA
HETATM   14  N   UNL     1       4.578  25.175  55.755  1.00  0.00    -0.311 N 
HETATM   15  H   UNL     1       3.737  24.667  55.999  1.00  0.00     0.170 HD
ENDROOT
BRANCH   8  16
HETATM   16  C   UNL     1       7.942  23.855  54.785  1.00  0.00    -0.040 A 
HETATM   17  C   UNL     1       7.930  23.310  56.084  1.00  0.00     0.010 A 
HETATM   18  C   UNL     1       8.260  21.970  56.312  1.00  0.00     0.024 A 
HETATM   19  C   UNL     1       8.599  21.148  55.241  1.00  0.00     0.034 A 
HETATM   20 CL   UNL     1       9.008  19.502  55.520  1.00  0.00    -0.084 Cl
HETATM   21  C   UNL     1       8.609  21.656  53.946  1.00  0.00     0.024 A 
HETATM   22  C   UNL     1       8.286  22.998  53.721  1.00  0.00     0.010 A 
ENDBRANCH   8  16
TORSDOF 1
ENDMDL
MODEL 7
REMARK VINA RESULT:      -6.7      8.909     11.079
REMARK  1 active torsions:
REMARK  status: ('A' for Active; 'I' for Inactive)
REMARK    1  A    between atoms: C_8  and  C_9 
ROOT
HETATM    1  C   UNL     1       6.727  33.831  65.316  1.00  0.00     0.073 C 
HETATM    2  C   UNL     1       6.196  34.600  64.160  1.00  0.00     0.062 C 
HETATM    3  N   UNL     1       6.280  35.935  64.164  1.00  0.00    -0.178 NA
HETATM    4  N   UNL     1       5.752  36.294  62.988  1.00  0.00    -0.262 N 
HETATM    5  H   UNL     1       5.717  37.282  62.763  1.00  0.00     0.191 HD
HETATM    6  C   UNL     1       5.210  35.249  62.294  1.00  0.00     0.134 C 
HETATM    7  C   UNL     1       5.589  34.102  62.961  1.00  0.00     0.032 C 
HETATM    8  C   UNL     1       5.496  32.675  62.539  1.00  0.00     0.119 C 
HETATM    9  S   UNL     1       3.934  32.044  61.873  1.00  0.00    -0.141 SA
HETATM   10  C   UNL     1       2.918  33.518  61.572  1.00  0.00     0.136 C 
HETATM   11  C   UNL     1       2.261  34.078  62.830  1.00  0.00     0.031 C 
HETATM   12  C   UNL     1       3.552  34.571  60.664  1.00  0.00     0.236 C 
HETATM   13  O   UNL     1       3.161  34.731  59.504  1.00  0.00    -0.272 OA
HETATM   14  N   UNL     1       4.488  35.442  61.147  1.00  0.00    -0.311 N 
HETATM   15  H   UNL     1       4.638  36.266  60.576  1.00  0.00     0.170 HD
ENDROOT
BRANCH   8  16
HETATM   16  C   UNL     1       6.688  32.450  61.604  1.00  0.00    -0.040 A 
HETATM   17  C   UNL     1       6.471  32.340  60.217  1.00  0.00     0.010 A 
HETATM   18  C   UNL     1       7.528  32.098  59.334  1.00  0.00     0.024 A 
HETATM   19  C   UNL     1       8.825  31.971  59.825  1.00  0.00     0.034 A 
HETATM   20 CL   UNL     1      10.125  31.669  58.741  1.00  0.00    -0.084 Cl
HETATM   21  C   UNL     1       9.071  32.085  61.188  1.00  0.00     0.024 A 
HETATM   22  C   UNL     1       8.011  32.320  62.070  1.00  0.00     0.010 A 
ENDBRANCH   8  16
TORSDOF 1
ENDMDL
MODEL 8
REMARK VINA RESULT:      -6.7      3.350      4.989
REMARK  1 active torsions:
REMARK  status: ('A' for Active; 'I' for Inactive)
REMARK    1  A    between atoms: C_8  and  C_9 
ROOT
HETATM    1  C   UNL     1       3.501  29.767  54.482  1.00  0.00     0.073 C 
HETATM    2  C   UNL     1       4.649  29.101  53.813  1.00  0.00     0.062 C 
HETATM    3  N   UNL     1       5.047  29.529  52.610  1.00  0.00    -0.178 NA
HETATM    4  N   UNL     1       6.097  28.751  52.323  1.00  0.00    -0.262 N 
HETATM    5  H   UNL     1       6.578  28.904  51.443  1.00  0.00     0.191 HD
HETATM    6  C   UNL     1       6.300  27.754  53.234  1.00  0.00     0.134 C 
HETATM    7  C   UNL     1       5.455  28.018  54.293  1.00  0.00     0.032 C 
HETATM    8  C   UNL     1       5.414  27.416  55.657  1.00  0.00     0.119 C 
HETATM    9  S   UNL     1       5.443  25.614  55.836  1.00  0.00    -0.141 SA
HETATM   10  C   UNL     1       5.877  24.982  54.191  1.00  0.00     0.136 C 
HETATM   11  C   UNL     1       4.705  24.958  53.214  1.00  0.00     0.031 C 
HETATM   12  C   UNL     1       7.179  25.528  53.606  1.00  0.00     0.236 C 
HETATM   13  O   UNL     1       8.194  24.826  53.546  1.00  0.00    -0.272 OA
HETATM   14  N   UNL     1       7.225  26.766  53.029  1.00  0.00    -0.311 N 
HETATM   15  H   UNL     1       8.025  26.926  52.428  1.00  0.00     0.170 HD
ENDROOT
BRANCH   8  16
HETATM   16  C   UNL     1       6.522  28.121  56.445  1.00  0.00    -0.040 A 
HETATM   17  C   UNL     1       6.221  29.290  57.172  1.00  0.00     0.010 A 
HETATM   18  C   UNL     1       7.213  29.984  57.873  1.00  0.00     0.024 A 
HETATM   19  C   UNL     1       8.523  29.514  57.866  1.00  0.00     0.034 A 
HETATM   20 CL   UNL     1       9.744  30.368  58.725  1.00  0.00    -0.084 Cl
HETATM   21  C   UNL     1       8.847  28.357  57.167  1.00  0.00     0.024 A 
HETATM   22  C   UNL     1       7.856  27.669  56.460  1.00  0.00     0.010 A 
ENDBRANCH   8  16
TORSDOF 1
ENDMDL
MODEL 9
REMARK VINA RESULT:      -6.5      3.547      5.924
REMARK  1 active torsions:
REMARK  status: ('A' for Active; 'I' for Inactive)
REMARK    1  A    between atoms: C_8  and  C_9 
ROOT
HETATM    1  C   UNL     1       8.938  28.238  57.185  1.00  0.00     0.073 C 
HETATM    2  C   UNL     1       7.847  27.261  56.934  1.00  0.00     0.062 C 
HETATM    3  N   UNL     1       7.527  26.375  57.885  1.00  0.00    -0.178 NA
HETATM    4  N   UNL     1       6.508  25.688  57.354  1.00  0.00    -0.262 N 
HETATM    5  H   UNL     1       6.088  24.952  57.912  1.00  0.00     0.191 HD
HETATM    6  C   UNL     1       6.256  26.010  56.051  1.00  0.00     0.134 C 
HETATM    7  C   UNL     1       7.023  27.123  55.771  1.00  0.00     0.032 C 
HETATM    8  C   UNL     1       6.977  28.045  54.599  1.00  0.00     0.119 C 
HETATM    9  S   UNL     1       6.958  27.357  52.924  1.00  0.00    -0.141 SA
HETATM   10  C   UNL     1       6.646  25.582  53.146  1.00  0.00     0.136 C 
HETATM   11  C   UNL     1       7.882  24.788  53.557  1.00  0.00     0.031 C 
HETATM   12  C   UNL     1       5.380  25.236  53.929  1.00  0.00     0.236 C 
HETATM   13  O   UNL     1       4.381  24.787  53.359  1.00  0.00    -0.272 OA
HETATM   14  N   UNL     1       5.359  25.305  55.294  1.00  0.00    -0.311 N 
HETATM   15  H   UNL     1       4.600  24.798  55.734  1.00  0.00     0.170 HD
ENDROOT
BRANCH   8  16
HETATM   16  C   UNL     1       5.809  28.996  54.877  1.00  0.00    -0.040 A 
HETATM   17  C   UNL     1       4.693  28.993  54.018  1.00  0.00     0.010 A 
HETATM   18  C   UNL     1       3.624  29.872  54.216  1.00  0.00     0.024 A 
HETATM   19  C   UNL     1       3.648  30.763  55.285  1.00  0.00     0.034 A 
HETATM   20 CL   UNL     1       2.335  31.847  55.528  1.00  0.00    -0.084 Cl
HETATM   21  C   UNL     1       4.732  30.780  56.156  1.00  0.00     0.024 A 
HETATM   22  C   UNL     1       5.804  29.906  55.952  1.00  0.00     0.010 A 
ENDBRANCH   8  16
TORSDOF 1
ENDMDL
MODEL 10
REMARK VINA RESULT:      -6.5      3.583      5.035
REMARK  1 active torsions:
REMARK  status: ('A' for Active; 'I' for Inactive)
REMARK    1  A    between atoms: C_8  and  C_9 
ROOT
HETATM    1  C   UNL     1       3.852  26.189  47.484  1.00  0.00     0.073 C 
HETATM    2  C   UNL     1       3.076  27.096  48.369  1.00  0.00     0.062 C 
HETATM    3  N   UNL     1       1.739  27.069  48.329  1.00  0.00    -0.178 NA
HETATM    4  N   UNL     1       1.371  27.964  49.253  1.00  0.00    -0.262 N 
HETATM    5  H   UNL     1       0.379  28.109  49.408  1.00  0.00     0.191 HD
HETATM    6  C   UNL     1       2.420  28.660  49.784  1.00  0.00     0.134 C 
HETATM    7  C   UNL     1       3.566  28.040  49.330  1.00  0.00     0.032 C 
HETATM    8  C   UNL     1       4.983  28.209  49.767  1.00  0.00     0.119 C 
HETATM    9  S   UNL     1       5.673  29.876  49.922  1.00  0.00    -0.141 SA
HETATM   10  C   UNL     1       4.246  30.992  49.808  1.00  0.00     0.136 C 
HETATM   11  C   UNL     1       3.762  31.226  48.380  1.00  0.00     0.031 C 
HETATM   12  C   UNL     1       3.132  30.729  50.821  1.00  0.00     0.236 C 
HETATM   13  O   UNL     1       2.956  31.482  51.784  1.00  0.00    -0.272 OA
HETATM   14  N   UNL     1       2.228  29.722  50.626  1.00  0.00    -0.311 N 
HETATM   15  H   UNL     1       1.380  29.799  51.174  1.00  0.00     0.170 HD
ENDROOT
BRANCH   8  16
HETATM   16  C   UNL     1       5.114  27.377  51.046  1.00  0.00    -0.040 A 
HETATM   17  C   UNL     1       5.173  28.028  52.294  1.00  0.00     0.010 A 
HETATM   18  C   UNL     1       5.331  27.306  53.481  1.00  0.00     0.024 A 
HETATM   19  C   UNL     1       5.422  25.918  53.441  1.00  0.00     0.034 A 
HETATM   20 CL   UNL     1       5.619  25.030  54.901  1.00  0.00    -0.084 Cl
HETATM   21  C   UNL     1       5.355  25.248  52.225  1.00  0.00     0.024 A 
HETATM   22  C   UNL     1       5.205  25.972  51.038  1.00  0.00     0.010 A 
ENDBRANCH   8  16
TORSDOF 1
ENDMDL
