MODEL 1
REMARK VINA RESULT:      -9.1      0.000      0.000
REMARK  2 active torsions:
REMARK  status: ('A' for Active; 'I' for Inactive)
REMARK    1  A    between atoms: O_2  and  C_3 
REMARK    2  A    between atoms: N_21  and  C_22 
ROOT
HETATM    1  C   UNL     1       8.957  29.696  57.219  1.00  0.00     0.069 A 
HETATM    2  C   UNL     1       7.734  29.536  56.557  1.00  0.00     0.049 A 
HETATM    3  C   UNL     1       6.587  30.047  57.154  1.00  0.00     0.018 A 
HETATM    4  C   UNL     1       6.682  30.727  58.374  1.00  0.00     0.044 A 
HETATM    5  N   UNL     1       5.441  31.192  58.774  1.00  0.00    -0.324 N 
HETATM    6  C   UNL     1       4.464  30.852  57.859  1.00  0.00     0.264 A 
HETATM    7  O   UNL     1       3.284  31.157  57.910  1.00  0.00    -0.270 OA
HETATM    8  C   UNL     1       5.156  30.066  56.683  1.00  0.00     0.250 A 
HETATM    9  N   UNL     1       4.998  30.766  55.346  1.00  0.00    -0.043 N 
HETATM   10  H   UNL     1       5.685  30.351  54.702  1.00  0.00     0.282 HD
HETATM   11  C   UNL     1       3.598  30.443  54.891  1.00  0.00     0.204 C 
HETATM   12  C   UNL     1       3.607  31.092  53.528  1.00  0.00     0.036 C 
HETATM   13  C   UNL     1       4.347  32.423  53.804  1.00  0.00     0.030 C 
HETATM   14  C   UNL     1       5.115  32.240  55.128  1.00  0.00     0.237 C 
HETATM   15  C   UNL     1       3.452  28.978  55.235  1.00  0.00     0.126 C 
HETATM   16  C   UNL     1       4.349  28.759  56.461  1.00  0.00     0.145 C 
HETATM   17  C   UNL     1       5.196  27.590  56.066  1.00  0.00     0.239 C 
HETATM   18  O   UNL     1       5.900  27.032  56.894  1.00  0.00    -0.272 OA
HETATM   19  N   UNL     1       5.056  27.345  54.715  1.00  0.00    -0.252 N 
HETATM   20  C   UNL     1       4.018  28.080  54.184  1.00  0.00     0.238 C 
HETATM   21  O   UNL     1       3.583  28.122  53.045  1.00  0.00    -0.272 OA
HETATM   22  C   UNL     1       7.873  30.911  59.039  1.00  0.00     0.033 A 
HETATM   23  C   UNL     1       9.020  30.389  58.443  1.00  0.00     0.039 A 
HETATM   24  H   UNL     1       5.258  31.711  59.625  1.00  0.00     0.169 HD
ENDROOT
BRANCH   1  25
HETATM   25  O   UNL     1      10.167  29.255  56.760  1.00  0.00    -0.356 OA
HETATM   26  C   UNL     1      11.327  29.910  57.261  1.00  0.00     0.210 C 
ENDBRANCH   1  25
BRANCH  19  27
HETATM   27  C   UNL     1       5.888  26.452  53.956  1.00  0.00     0.045 A 
HETATM   28  C   UNL     1       7.164  26.831  53.504  1.00  0.00     0.030 A 
HETATM   29  C   UNL     1       7.947  25.986  52.706  1.00  0.00     0.002 A 
HETATM   30  C   UNL     1       7.476  24.733  52.341  1.00  0.00     0.000 A 
HETATM   31  C   UNL     1       6.228  24.321  52.784  1.00  0.00     0.002 A 
HETATM   32  C   UNL     1       5.448  25.168  53.580  1.00  0.00     0.030 A 
ENDBRANCH  19  27
TORSDOF 2
ENDMDL
MODEL 2
REMARK VINA RESULT:      -8.6      5.202      7.726
REMARK  2 active torsions:
REMARK  status: ('A' for Active; 'I' for Inactive)
REMARK    1  A    between atoms: O_2  and  C_3 
REMARK    2  A    between atoms: N_21  and  C_22 
ROOT
HETATM    1  C   UNL     1       5.632  34.128  64.418  1.00  0.00     0.069 A 
HETATM    2  C   UNL     1       5.316  34.138  63.054  1.00  0.00     0.049 A 
HETATM    3  C   UNL     1       3.989  34.329  62.683  1.00  0.00     0.018 A 
HETATM    4  C   UNL     1       3.015  34.533  63.667  1.00  0.00     0.044 A 
HETATM    5  N   UNL     1       1.774  34.746  63.092  1.00  0.00    -0.324 N 
HETATM    6  C   UNL     1       1.850  34.694  61.714  1.00  0.00     0.264 A 
HETATM    7  O   UNL     1       0.935  34.886  60.929  1.00  0.00    -0.270 OA
HETATM    8  C   UNL     1       3.351  34.425  61.322  1.00  0.00     0.250 A 
HETATM    9  N   UNL     1       3.941  35.545  60.486  1.00  0.00    -0.043 N 
HETATM   10  H   UNL     1       4.964  35.432  60.502  1.00  0.00     0.282 HD
HETATM   11  C   UNL     1       3.417  35.318  59.091  1.00  0.00     0.204 C 
HETATM   12  C   UNL     1       4.152  36.411  58.352  1.00  0.00     0.036 C 
HETATM   13  C   UNL     1       4.050  37.599  59.338  1.00  0.00     0.030 C 
HETATM   14  C   UNL     1       3.717  37.004  60.720  1.00  0.00     0.237 C 
HETATM   15  C   UNL     1       3.534  33.821  58.916  1.00  0.00     0.126 C 
HETATM   16  C   UNL     1       3.364  33.236  60.325  1.00  0.00     0.145 C 
HETATM   17  C   UNL     1       4.555  32.341  60.474  1.00  0.00     0.239 C 
HETATM   18  O   UNL     1       4.631  31.569  61.418  1.00  0.00    -0.272 OA
HETATM   19  N   UNL     1       5.455  32.586  59.458  1.00  0.00    -0.252 N 
HETATM   20  C   UNL     1       4.900  33.395  58.489  1.00  0.00     0.238 C 
HETATM   21  O   UNL     1       5.373  33.815  57.445  1.00  0.00    -0.272 OA
HETATM   22  C   UNL     1       3.300  34.542  65.014  1.00  0.00     0.033 A 
HETATM   23  C   UNL     1       4.629  34.341  65.383  1.00  0.00     0.039 A 
HETATM   24  H   UNL     1       0.914  34.913  63.601  1.00  0.00     0.169 HD
ENDROOT
BRANCH   1  25
HETATM   25  O   UNL     1       6.885  33.958  64.937  1.00  0.00    -0.356 OA
HETATM   26  C   UNL     1       7.770  33.102  64.223  1.00  0.00     0.210 C 
ENDBRANCH   1  25
BRANCH  19  27
HETATM   27  C   UNL     1       6.799  32.078  59.415  1.00  0.00     0.045 A 
HETATM   28  C   UNL     1       7.164  31.019  58.564  1.00  0.00     0.030 A 
HETATM   29  C   UNL     1       8.457  30.478  58.571  1.00  0.00     0.002 A 
HETATM   30  C   UNL     1       9.424  30.984  59.427  1.00  0.00     0.000 A 
HETATM   31  C   UNL     1       9.101  32.039  60.268  1.00  0.00     0.002 A 
HETATM   32  C   UNL     1       7.809  32.578  60.259  1.00  0.00     0.030 A 
ENDBRANCH  19  27
TORSDOF 2
ENDMDL
MODEL 3
REMARK VINA RESULT:      -8.2      5.372      7.734
REMARK  2 active torsions:
REMARK  status: ('A' for Active; 'I' for Inactive)
REMARK    1  A    between atoms: O_2  and  C_3 
REMARK    2  A    between atoms: N_21  and  C_22 
ROOT
HETATM    1  C   UNL     1       8.251  32.661  60.715  1.00  0.00     0.069 A 
HETATM    2  C   UNL     1       7.000  33.289  60.740  1.00  0.00     0.049 A 
HETATM    3  C   UNL     1       6.254  33.232  61.913  1.00  0.00     0.018 A 
HETATM    4  C   UNL     1       6.776  32.582  63.036  1.00  0.00     0.044 A 
HETATM    5  N   UNL     1       5.902  32.676  64.106  1.00  0.00    -0.324 N 
HETATM    6  C   UNL     1       4.766  33.380  63.760  1.00  0.00     0.264 A 
HETATM    7  O   UNL     1       3.837  33.667  64.497  1.00  0.00    -0.270 OA
HETATM    8  C   UNL     1       4.915  33.829  62.258  1.00  0.00     0.250 A 
HETATM    9  N   UNL     1       4.897  35.338  62.099  1.00  0.00    -0.043 N 
HETATM   10  H   UNL     1       5.262  35.550  61.160  1.00  0.00     0.282 HD
HETATM   11  C   UNL     1       3.446  35.730  62.192  1.00  0.00     0.204 C 
HETATM   12  C   UNL     1       3.554  37.210  61.912  1.00  0.00     0.036 C 
HETATM   13  C   UNL     1       4.808  37.606  62.727  1.00  0.00     0.030 C 
HETATM   14  C   UNL     1       5.589  36.306  63.003  1.00  0.00     0.237 C 
HETATM   15  C   UNL     1       2.746  34.667  61.375  1.00  0.00     0.126 C 
HETATM   16  C   UNL     1       3.616  33.411  61.518  1.00  0.00     0.145 C 
HETATM   17  C   UNL     1       3.843  32.982  60.102  1.00  0.00     0.239 C 
HETATM   18  O   UNL     1       4.348  31.897  59.860  1.00  0.00    -0.272 OA
HETATM   19  N   UNL     1       3.446  33.985  59.241  1.00  0.00    -0.252 N 
HETATM   20  C   UNL     1       2.751  34.968  59.912  1.00  0.00     0.238 C 
HETATM   21  O   UNL     1       2.234  35.993  59.497  1.00  0.00    -0.272 OA
HETATM   22  C   UNL     1       8.008  31.968  63.044  1.00  0.00     0.033 A 
HETATM   23  C   UNL     1       8.749  32.018  61.864  1.00  0.00     0.039 A 
HETATM   24  H   UNL     1       6.059  32.280  65.026  1.00  0.00     0.169 HD
ENDROOT
BRANCH   1  25
HETATM   25  O   UNL     1       9.100  32.634  59.644  1.00  0.00    -0.356 OA
HETATM   26  C   UNL     1       9.475  31.353  59.148  1.00  0.00     0.210 C 
ENDBRANCH   1  25
BRANCH  19  27
HETATM   27  C   UNL     1       3.728  34.011  57.831  1.00  0.00     0.045 A 
HETATM   28  C   UNL     1       3.144  33.093  56.942  1.00  0.00     0.030 A 
HETATM   29  C   UNL     1       3.470  33.074  55.578  1.00  0.00     0.002 A 
HETATM   30  C   UNL     1       4.388  33.979  55.066  1.00  0.00     0.000 A 
HETATM   31  C   UNL     1       4.970  34.910  55.914  1.00  0.00     0.002 A 
HETATM   32  C   UNL     1       4.642  34.926  57.274  1.00  0.00     0.030 A 
ENDBRANCH  19  27
TORSDOF 2
ENDMDL
MODEL 4
REMARK VINA RESULT:      -8.0      2.105      6.394
REMARK  2 active torsions:
REMARK  status: ('A' for Active; 'I' for Inactive)
REMARK    1  A    between atoms: O_2  and  C_3 
REMARK    2  A    between atoms: N_21  and  C_22 
ROOT
HETATM    1  C   UNL     1       6.048  28.043  52.766  1.00  0.00     0.069 A 
HETATM    2  C   UNL     1       6.334  28.627  54.006  1.00  0.00     0.049 A 
HETATM    3  C   UNL     1       6.830  27.816  55.020  1.00  0.00     0.018 A 
HETATM    4  C   UNL     1       7.058  26.457  54.775  1.00  0.00     0.044 A 
HETATM    5  N   UNL     1       7.592  25.840  55.893  1.00  0.00    -0.324 N 
HETATM    6  C   UNL     1       7.744  26.737  56.931  1.00  0.00     0.264 A 
HETATM    7  O   UNL     1       8.228  26.505  58.027  1.00  0.00    -0.270 OA
HETATM    8  C   UNL     1       7.259  28.147  56.426  1.00  0.00     0.250 A 
HETATM    9  N   UNL     1       8.364  29.187  56.461  1.00  0.00    -0.043 N 
HETATM   10  H   UNL     1       8.056  29.979  55.880  1.00  0.00     0.282 HD
HETATM   11  C   UNL     1       8.464  29.612  57.903  1.00  0.00     0.204 C 
HETATM   12  C   UNL     1       9.499  30.705  57.786  1.00  0.00     0.036 C 
HETATM   13  C   UNL     1      10.514  30.089  56.794  1.00  0.00     0.030 C 
HETATM   14  C   UNL     1       9.783  28.949  56.058  1.00  0.00     0.237 C 
HETATM   15  C   UNL     1       7.018  29.726  58.332  1.00  0.00     0.126 C 
HETATM   16  C   UNL     1       6.261  28.700  57.479  1.00  0.00     0.145 C 
HETATM   17  C   UNL     1       5.144  29.499  56.885  1.00  0.00     0.239 C 
HETATM   18  O   UNL     1       4.233  28.940  56.294  1.00  0.00    -0.272 OA
HETATM   19  N   UNL     1       5.370  30.845  57.090  1.00  0.00    -0.252 N 
HETATM   20  C   UNL     1       6.412  31.043  57.970  1.00  0.00     0.238 C 
HETATM   21  O   UNL     1       6.893  32.077  58.405  1.00  0.00    -0.272 OA
HETATM   22  C   UNL     1       6.801  25.860  53.561  1.00  0.00     0.033 A 
HETATM   23  C   UNL     1       6.293  26.674  52.549  1.00  0.00     0.039 A 
HETATM   24  H   UNL     1       7.838  24.859  55.958  1.00  0.00     0.169 HD
ENDROOT
BRANCH   1  25
HETATM   25  O   UNL     1       5.563  28.707  51.674  1.00  0.00    -0.356 OA
HETATM   26  C   UNL     1       5.324  27.935  50.502  1.00  0.00     0.210 C 
ENDBRANCH   1  25
BRANCH  19  27
HETATM   27  C   UNL     1       4.628  31.904  56.463  1.00  0.00     0.045 A 
HETATM   28  C   UNL     1       4.799  32.226  55.105  1.00  0.00     0.030 A 
HETATM   29  C   UNL     1       4.126  33.302  54.510  1.00  0.00     0.002 A 
HETATM   30  C   UNL     1       3.257  34.084  55.257  1.00  0.00     0.000 A 
HETATM   31  C   UNL     1       3.052  33.782  56.595  1.00  0.00     0.002 A 
HETATM   32  C   UNL     1       3.726  32.708  57.187  1.00  0.00     0.030 A 
ENDBRANCH  19  27
TORSDOF 2
ENDMDL
MODEL 5
REMARK VINA RESULT:      -7.7      5.646      8.341
REMARK  2 active torsions:
REMARK  status: ('A' for Active; 'I' for Inactive)
REMARK    1  A    between atoms: O_2  and  C_3 
REMARK    2  A    between atoms: N_21  and  C_22 
ROOT
HETATM    1  C   UNL     1       7.721  32.798  62.432  1.00  0.00     0.069 A 
HETATM    2  C   UNL     1       6.738  33.676  61.959  1.00  0.00     0.049 A 
HETATM    3  C   UNL     1       6.013  34.418  62.886  1.00  0.00     0.018 A 
HETATM    4  C   UNL     1       6.297  34.294  64.250  1.00  0.00     0.044 A 
HETATM    5  N   UNL     1       5.499  35.144  64.996  1.00  0.00    -0.324 N 
HETATM    6  C   UNL     1       4.650  35.869  64.184  1.00  0.00     0.264 A 
HETATM    7  O   UNL     1       3.861  36.729  64.542  1.00  0.00    -0.270 OA
HETATM    8  C   UNL     1       4.935  35.453  62.693  1.00  0.00     0.250 A 
HETATM    9  N   UNL     1       5.403  36.621  61.844  1.00  0.00    -0.043 N 
HETATM   10  H   UNL     1       5.817  36.228  60.987  1.00  0.00     0.282 HD
HETATM   11  C   UNL     1       4.154  37.394  61.509  1.00  0.00     0.204 C 
HETATM   12  C   UNL     1       4.732  38.443  60.589  1.00  0.00     0.036 C 
HETATM   13  C   UNL     1       6.047  38.823  61.311  1.00  0.00     0.030 C 
HETATM   14  C   UNL     1       6.369  37.673  62.286  1.00  0.00     0.237 C 
HETATM   15  C   UNL     1       3.151  36.309  61.187  1.00  0.00     0.126 C 
HETATM   16  C   UNL     1       3.571  35.104  62.039  1.00  0.00     0.145 C 
HETATM   17  C   UNL     1       3.650  33.987  61.046  1.00  0.00     0.239 C 
HETATM   18  O   UNL     1       3.780  32.834  61.425  1.00  0.00    -0.272 OA
HETATM   19  N   UNL     1       3.596  34.496  59.764  1.00  0.00    -0.252 N 
HETATM   20  C   UNL     1       3.253  35.831  59.775  1.00  0.00     0.238 C 
HETATM   21  O   UNL     1       3.093  36.613  58.852  1.00  0.00    -0.272 OA
HETATM   22  C   UNL     1       7.267  33.450  64.741  1.00  0.00     0.033 A 
HETATM   23  C   UNL     1       7.986  32.700  63.811  1.00  0.00     0.039 A 
HETATM   24  H   UNL     1       5.520  35.231  66.006  1.00  0.00     0.169 HD
ENDROOT
BRANCH   1  25
HETATM   25  O   UNL     1       8.517  32.009  61.649  1.00  0.00    -0.356 OA
HETATM   26  C   UNL     1       7.872  31.241  60.639  1.00  0.00     0.210 C 
ENDBRANCH   1  25
BRANCH  19  27
HETATM   27  C   UNL     1       3.873  33.741  58.572  1.00  0.00     0.045 A 
HETATM   28  C   UNL     1       5.061  33.006  58.419  1.00  0.00     0.030 A 
HETATM   29  C   UNL     1       5.361  32.325  57.232  1.00  0.00     0.002 A 
HETATM   30  C   UNL     1       4.477  32.357  56.163  1.00  0.00     0.000 A 
HETATM   31  C   UNL     1       3.288  33.060  56.287  1.00  0.00     0.002 A 
HETATM   32  C   UNL     1       2.991  33.739  57.474  1.00  0.00     0.030 A 
ENDBRANCH  19  27
TORSDOF 2
ENDMDL
MODEL 6
REMARK VINA RESULT:      -7.5      4.837      8.358
REMARK  2 active torsions:
REMARK  status: ('A' for Active; 'I' for Inactive)
REMARK    1  A    between atoms: O_2  and  C_3 
REMARK    2  A    between atoms: N_21  and  C_22 
ROOT
HETATM    1  C   UNL     1       4.169  28.007  52.858  1.00  0.00     0.069 A 
HETATM    2  C   UNL     1       4.013  28.608  51.603  1.00  0.00     0.049 A 
HETATM    3  C   UNL     1       4.422  27.902  50.477  1.00  0.00     0.018 A 
HETATM    4  C   UNL     1       4.947  26.613  50.618  1.00  0.00     0.044 A 
HETATM    5  N   UNL     1       5.250  26.069  49.381  1.00  0.00    -0.324 N 
HETATM    6  C   UNL     1       4.951  26.953  48.363  1.00  0.00     0.264 A 
HETATM    7  O   UNL     1       5.065  26.747  47.165  1.00  0.00    -0.270 OA
HETATM    8  C   UNL     1       4.353  28.256  49.014  1.00  0.00     0.250 A 
HETATM    9  N   UNL     1       2.934  28.534  48.554  1.00  0.00    -0.043 N 
HETATM   10  H   UNL     1       2.531  29.219  49.208  1.00  0.00     0.282 HD
HETATM   11  C   UNL     1       3.073  29.146  47.184  1.00  0.00     0.204 C 
HETATM   12  C   UNL     1       1.628  29.472  46.892  1.00  0.00     0.036 C 
HETATM   13  C   UNL     1       0.896  28.214  47.418  1.00  0.00     0.030 C 
HETATM   14  C   UNL     1       1.868  27.502  48.380  1.00  0.00     0.237 C 
HETATM   15  C   UNL     1       4.238  30.096  47.345  1.00  0.00     0.126 C 
HETATM   16  C   UNL     1       5.127  29.466  48.426  1.00  0.00     0.145 C 
HETATM   17  C   UNL     1       5.329  30.581  49.403  1.00  0.00     0.239 C 
HETATM   18  O   UNL     1       6.150  30.473  50.301  1.00  0.00    -0.272 OA
HETATM   19  N   UNL     1       4.454  31.612  49.125  1.00  0.00    -0.252 N 
HETATM   20  C   UNL     1       3.831  31.417  47.911  1.00  0.00     0.238 C 
HETATM   21  O   UNL     1       3.013  32.108  47.323  1.00  0.00    -0.272 OA
HETATM   22  C   UNL     1       5.099  25.993  51.837  1.00  0.00     0.033 A 
HETATM   23  C   UNL     1       4.697  26.707  52.966  1.00  0.00     0.039 A 
HETATM   24  H   UNL     1       5.645  25.148  49.227  1.00  0.00     0.169 HD
ENDROOT
BRANCH   1  25
HETATM   25  O   UNL     1       3.812  28.569  54.052  1.00  0.00    -0.356 OA
HETATM   26  C   UNL     1       4.590  28.218  55.191  1.00  0.00     0.210 C 
ENDBRANCH   1  25
BRANCH  19  27
HETATM   27  C   UNL     1       4.212  32.736  49.988  1.00  0.00     0.045 A 
HETATM   28  C   UNL     1       4.989  33.905  49.917  1.00  0.00     0.030 A 
HETATM   29  C   UNL     1       4.798  34.975  50.803  1.00  0.00     0.002 A 
HETATM   30  C   UNL     1       3.821  34.905  51.784  1.00  0.00     0.000 A 
HETATM   31  C   UNL     1       3.026  33.771  51.872  1.00  0.00     0.002 A 
HETATM   32  C   UNL     1       3.218  32.705  50.985  1.00  0.00     0.030 A 
ENDBRANCH  19  27
TORSDOF 2
ENDMDL
MODEL 7
REMARK VINA RESULT:      -7.4      5.750     10.173
REMARK  2 active torsions:
REMARK  status: ('A' for Active; 'I' for Inactive)
REMARK    1  A    between atoms: O_2  and  C_3 
REMARK    2  A    between atoms: N_21  and  C_22 
ROOT
HETATM    1  C   UNL     1       4.701  33.994  57.666  1.00  0.00     0.069 A 
HETATM    2  C   UNL     1       4.794  34.148  59.055  1.00  0.00     0.049 A 
HETATM    3  C   UNL     1       4.301  33.134  59.868  1.00  0.00     0.018 A 
HETATM    4  C   UNL     1       3.756  31.982  59.289  1.00  0.00     0.044 A 
HETATM    5  N   UNL     1       3.366  31.081  60.266  1.00  0.00    -0.324 N 
HETATM    6  C   UNL     1       3.623  31.575  61.529  1.00  0.00     0.264 A 
HETATM    7  O   UNL     1       3.432  30.997  62.587  1.00  0.00    -0.270 OA
HETATM    8  C   UNL     1       4.289  32.992  61.368  1.00  0.00     0.250 A 
HETATM    9  N   UNL     1       5.684  33.048  61.964  1.00  0.00    -0.043 N 
HETATM   10  H   UNL     1       6.142  33.891  61.589  1.00  0.00     0.282 HD
HETATM   11  C   UNL     1       5.476  33.189  63.449  1.00  0.00     0.204 C 
HETATM   12  C   UNL     1       6.908  33.343  63.903  1.00  0.00     0.036 C 
HETATM   13  C   UNL     1       7.641  32.293  63.034  1.00  0.00     0.030 C 
HETATM   14  C   UNL     1       6.714  31.971  61.846  1.00  0.00     0.237 C 
HETATM   15  C   UNL     1       4.345  34.187  63.548  1.00  0.00     0.126 C 
HETATM   16  C   UNL     1       3.509  33.978  62.278  1.00  0.00     0.145 C 
HETATM   17  C   UNL     1       3.393  35.357  61.708  1.00  0.00     0.239 C 
HETATM   18  O   UNL     1       2.625  35.579  60.785  1.00  0.00    -0.272 OA
HETATM   19  N   UNL     1       4.273  36.205  62.350  1.00  0.00    -0.252 N 
HETATM   20  C   UNL     1       4.816  35.602  63.464  1.00  0.00     0.238 C 
HETATM   21  O   UNL     1       5.612  36.031  64.285  1.00  0.00    -0.272 OA
HETATM   22  C   UNL     1       3.665  31.797  57.929  1.00  0.00     0.033 A 
HETATM   23  C   UNL     1       4.151  32.821  57.115  1.00  0.00     0.039 A 
HETATM   24  H   UNL     1       2.942  30.177  60.091  1.00  0.00     0.169 HD
ENDROOT
BRANCH   1  25
HETATM   25  O   UNL     1       5.143  34.896  56.740  1.00  0.00    -0.356 OA
HETATM   26  C   UNL     1       5.038  34.521  55.371  1.00  0.00     0.210 C 
ENDBRANCH   1  25
BRANCH  19  27
HETATM   27  C   UNL     1       4.592  37.536  61.913  1.00  0.00     0.045 A 
HETATM   28  C   UNL     1       5.901  37.906  61.557  1.00  0.00     0.030 A 
HETATM   29  C   UNL     1       6.225  39.221  61.195  1.00  0.00     0.002 A 
HETATM   30  C   UNL     1       5.246  40.203  61.175  1.00  0.00     0.000 A 
HETATM   31  C   UNL     1       3.941  39.868  61.505  1.00  0.00     0.002 A 
HETATM   32  C   UNL     1       3.620  38.554  61.865  1.00  0.00     0.030 A 
ENDBRANCH  19  27
TORSDOF 2
ENDMDL
MODEL 8
REMARK VINA RESULT:      -7.4      2.683      5.225
REMARK  2 active torsions:
REMARK  status: ('A' for Active; 'I' for Inactive)
REMARK    1  A    between atoms: O_2  and  C_3 
REMARK    2  A    between atoms: N_21  and  C_22 
ROOT
HETATM    1  C   UNL     1       3.597  30.998  54.875  1.00  0.00     0.069 A 
HETATM    2  C   UNL     1       4.254  29.803  54.557  1.00  0.00     0.049 A 
HETATM    3  C   UNL     1       5.454  29.517  55.199  1.00  0.00     0.018 A 
HETATM    4  C   UNL     1       5.958  30.404  56.157  1.00  0.00     0.044 A 
HETATM    5  N   UNL     1       7.132  29.917  56.707  1.00  0.00    -0.324 N 
HETATM    6  C   UNL     1       7.472  28.699  56.152  1.00  0.00     0.264 A 
HETATM    7  O   UNL     1       8.425  28.001  56.461  1.00  0.00    -0.270 OA
HETATM    8  C   UNL     1       6.362  28.319  55.102  1.00  0.00     0.250 A 
HETATM    9  N   UNL     1       5.650  27.026  55.453  1.00  0.00    -0.043 N 
HETATM   10  H   UNL     1       4.787  26.991  54.892  1.00  0.00     0.282 HD
HETATM   11  C   UNL     1       6.589  25.927  55.028  1.00  0.00     0.204 C 
HETATM   12  C   UNL     1       5.733  24.718  55.322  1.00  0.00     0.036 C 
HETATM   13  C   UNL     1       5.094  25.094  56.681  1.00  0.00     0.030 C 
HETATM   14  C   UNL     1       5.226  26.623  56.828  1.00  0.00     0.237 C 
HETATM   15  C   UNL     1       7.107  26.411  53.692  1.00  0.00     0.126 C 
HETATM   16  C   UNL     1       7.084  27.942  53.780  1.00  0.00     0.145 C 
HETATM   17  C   UNL     1       6.334  28.350  52.551  1.00  0.00     0.239 C 
HETATM   18  O   UNL     1       6.296  29.523  52.213  1.00  0.00    -0.272 OA
HETATM   19  N   UNL     1       5.733  27.246  51.982  1.00  0.00    -0.252 N 
HETATM   20  C   UNL     1       6.185  26.081  52.563  1.00  0.00     0.238 C 
HETATM   21  O   UNL     1       5.902  24.918  52.325  1.00  0.00    -0.272 OA
HETATM   22  C   UNL     1       5.326  31.578  56.500  1.00  0.00     0.033 A 
HETATM   23  C   UNL     1       4.128  31.867  55.847  1.00  0.00     0.039 A 
HETATM   24  H   UNL     1       7.682  30.383  57.418  1.00  0.00     0.169 HD
ENDROOT
BRANCH   1  25
HETATM   25  O   UNL     1       2.412  31.415  54.335  1.00  0.00    -0.356 OA
HETATM   26  C   UNL     1       1.792  32.548  54.933  1.00  0.00     0.210 C 
ENDBRANCH   1  25
BRANCH  19  27
HETATM   27  C   UNL     1       4.755  27.298  50.929  1.00  0.00     0.045 A 
HETATM   28  C   UNL     1       4.780  26.399  49.849  1.00  0.00     0.030 A 
HETATM   29  C   UNL     1       3.868  26.493  48.788  1.00  0.00     0.002 A 
HETATM   30  C   UNL     1       2.901  27.487  48.781  1.00  0.00     0.000 A 
HETATM   31  C   UNL     1       2.839  28.381  49.841  1.00  0.00     0.002 A 
HETATM   32  C   UNL     1       3.750  28.285  50.898  1.00  0.00     0.030 A 
ENDBRANCH  19  27
TORSDOF 2
ENDMDL
MODEL 9
REMARK VINA RESULT:      -7.2      5.027      8.261
REMARK  2 active torsions:
REMARK  status: ('A' for Active; 'I' for Inactive)
REMARK    1  A    between atoms: O_2  and  C_3 
REMARK    2  A    between atoms: N_21  and  C_22 
ROOT
HETATM    1  C   UNL     1       3.930  29.465  53.137  1.00  0.00     0.069 A 
HETATM    2  C   UNL     1       3.938  29.626  51.746  1.00  0.00     0.049 A 
HETATM    3  C   UNL     1       4.213  28.518  50.953  1.00  0.00     0.018 A 
HETATM    4  C   UNL     1       4.444  27.275  51.552  1.00  0.00     0.044 A 
HETATM    5  N   UNL     1       4.654  26.299  50.592  1.00  0.00    -0.324 N 
HETATM    6  C   UNL     1       4.578  26.830  49.319  1.00  0.00     0.264 A 
HETATM    7  O   UNL     1       4.674  26.215  48.270  1.00  0.00    -0.270 OA
HETATM    8  C   UNL     1       4.258  28.366  49.455  1.00  0.00     0.250 A 
HETATM    9  N   UNL     1       2.944  28.744  48.796  1.00  0.00    -0.043 N 
HETATM   10  H   UNL     1       2.682  29.674  49.152  1.00  0.00     0.282 HD
HETATM   11  C   UNL     1       3.246  28.821  47.322  1.00  0.00     0.204 C 
HETATM   12  C   UNL     1       1.913  29.304  46.804  1.00  0.00     0.036 C 
HETATM   13  C   UNL     1       0.914  28.464  47.636  1.00  0.00     0.030 C 
HETATM   14  C   UNL     1       1.685  27.942  48.864  1.00  0.00     0.237 C 
HETATM   15  C   UNL     1       4.584  29.523  47.278  1.00  0.00     0.126 C 
HETATM   16  C   UNL     1       5.289  29.132  48.584  1.00  0.00     0.145 C 
HETATM   17  C   UNL     1       5.702  30.449  49.163  1.00  0.00     0.239 C 
HETATM   18  O   UNL     1       6.459  30.491  50.121  1.00  0.00    -0.272 OA
HETATM   19  N   UNL     1       5.077  31.476  48.484  1.00  0.00    -0.252 N 
HETATM   20  C   UNL     1       4.457  31.010  47.344  1.00  0.00     0.238 C 
HETATM   21  O   UNL     1       3.823  31.608  46.490  1.00  0.00    -0.272 OA
HETATM   22  C   UNL     1       4.428  27.084  52.915  1.00  0.00     0.033 A 
HETATM   23  C   UNL     1       4.162  28.200  53.709  1.00  0.00     0.039 A 
HETATM   24  H   UNL     1       4.844  25.322  50.783  1.00  0.00     0.169 HD
ENDROOT
BRANCH   1  25
HETATM   25  O   UNL     1       3.672  30.453  54.045  1.00  0.00    -0.356 OA
HETATM   26  C   UNL     1       3.854  30.132  55.420  1.00  0.00     0.210 C 
ENDBRANCH   1  25
BRANCH  19  27
HETATM   27  C   UNL     1       5.062  32.848  48.910  1.00  0.00     0.045 A 
HETATM   28  C   UNL     1       6.003  33.781  48.439  1.00  0.00     0.030 A 
HETATM   29  C   UNL     1       6.031  35.103  48.906  1.00  0.00     0.002 A 
HETATM   30  C   UNL     1       5.114  35.530  49.855  1.00  0.00     0.000 A 
HETATM   31  C   UNL     1       4.162  34.639  50.329  1.00  0.00     0.002 A 
HETATM   32  C   UNL     1       4.136  33.320  49.861  1.00  0.00     0.030 A 
ENDBRANCH  19  27
TORSDOF 2
ENDMDL
MODEL 10
REMARK VINA RESULT:      -6.6      5.416      8.524
REMARK  2 active torsions:
REMARK  status: ('A' for Active; 'I' for Inactive)
REMARK    1  A    between atoms: O_2  and  C_3 
REMARK    2  A    between atoms: N_21  and  C_22 
ROOT
HETATM    1  C   UNL     1       3.821  31.236  52.900  1.00  0.00     0.069 A 
HETATM    2  C   UNL     1       3.899  31.320  51.505  1.00  0.00     0.049 A 
HETATM    3  C   UNL     1       3.662  30.172  50.758  1.00  0.00     0.018 A 
HETATM    4  C   UNL     1       3.327  28.978  51.407  1.00  0.00     0.044 A 
HETATM    5  N   UNL     1       3.090  27.970  50.487  1.00  0.00    -0.324 N 
HETATM    6  C   UNL     1       3.253  28.429  49.195  1.00  0.00     0.264 A 
HETATM    7  O   UNL     1       3.071  27.791  48.170  1.00  0.00    -0.270 OA
HETATM    8  C   UNL     1       3.637  29.954  49.268  1.00  0.00     0.250 A 
HETATM    9  N   UNL     1       2.620  30.841  48.572  1.00  0.00    -0.043 N 
HETATM   10  H   UNL     1       2.790  31.806  48.889  1.00  0.00     0.282 HD
HETATM   11  C   UNL     1       2.925  30.717  47.102  1.00  0.00     0.204 C 
HETATM   12  C   UNL     1       1.937  31.713  46.543  1.00  0.00     0.036 C 
HETATM   13  C   UNL     1       0.672  31.428  47.387  1.00  0.00     0.030 C 
HETATM   14  C   UNL     1       1.137  30.672  48.647  1.00  0.00     0.237 C 
HETATM   15  C   UNL     1       4.435  30.763  47.056  1.00  0.00     0.126 C 
HETATM   16  C   UNL     1       4.899  30.157  48.387  1.00  0.00     0.145 C 
HETATM   17  C   UNL     1       5.846  31.184  48.925  1.00  0.00     0.239 C 
HETATM   18  O   UNL     1       6.544  30.931  49.894  1.00  0.00    -0.272 OA
HETATM   19  N   UNL     1       5.732  32.352  48.198  1.00  0.00    -0.252 N 
HETATM   20  C   UNL     1       4.971  32.158  47.065  1.00  0.00     0.238 C 
HETATM   21  O   UNL     1       4.661  32.937  46.179  1.00  0.00    -0.272 OA
HETATM   22  C   UNL     1       3.229  28.869  52.775  1.00  0.00     0.033 A 
HETATM   23  C   UNL     1       3.477  30.020  53.522  1.00  0.00     0.039 A 
HETATM   24  H   UNL     1       2.834  27.017  50.717  1.00  0.00     0.169 HD
ENDROOT
BRANCH   1  25
HETATM   25  O   UNL     1       4.021  32.273  53.767  1.00  0.00    -0.356 OA
HETATM   26  C   UNL     1       4.650  33.439  53.246  1.00  0.00     0.210 C 
ENDBRANCH   1  25
BRANCH  19  27
HETATM   27  C   UNL     1       6.318  33.610  48.573  1.00  0.00     0.045 A 
HETATM   28  C   UNL     1       7.492  34.091  47.967  1.00  0.00     0.030 A 
HETATM   29  C   UNL     1       8.101  35.284  48.379  1.00  0.00     0.002 A 
HETATM   30  C   UNL     1       7.550  36.032  49.409  1.00  0.00     0.000 A 
HETATM   31  C   UNL     1       6.384  35.594  50.018  1.00  0.00     0.002 A 
HETATM   32  C   UNL     1       5.777  34.402  49.604  1.00  0.00     0.030 A 
ENDBRANCH  19  27
TORSDOF 2
ENDMDL
