MODEL 1
REMARK VINA RESULT:      -8.1      0.000      0.000
REMARK  10 active torsions:
REMARK  status: ('A' for Active; 'I' for Inactive)
REMARK    1  A    between atoms: O_2  and  C_3 
REMARK    2  A    between atoms: C_4  and  C_5 
REMARK       I    between atoms: C_5  and  N_6 
REMARK    3  A    between atoms: N_6  and  C_7 
REMARK    4  A    between atoms: C_7  and  N_8 
REMARK    5  A    between atoms: N_8  and  C_9 
REMARK    6  A    between atoms: C_10  and  C_11 
REMARK       I    between atoms: C_11  and  N_12 
REMARK    7  A    between atoms: N_12  and  C_13 
REMARK    8  A    between atoms: C_13  and  C_14 
REMARK    9  A    between atoms: C_14  and  C_15 
REMARK   10  A    between atoms: C_15  and  O_16 
ROOT
HETATM    1  N   UNL     1       7.166  28.903  57.315  1.00  0.00    -0.332 N 
HETATM    2  H   UNL     1       6.657  28.784  58.188  1.00  0.00     0.168 HD
ENDROOT
BRANCH   1   3
HETATM    3  C   UNL     1       6.395  28.801  56.211  1.00  0.00     0.179 C 
HETATM    4  S   UNL     1       5.323  30.035  55.854  1.00  0.00    -0.040 SA
BRANCH   3   5
HETATM    5  N   UNL     1       6.404  27.695  55.418  1.00  0.00    -0.299 N 
HETATM    6  C   UNL     1       7.281  27.457  54.362  1.00  0.00     0.260 C 
HETATM    7  O   UNL     1       7.856  28.327  53.715  1.00  0.00    -0.267 OA
HETATM    8  H   UNL     1       6.179  26.858  55.946  1.00  0.00     0.171 HD
BRANCH   6   9
HETATM    9  C   UNL     1       7.500  26.015  53.992  1.00  0.00     0.065 A 
HETATM   10  C   UNL     1       7.769  24.993  54.927  1.00  0.00     0.084 A 
HETATM   11  C   UNL     1       7.994  23.687  54.470  1.00  0.00     0.038 A 
HETATM   12  C   UNL     1       7.965  23.396  53.104  1.00  0.00     0.003 A 
HETATM   13  C   UNL     1       7.708  24.403  52.180  1.00  0.00     0.001 A 
HETATM   14  C   UNL     1       7.480  25.706  52.621  1.00  0.00     0.020 A 
BRANCH  10  15
HETATM   15  O   UNL     1       7.789  25.338  56.255  1.00  0.00    -0.355 OA
HETATM   16  C   UNL     1       8.459  24.464  57.159  1.00  0.00     0.210 C 
ENDBRANCH  10  15
ENDBRANCH   6   9
ENDBRANCH   3   5
ENDBRANCH   1   3
BRANCH   1  17
HETATM   17  C   UNL     1       8.490  29.388  57.472  1.00  0.00     0.050 A 
HETATM   18  C   UNL     1       8.712  30.583  58.191  1.00  0.00     0.058 A 
HETATM   19  C   UNL     1       9.986  31.168  58.222  1.00  0.00     0.019 A 
HETATM   20  C   UNL     1      11.052  30.556  57.566  1.00  0.00     0.001 A 
HETATM   21  C   UNL     1      10.848  29.362  56.879  1.00  0.00     0.002 A 
HETATM   22  C   UNL     1       9.576  28.782  56.827  1.00  0.00     0.030 A 
BRANCH  18  23
HETATM   23  C   UNL     1       7.639  31.262  58.972  1.00  0.00     0.253 C 
HETATM   24  N   UNL     1       7.597  30.945  60.315  1.00  0.00    -0.357 N 
HETATM   25  H   UNL     1       8.422  30.491  60.703  1.00  0.00     0.162 HD
HETATM   26  O   UNL     1       6.876  32.053  58.431  1.00  0.00    -0.268 OA
BRANCH  24  27
HETATM   27  C   UNL     1       6.676  31.590  61.227  1.00  0.00     0.125 C 
BRANCH  27  28
HETATM   28  C   UNL     1       7.279  31.680  62.621  1.00  0.00     0.046 C 
BRANCH  28  29
HETATM   29  C   UNL     1       8.709  31.163  62.646  1.00  0.00     0.165 C 
BRANCH  29  30
HETATM   30  O   UNL     1       8.705  29.743  62.716  1.00  0.00    -0.401 OA
HETATM   31  H   UNL     1       9.628  29.443  62.648  1.00  0.00     0.209 HD
ENDBRANCH  29  30
ENDBRANCH  28  29
ENDBRANCH  27  28
ENDBRANCH  24  27
ENDBRANCH  18  23
ENDBRANCH   1  17
TORSDOF 10
ENDMDL
MODEL 2
REMARK VINA RESULT:      -8.1      2.225      7.725
REMARK  10 active torsions:
REMARK  status: ('A' for Active; 'I' for Inactive)
REMARK    1  A    between atoms: O_2  and  C_3 
REMARK    2  A    between atoms: C_4  and  C_5 
REMARK       I    between atoms: C_5  and  N_6 
REMARK    3  A    between atoms: N_6  and  C_7 
REMARK    4  A    between atoms: C_7  and  N_8 
REMARK    5  A    between atoms: N_8  and  C_9 
REMARK    6  A    between atoms: C_10  and  C_11 
REMARK       I    between atoms: C_11  and  N_12 
REMARK    7  A    between atoms: N_12  and  C_13 
REMARK    8  A    between atoms: C_13  and  C_14 
REMARK    9  A    between atoms: C_14  and  C_15 
REMARK   10  A    between atoms: C_15  and  O_16 
ROOT
HETATM    1  N   UNL     1       5.511  26.067  55.373  1.00  0.00    -0.332 N 
HETATM    2  H   UNL     1       5.149  25.330  55.974  1.00  0.00     0.168 HD
ENDROOT
BRANCH   1   3
HETATM    3  C   UNL     1       5.584  27.277  55.968  1.00  0.00     0.179 C 
HETATM    4  S   UNL     1       4.247  28.282  55.927  1.00  0.00    -0.040 SA
BRANCH   3   5
HETATM    5  N   UNL     1       6.731  27.739  56.535  1.00  0.00    -0.299 N 
HETATM    6  C   UNL     1       7.731  28.456  55.883  1.00  0.00     0.260 C 
HETATM    7  O   UNL     1       7.958  28.406  54.677  1.00  0.00    -0.267 OA
HETATM    8  H   UNL     1       6.574  28.050  57.488  1.00  0.00     0.171 HD
BRANCH   6   9
HETATM    9  C   UNL     1       8.598  29.327  56.749  1.00  0.00     0.065 A 
HETATM   10  C   UNL     1       8.107  30.138  57.795  1.00  0.00     0.084 A 
HETATM   11  C   UNL     1       9.000  30.941  58.517  1.00  0.00     0.038 A 
HETATM   12  C   UNL     1      10.361  30.952  58.203  1.00  0.00     0.003 A 
HETATM   13  C   UNL     1      10.847  30.160  57.168  1.00  0.00     0.001 A 
HETATM   14  C   UNL     1       9.969  29.355  56.443  1.00  0.00     0.020 A 
BRANCH  10  15
HETATM   15  O   UNL     1       6.761  30.089  58.055  1.00  0.00    -0.355 OA
HETATM   16  C   UNL     1       6.019  31.301  57.952  1.00  0.00     0.210 C 
ENDBRANCH  10  15
ENDBRANCH   6   9
ENDBRANCH   3   5
ENDBRANCH   1   3
BRANCH   1  17
HETATM   17  C   UNL     1       6.077  25.603  54.158  1.00  0.00     0.050 A 
HETATM   18  C   UNL     1       7.181  24.723  54.196  1.00  0.00     0.058 A 
HETATM   19  C   UNL     1       7.858  24.381  53.017  1.00  0.00     0.019 A 
HETATM   20  C   UNL     1       7.426  24.884  51.791  1.00  0.00     0.001 A 
HETATM   21  C   UNL     1       6.320  25.728  51.741  1.00  0.00     0.002 A 
HETATM   22  C   UNL     1       5.651  26.090  52.915  1.00  0.00     0.030 A 
BRANCH  18  23
HETATM   23  C   UNL     1       7.662  24.093  55.458  1.00  0.00     0.253 C 
HETATM   24  N   UNL     1       7.738  22.715  55.436  1.00  0.00    -0.357 N 
HETATM   25  H   UNL     1       7.705  22.270  54.520  1.00  0.00     0.162 HD
HETATM   26  O   UNL     1       7.978  24.780  56.421  1.00  0.00    -0.268 OA
BRANCH  24  27
HETATM   27  C   UNL     1       8.275  21.958  56.548  1.00  0.00     0.125 C 
BRANCH  27  28
HETATM   28  C   UNL     1       8.114  20.464  56.305  1.00  0.00     0.046 C 
BRANCH  28  29
HETATM   29  C   UNL     1       9.022  19.979  55.187  1.00  0.00     0.165 C 
BRANCH  29  30
HETATM   30  O   UNL     1       8.316  19.994  53.953  1.00  0.00    -0.401 OA
HETATM   31  H   UNL     1       7.469  20.448  54.104  1.00  0.00     0.209 HD
ENDBRANCH  29  30
ENDBRANCH  28  29
ENDBRANCH  27  28
ENDBRANCH  24  27
ENDBRANCH  18  23
ENDBRANCH   1  17
TORSDOF 10
ENDMDL
MODEL 3
REMARK VINA RESULT:      -8.0      5.621      8.159
REMARK  10 active torsions:
REMARK  status: ('A' for Active; 'I' for Inactive)
REMARK    1  A    between atoms: O_2  and  C_3 
REMARK    2  A    between atoms: C_4  and  C_5 
REMARK       I    between atoms: C_5  and  N_6 
REMARK    3  A    between atoms: N_6  and  C_7 
REMARK    4  A    between atoms: C_7  and  N_8 
REMARK    5  A    between atoms: N_8  and  C_9 
REMARK    6  A    between atoms: C_10  and  C_11 
REMARK       I    between atoms: C_11  and  N_12 
REMARK    7  A    between atoms: N_12  and  C_13 
REMARK    8  A    between atoms: C_13  and  C_14 
REMARK    9  A    between atoms: C_14  and  C_15 
REMARK   10  A    between atoms: C_15  and  O_16 
ROOT
HETATM    1  N   UNL     1       4.657  26.386  53.677  1.00  0.00    -0.332 N 
HETATM    2  H   UNL     1       4.046  25.693  53.252  1.00  0.00     0.168 HD
ENDROOT
BRANCH   1   3
HETATM    3  C   UNL     1       5.796  25.874  54.192  1.00  0.00     0.179 C 
HETATM    4  S   UNL     1       6.944  26.918  54.817  1.00  0.00    -0.040 SA
BRANCH   3   5
HETATM    5  N   UNL     1       6.077  24.543  54.151  1.00  0.00    -0.299 N 
HETATM    6  C   UNL     1       7.116  23.951  53.438  1.00  0.00     0.260 C 
HETATM    7  O   UNL     1       7.642  24.427  52.436  1.00  0.00    -0.267 OA
HETATM    8  H   UNL     1       5.905  24.100  55.048  1.00  0.00     0.171 HD
BRANCH   6   9
HETATM    9  C   UNL     1       7.594  22.617  53.942  1.00  0.00     0.065 A 
HETATM   10  C   UNL     1       7.795  22.315  55.307  1.00  0.00     0.084 A 
HETATM   11  C   UNL     1       8.278  21.048  55.665  1.00  0.00     0.038 A 
HETATM   12  C   UNL     1       8.569  20.095  54.686  1.00  0.00     0.003 A 
HETATM   13  C   UNL     1       8.380  20.392  53.341  1.00  0.00     0.001 A 
HETATM   14  C   UNL     1       7.897  21.647  52.971  1.00  0.00     0.020 A 
BRANCH  10  15
HETATM   15  O   UNL     1       7.495  23.291  56.222  1.00  0.00    -0.355 OA
HETATM   16  C   UNL     1       8.559  23.802  57.022  1.00  0.00     0.210 C 
ENDBRANCH  10  15
ENDBRANCH   6   9
ENDBRANCH   3   5
ENDBRANCH   1   3
BRANCH   1  17
HETATM   17  C   UNL     1       4.292  27.730  53.407  1.00  0.00     0.050 A 
HETATM   18  C   UNL     1       4.383  28.224  52.087  1.00  0.00     0.058 A 
HETATM   19  C   UNL     1       4.185  29.587  51.823  1.00  0.00     0.019 A 
HETATM   20  C   UNL     1       3.866  30.461  52.861  1.00  0.00     0.001 A 
HETATM   21  C   UNL     1       3.745  29.977  54.161  1.00  0.00     0.002 A 
HETATM   22  C   UNL     1       3.960  28.622  54.435  1.00  0.00     0.030 A 
BRANCH  18  23
HETATM   23  C   UNL     1       4.655  27.343  50.917  1.00  0.00     0.253 C 
HETATM   24  N   UNL     1       3.664  27.315  49.957  1.00  0.00    -0.357 N 
HETATM   25  H   UNL     1       2.969  28.058  49.996  1.00  0.00     0.162 HD
HETATM   26  O   UNL     1       5.705  26.716  50.835  1.00  0.00    -0.268 OA
BRANCH  24  27
HETATM   27  C   UNL     1       3.816  26.583  48.717  1.00  0.00     0.125 C 
BRANCH  27  28
HETATM   28  C   UNL     1       3.927  27.541  47.541  1.00  0.00     0.046 C 
BRANCH  28  29
HETATM   29  C   UNL     1       5.366  27.975  47.307  1.00  0.00     0.165 C 
BRANCH  29  30
HETATM   30  O   UNL     1       6.157  26.846  46.957  1.00  0.00    -0.401 OA
HETATM   31  H   UNL     1       5.568  26.188  46.550  1.00  0.00     0.209 HD
ENDBRANCH  29  30
ENDBRANCH  28  29
ENDBRANCH  27  28
ENDBRANCH  24  27
ENDBRANCH  18  23
ENDBRANCH   1  17
TORSDOF 10
ENDMDL
MODEL 4
REMARK VINA RESULT:      -8.0      3.140      7.833
REMARK  10 active torsions:
REMARK  status: ('A' for Active; 'I' for Inactive)
REMARK    1  A    between atoms: O_2  and  C_3 
REMARK    2  A    between atoms: C_4  and  C_5 
REMARK       I    between atoms: C_5  and  N_6 
REMARK    3  A    between atoms: N_6  and  C_7 
REMARK    4  A    between atoms: C_7  and  N_8 
REMARK    5  A    between atoms: N_8  and  C_9 
REMARK    6  A    between atoms: C_10  and  C_11 
REMARK       I    between atoms: C_11  and  N_12 
REMARK    7  A    between atoms: N_12  and  C_13 
REMARK    8  A    between atoms: C_13  and  C_14 
REMARK    9  A    between atoms: C_14  and  C_15 
REMARK   10  A    between atoms: C_15  and  O_16 
ROOT
HETATM    1  N   UNL     1       6.934  23.783  55.840  1.00  0.00    -0.332 N 
HETATM    2  H   UNL     1       6.007  23.601  56.216  1.00  0.00     0.168 HD
ENDROOT
BRANCH   1   3
HETATM    3  C   UNL     1       7.545  24.860  56.380  1.00  0.00     0.179 C 
HETATM    4  S   UNL     1       8.888  24.628  57.351  1.00  0.00    -0.040 SA
BRANCH   3   5
HETATM    5  N   UNL     1       7.062  26.123  56.226  1.00  0.00    -0.299 N 
HETATM    6  C   UNL     1       5.882  26.617  56.776  1.00  0.00     0.260 C 
HETATM    7  O   UNL     1       4.913  25.932  57.091  1.00  0.00    -0.267 OA
HETATM    8  H   UNL     1       7.812  26.807  56.209  1.00  0.00     0.171 HD
BRANCH   6   9
HETATM    9  C   UNL     1       5.808  28.107  56.963  1.00  0.00     0.065 A 
HETATM   10  C   UNL     1       6.837  28.883  57.539  1.00  0.00     0.084 A 
HETATM   11  C   UNL     1       6.648  30.262  57.699  1.00  0.00     0.038 A 
HETATM   12  C   UNL     1       5.453  30.868  57.305  1.00  0.00     0.003 A 
HETATM   13  C   UNL     1       4.434  30.106  56.744  1.00  0.00     0.001 A 
HETATM   14  C   UNL     1       4.610  28.732  56.576  1.00  0.00     0.020 A 
BRANCH  10  15
HETATM   15  O   UNL     1       7.987  28.233  57.910  1.00  0.00    -0.355 OA
HETATM   16  C   UNL     1       9.207  28.635  57.293  1.00  0.00     0.210 C 
ENDBRANCH  10  15
ENDBRANCH   6   9
ENDBRANCH   3   5
ENDBRANCH   1   3
BRANCH   1  17
HETATM   17  C   UNL     1       7.455  22.737  55.036  1.00  0.00     0.050 A 
HETATM   18  C   UNL     1       7.547  22.914  53.638  1.00  0.00     0.058 A 
HETATM   19  C   UNL     1       7.904  21.841  52.808  1.00  0.00     0.019 A 
HETATM   20  C   UNL     1       8.201  20.598  53.361  1.00  0.00     0.001 A 
HETATM   21  C   UNL     1       8.142  20.423  54.741  1.00  0.00     0.002 A 
HETATM   22  C   UNL     1       7.768  21.483  55.575  1.00  0.00     0.030 A 
BRANCH  18  23
HETATM   23  C   UNL     1       7.308  24.228  52.977  1.00  0.00     0.253 C 
HETATM   24  N   UNL     1       5.989  24.507  52.680  1.00  0.00    -0.357 N 
HETATM   25  H   UNL     1       5.286  23.934  53.144  1.00  0.00     0.162 HD
HETATM   26  O   UNL     1       8.238  24.991  52.745  1.00  0.00    -0.268 OA
BRANCH  24  27
HETATM   27  C   UNL     1       5.580  25.779  52.124  1.00  0.00     0.125 C 
BRANCH  27  28
HETATM   28  C   UNL     1       5.275  26.775  53.234  1.00  0.00     0.046 C 
BRANCH  28  29
HETATM   29  C   UNL     1       5.941  28.118  52.979  1.00  0.00     0.165 C 
BRANCH  29  30
HETATM   30  O   UNL     1       7.120  28.227  53.766  1.00  0.00    -0.401 OA
HETATM   31  H   UNL     1       6.867  28.091  54.696  1.00  0.00     0.209 HD
ENDBRANCH  29  30
ENDBRANCH  28  29
ENDBRANCH  27  28
ENDBRANCH  24  27
ENDBRANCH  18  23
ENDBRANCH   1  17
TORSDOF 10
ENDMDL
MODEL 5
REMARK VINA RESULT:      -7.9      2.629      4.393
REMARK  10 active torsions:
REMARK  status: ('A' for Active; 'I' for Inactive)
REMARK    1  A    between atoms: O_2  and  C_3 
REMARK    2  A    between atoms: C_4  and  C_5 
REMARK       I    between atoms: C_5  and  N_6 
REMARK    3  A    between atoms: N_6  and  C_7 
REMARK    4  A    between atoms: C_7  and  N_8 
REMARK    5  A    between atoms: N_8  and  C_9 
REMARK    6  A    between atoms: C_10  and  C_11 
REMARK       I    between atoms: C_11  and  N_12 
REMARK    7  A    between atoms: N_12  and  C_13 
REMARK    8  A    between atoms: C_13  and  C_14 
REMARK    9  A    between atoms: C_14  and  C_15 
REMARK   10  A    between atoms: C_15  and  O_16 
ROOT
HETATM    1  N   UNL     1       6.679  27.279  53.765  1.00  0.00    -0.332 N 
HETATM    2  H   UNL     1       7.695  27.308  53.756  1.00  0.00     0.168 HD
ENDROOT
BRANCH   1   3
HETATM    3  C   UNL     1       6.147  26.371  52.917  1.00  0.00     0.179 C 
HETATM    4  S   UNL     1       5.196  26.907  51.649  1.00  0.00    -0.040 SA
BRANCH   3   5
HETATM    5  N   UNL     1       6.296  25.031  53.101  1.00  0.00    -0.299 N 
HETATM    6  C   UNL     1       7.464  24.304  52.886  1.00  0.00     0.260 C 
HETATM    7  O   UNL     1       8.364  24.630  52.118  1.00  0.00    -0.267 OA
HETATM    8  H   UNL     1       5.764  24.706  53.902  1.00  0.00     0.171 HD
BRANCH   6   9
HETATM    9  C   UNL     1       7.593  23.013  53.647  1.00  0.00     0.065 A 
HETATM   10  C   UNL     1       7.460  22.906  55.049  1.00  0.00     0.084 A 
HETATM   11  C   UNL     1       7.636  21.657  55.661  1.00  0.00     0.038 A 
HETATM   12  C   UNL     1       7.950  20.529  54.899  1.00  0.00     0.003 A 
HETATM   13  C   UNL     1       8.088  20.632  53.520  1.00  0.00     0.001 A 
HETATM   14  C   UNL     1       7.913  21.868  52.897  1.00  0.00     0.020 A 
BRANCH  10  15
HETATM   15  O   UNL     1       7.155  24.048  55.745  1.00  0.00    -0.355 OA
HETATM   16  C   UNL     1       8.123  24.544  56.666  1.00  0.00     0.210 C 
ENDBRANCH  10  15
ENDBRANCH   6   9
ENDBRANCH   3   5
ENDBRANCH   1   3
BRANCH   1  17
HETATM   17  C   UNL     1       6.082  28.004  54.827  1.00  0.00     0.050 A 
HETATM   18  C   UNL     1       6.900  28.741  55.712  1.00  0.00     0.058 A 
HETATM   19  C   UNL     1       6.354  29.331  56.861  1.00  0.00     0.019 A 
HETATM   20  C   UNL     1       4.990  29.221  57.122  1.00  0.00     0.001 A 
HETATM   21  C   UNL     1       4.171  28.522  56.239  1.00  0.00     0.002 A 
HETATM   22  C   UNL     1       4.711  27.914  55.101  1.00  0.00     0.030 A 
BRANCH  18  23
HETATM   23  C   UNL     1       8.355  28.958  55.468  1.00  0.00     0.253 C 
HETATM   24  N   UNL     1       9.120  29.149  56.601  1.00  0.00    -0.357 N 
HETATM   25  H   UNL     1       8.695  28.884  57.489  1.00  0.00     0.162 HD
HETATM   26  O   UNL     1       8.808  28.944  54.330  1.00  0.00    -0.268 OA
BRANCH  24  27
HETATM   27  C   UNL     1      10.560  29.279  56.541  1.00  0.00     0.125 C 
BRANCH  27  28
HETATM   28  C   UNL     1      11.048  30.298  57.561  1.00  0.00     0.046 C 
BRANCH  28  29
HETATM   29  C   UNL     1       9.891  30.912  58.334  1.00  0.00     0.165 C 
BRANCH  29  30
HETATM   30  O   UNL     1      10.135  32.297  58.544  1.00  0.00    -0.401 OA
HETATM   31  H   UNL     1      11.077  32.461  58.365  1.00  0.00     0.209 HD
ENDBRANCH  29  30
ENDBRANCH  28  29
ENDBRANCH  27  28
ENDBRANCH  24  27
ENDBRANCH  18  23
ENDBRANCH   1  17
TORSDOF 10
ENDMDL
MODEL 6
REMARK VINA RESULT:      -7.9      1.776      2.478
REMARK  10 active torsions:
REMARK  status: ('A' for Active; 'I' for Inactive)
REMARK    1  A    between atoms: O_2  and  C_3 
REMARK    2  A    between atoms: C_4  and  C_5 
REMARK       I    between atoms: C_5  and  N_6 
REMARK    3  A    between atoms: N_6  and  C_7 
REMARK    4  A    between atoms: C_7  and  N_8 
REMARK    5  A    between atoms: N_8  and  C_9 
REMARK    6  A    between atoms: C_10  and  C_11 
REMARK       I    between atoms: C_11  and  N_12 
REMARK    7  A    between atoms: N_12  and  C_13 
REMARK    8  A    between atoms: C_13  and  C_14 
REMARK    9  A    between atoms: C_14  and  C_15 
REMARK   10  A    between atoms: C_15  and  O_16 
ROOT
HETATM    1  N   UNL     1       7.211  29.040  58.182  1.00  0.00    -0.332 N 
HETATM    2  H   UNL     1       6.617  29.280  58.973  1.00  0.00     0.168 HD
ENDROOT
BRANCH   1   3
HETATM    3  C   UNL     1       6.583  28.330  57.219  1.00  0.00     0.179 C 
HETATM    4  S   UNL     1       4.982  28.670  56.875  1.00  0.00    -0.040 SA
BRANCH   3   5
HETATM    5  N   UNL     1       7.185  27.296  56.572  1.00  0.00    -0.299 N 
HETATM    6  C   UNL     1       7.587  26.094  57.151  1.00  0.00     0.260 C 
HETATM    7  O   UNL     1       7.868  25.945  58.337  1.00  0.00    -0.267 OA
HETATM    8  H   UNL     1       6.817  27.182  55.632  1.00  0.00     0.171 HD
BRANCH   6   9
HETATM    9  C   UNL     1       7.701  24.915  56.225  1.00  0.00     0.065 A 
HETATM   10  C   UNL     1       6.755  24.602  55.225  1.00  0.00     0.084 A 
HETATM   11  C   UNL     1       6.941  23.456  54.440  1.00  0.00     0.038 A 
HETATM   12  C   UNL     1       8.042  22.621  54.648  1.00  0.00     0.003 A 
HETATM   13  C   UNL     1       8.971  22.922  55.638  1.00  0.00     0.001 A 
HETATM   14  C   UNL     1       8.799  24.061  56.424  1.00  0.00     0.020 A 
BRANCH  10  15
HETATM   15  O   UNL     1       5.693  25.456  55.069  1.00  0.00    -0.355 OA
HETATM   16  C   UNL     1       5.376  25.889  53.748  1.00  0.00     0.210 C 
ENDBRANCH  10  15
ENDBRANCH   6   9
ENDBRANCH   3   5
ENDBRANCH   1   3
BRANCH   1  17
HETATM   17  C   UNL     1       8.460  29.713  58.163  1.00  0.00     0.050 A 
HETATM   18  C   UNL     1       8.657  30.837  58.994  1.00  0.00     0.058 A 
HETATM   19  C   UNL     1       9.818  31.614  58.875  1.00  0.00     0.019 A 
HETATM   20  C   UNL     1      10.804  31.261  57.956  1.00  0.00     0.001 A 
HETATM   21  C   UNL     1      10.631  30.136  57.153  1.00  0.00     0.002 A 
HETATM   22  C   UNL     1       9.466  29.368  57.252  1.00  0.00     0.030 A 
BRANCH  18  23
HETATM   23  C   UNL     1       7.680  31.240  60.045  1.00  0.00     0.253 C 
HETATM   24  N   UNL     1       8.074  30.986  61.344  1.00  0.00    -0.357 N 
HETATM   25  H   UNL     1       9.062  30.786  61.490  1.00  0.00     0.162 HD
HETATM   26  O   UNL     1       6.620  31.774  59.744  1.00  0.00    -0.268 OA
BRANCH  24  27
HETATM   27  C   UNL     1       7.282  31.402  62.481  1.00  0.00     0.125 C 
BRANCH  27  28
HETATM   28  C   UNL     1       7.937  32.580  63.187  1.00  0.00     0.046 C 
BRANCH  28  29
HETATM   29  C   UNL     1       7.207  32.939  64.472  1.00  0.00     0.165 C 
BRANCH  29  30
HETATM   30  O   UNL     1       7.624  34.222  64.920  1.00  0.00    -0.401 OA
HETATM   31  H   UNL     1       8.596  34.246  64.881  1.00  0.00     0.209 HD
ENDBRANCH  29  30
ENDBRANCH  28  29
ENDBRANCH  27  28
ENDBRANCH  24  27
ENDBRANCH  18  23
ENDBRANCH   1  17
TORSDOF 10
ENDMDL
MODEL 7
REMARK VINA RESULT:      -7.9      2.274      4.296
REMARK  10 active torsions:
REMARK  status: ('A' for Active; 'I' for Inactive)
REMARK    1  A    between atoms: O_2  and  C_3 
REMARK    2  A    between atoms: C_4  and  C_5 
REMARK       I    between atoms: C_5  and  N_6 
REMARK    3  A    between atoms: N_6  and  C_7 
REMARK    4  A    between atoms: C_7  and  N_8 
REMARK    5  A    between atoms: N_8  and  C_9 
REMARK    6  A    between atoms: C_10  and  C_11 
REMARK       I    between atoms: C_11  and  N_12 
REMARK    7  A    between atoms: N_12  and  C_13 
REMARK    8  A    between atoms: C_13  and  C_14 
REMARK    9  A    between atoms: C_14  and  C_15 
REMARK   10  A    between atoms: C_15  and  O_16 
ROOT
HETATM    1  N   UNL     1       8.551  30.484  58.029  1.00  0.00    -0.332 N 
HETATM    2  H   UNL     1       8.163  31.102  57.320  1.00  0.00     0.168 HD
ENDROOT
BRANCH   1   3
HETATM    3  C   UNL     1       9.403  29.556  57.542  1.00  0.00     0.179 C 
HETATM    4  S   UNL     1      10.974  30.007  57.184  1.00  0.00    -0.040 SA
BRANCH   3   5
HETATM    5  N   UNL     1       9.009  28.285  57.262  1.00  0.00    -0.299 N 
HETATM    6  C   UNL     1       7.695  27.823  57.246  1.00  0.00     0.260 C 
HETATM    7  O   UNL     1       6.768  28.321  57.879  1.00  0.00    -0.267 OA
HETATM    8  H   UNL     1       9.586  27.869  56.538  1.00  0.00     0.171 HD
BRANCH   6   9
HETATM    9  C   UNL     1       7.427  26.608  56.403  1.00  0.00     0.065 A 
HETATM   10  C   UNL     1       7.125  26.654  55.024  1.00  0.00     0.084 A 
HETATM   11  C   UNL     1       6.856  25.461  54.341  1.00  0.00     0.038 A 
HETATM   12  C   UNL     1       6.872  24.236  55.013  1.00  0.00     0.003 A 
HETATM   13  C   UNL     1       7.160  24.187  56.372  1.00  0.00     0.001 A 
HETATM   14  C   UNL     1       7.434  25.367  57.064  1.00  0.00     0.020 A 
BRANCH  10  15
HETATM   15  O   UNL     1       7.120  27.885  54.419  1.00  0.00    -0.355 OA
HETATM   16  C   UNL     1       6.465  28.003  53.159  1.00  0.00     0.210 C 
ENDBRANCH  10  15
ENDBRANCH   6   9
ENDBRANCH   3   5
ENDBRANCH   1   3
BRANCH   1  17
HETATM   17  C   UNL     1       8.306  30.899  59.363  1.00  0.00     0.050 A 
HETATM   18  C   UNL     1       7.134  31.629  59.661  1.00  0.00     0.058 A 
HETATM   19  C   UNL     1       6.949  32.188  60.933  1.00  0.00     0.019 A 
HETATM   20  C   UNL     1       7.909  32.001  61.925  1.00  0.00     0.001 A 
HETATM   21  C   UNL     1       9.053  31.257  61.649  1.00  0.00     0.002 A 
HETATM   22  C   UNL     1       9.255  30.712  60.377  1.00  0.00     0.030 A 
BRANCH  18  23
HETATM   23  C   UNL     1       6.033  31.817  58.674  1.00  0.00     0.253 C 
HETATM   24  N   UNL     1       5.067  30.832  58.674  1.00  0.00    -0.357 N 
HETATM   25  H   UNL     1       5.045  30.214  59.483  1.00  0.00     0.162 HD
HETATM   26  O   UNL     1       6.009  32.800  57.942  1.00  0.00    -0.268 OA
BRANCH  24  27
HETATM   27  C   UNL     1       3.885  30.915  57.842  1.00  0.00     0.125 C 
BRANCH  27  28
HETATM   28  C   UNL     1       3.971  29.926  56.689  1.00  0.00     0.046 C 
BRANCH  28  29
HETATM   29  C   UNL     1       4.759  30.498  55.520  1.00  0.00     0.165 C 
BRANCH  29  30
HETATM   30  O   UNL     1       6.152  30.392  55.782  1.00  0.00    -0.401 OA
HETATM   31  H   UNL     1       6.466  29.564  55.377  1.00  0.00     0.209 HD
ENDBRANCH  29  30
ENDBRANCH  28  29
ENDBRANCH  27  28
ENDBRANCH  24  27
ENDBRANCH  18  23
ENDBRANCH   1  17
TORSDOF 10
ENDMDL
MODEL 8
REMARK VINA RESULT:      -7.7      2.183      3.817
REMARK  10 active torsions:
REMARK  status: ('A' for Active; 'I' for Inactive)
REMARK    1  A    between atoms: O_2  and  C_3 
REMARK    2  A    between atoms: C_4  and  C_5 
REMARK       I    between atoms: C_5  and  N_6 
REMARK    3  A    between atoms: N_6  and  C_7 
REMARK    4  A    between atoms: C_7  and  N_8 
REMARK    5  A    between atoms: N_8  and  C_9 
REMARK    6  A    between atoms: C_10  and  C_11 
REMARK       I    between atoms: C_11  and  N_12 
REMARK    7  A    between atoms: N_12  and  C_13 
REMARK    8  A    between atoms: C_13  and  C_14 
REMARK    9  A    between atoms: C_14  and  C_15 
REMARK   10  A    between atoms: C_15  and  O_16 
ROOT
HETATM    1  N   UNL     1       6.538  27.373  56.484  1.00  0.00    -0.332 N 
HETATM    2  H   UNL     1       6.373  26.647  57.178  1.00  0.00     0.168 HD
ENDROOT
BRANCH   1   3
HETATM    3  C   UNL     1       7.284  26.970  55.433  1.00  0.00     0.179 C 
HETATM    4  S   UNL     1       7.613  28.061  54.208  1.00  0.00    -0.040 SA
BRANCH   3   5
HETATM    5  N   UNL     1       7.715  25.687  55.298  1.00  0.00    -0.299 N 
HETATM    6  C   UNL     1       7.006  24.546  55.668  1.00  0.00     0.260 C 
HETATM    7  O   UNL     1       6.134  24.509  56.531  1.00  0.00    -0.267 OA
HETATM    8  H   UNL     1       8.253  25.564  54.447  1.00  0.00     0.171 HD
BRANCH   6   9
HETATM    9  C   UNL     1       7.377  23.274  54.957  1.00  0.00     0.065 A 
HETATM   10  C   UNL     1       7.463  23.150  53.553  1.00  0.00     0.084 A 
HETATM   11  C   UNL     1       7.782  21.906  52.992  1.00  0.00     0.038 A 
HETATM   12  C   UNL     1       8.002  20.793  53.808  1.00  0.00     0.003 A 
HETATM   13  C   UNL     1       7.910  20.909  55.190  1.00  0.00     0.001 A 
HETATM   14  C   UNL     1       7.597  22.143  55.761  1.00  0.00     0.020 A 
BRANCH  10  15
HETATM   15  O   UNL     1       7.233  24.276  52.803  1.00  0.00    -0.355 OA
HETATM   16  C   UNL     1       5.887  24.570  52.442  1.00  0.00     0.210 C 
ENDBRANCH  10  15
ENDBRANCH   6   9
ENDBRANCH   3   5
ENDBRANCH   1   3
BRANCH   1  17
HETATM   17  C   UNL     1       5.748  28.539  56.660  1.00  0.00     0.050 A 
HETATM   18  C   UNL     1       6.205  29.567  57.513  1.00  0.00     0.058 A 
HETATM   19  C   UNL     1       5.373  30.650  57.829  1.00  0.00     0.019 A 
HETATM   20  C   UNL     1       4.097  30.737  57.277  1.00  0.00     0.001 A 
HETATM   21  C   UNL     1       3.650  29.743  56.410  1.00  0.00     0.002 A 
HETATM   22  C   UNL     1       4.466  28.648  56.105  1.00  0.00     0.030 A 
BRANCH  18  23
HETATM   23  C   UNL     1       7.579  29.579  58.092  1.00  0.00     0.253 C 
HETATM   24  N   UNL     1       8.180  30.820  58.156  1.00  0.00    -0.357 N 
HETATM   25  H   UNL     1       7.570  31.629  58.045  1.00  0.00     0.162 HD
HETATM   26  O   UNL     1       8.101  28.545  58.490  1.00  0.00    -0.268 OA
BRANCH  24  27
HETATM   27  C   UNL     1       9.473  31.016  58.776  1.00  0.00     0.125 C 
BRANCH  27  28
HETATM   28  C   UNL     1       9.331  31.795  60.075  1.00  0.00     0.046 C 
BRANCH  28  29
HETATM   29  C   UNL     1       8.981  30.881  61.239  1.00  0.00     0.165 C 
BRANCH  29  30
HETATM   30  O   UNL     1       7.568  30.789  61.371  1.00  0.00    -0.401 OA
HETATM   31  H   UNL     1       7.191  30.760  60.475  1.00  0.00     0.209 HD
ENDBRANCH  29  30
ENDBRANCH  28  29
ENDBRANCH  27  28
ENDBRANCH  24  27
ENDBRANCH  18  23
ENDBRANCH   1  17
TORSDOF 10
ENDMDL
MODEL 9
REMARK VINA RESULT:      -7.7      2.486      8.015
REMARK  10 active torsions:
REMARK  status: ('A' for Active; 'I' for Inactive)
REMARK    1  A    between atoms: O_2  and  C_3 
REMARK    2  A    between atoms: C_4  and  C_5 
REMARK       I    between atoms: C_5  and  N_6 
REMARK    3  A    between atoms: N_6  and  C_7 
REMARK    4  A    between atoms: C_7  and  N_8 
REMARK    5  A    between atoms: N_8  and  C_9 
REMARK    6  A    between atoms: C_10  and  C_11 
REMARK       I    between atoms: C_11  and  N_12 
REMARK    7  A    between atoms: N_12  and  C_13 
REMARK    8  A    between atoms: C_13  and  C_14 
REMARK    9  A    between atoms: C_14  and  C_15 
REMARK   10  A    between atoms: C_15  and  O_16 
ROOT
HETATM    1  N   UNL     1       6.065  25.521  55.489  1.00  0.00    -0.332 N 
HETATM    2  H   UNL     1       5.352  25.075  56.062  1.00  0.00     0.168 HD
ENDROOT
BRANCH   1   3
HETATM    3  C   UNL     1       6.144  26.859  55.656  1.00  0.00     0.179 C 
HETATM    4  S   UNL     1       4.956  27.831  54.990  1.00  0.00    -0.040 SA
BRANCH   3   5
HETATM    5  N   UNL     1       7.197  27.452  56.282  1.00  0.00    -0.299 N 
HETATM    6  C   UNL     1       8.068  28.378  55.712  1.00  0.00     0.260 C 
HETATM    7  O   UNL     1       8.305  28.473  54.511  1.00  0.00    -0.267 OA
HETATM    8  H   UNL     1       6.988  27.647  57.255  1.00  0.00     0.171 HD
BRANCH   6   9
HETATM    9  C   UNL     1       8.776  29.300  56.667  1.00  0.00     0.065 A 
HETATM   10  C   UNL     1       8.134  29.996  57.714  1.00  0.00     0.084 A 
HETATM   11  C   UNL     1       8.884  30.860  58.524  1.00  0.00     0.038 A 
HETATM   12  C   UNL     1      10.250  31.043  58.295  1.00  0.00     0.003 A 
HETATM   13  C   UNL     1      10.884  30.364  57.260  1.00  0.00     0.001 A 
HETATM   14  C   UNL     1      10.150  29.500  56.449  1.00  0.00     0.020 A 
BRANCH  10  15
HETATM   15  O   UNL     1       6.791  29.780  57.888  1.00  0.00    -0.355 OA
HETATM   16  C   UNL     1       5.902  30.859  57.612  1.00  0.00     0.210 C 
ENDBRANCH  10  15
ENDBRANCH   6   9
ENDBRANCH   3   5
ENDBRANCH   1   3
BRANCH   1  17
HETATM   17  C   UNL     1       6.956  24.618  54.854  1.00  0.00     0.050 A 
HETATM   18  C   UNL     1       6.732  24.251  53.509  1.00  0.00     0.058 A 
HETATM   19  C   UNL     1       7.499  23.241  52.911  1.00  0.00     0.019 A 
HETATM   20  C   UNL     1       8.511  22.611  53.633  1.00  0.00     0.001 A 
HETATM   21  C   UNL     1       8.758  22.989  54.951  1.00  0.00     0.002 A 
HETATM   22  C   UNL     1       7.984  23.982  55.561  1.00  0.00     0.030 A 
BRANCH  18  23
HETATM   23  C   UNL     1       5.714  24.922  52.652  1.00  0.00     0.253 C 
HETATM   24  N   UNL     1       6.220  25.635  51.584  1.00  0.00    -0.357 N 
HETATM   25  H   UNL     1       7.188  25.448  51.327  1.00  0.00     0.162 HD
HETATM   26  O   UNL     1       4.519  24.810  52.895  1.00  0.00    -0.268 OA
BRANCH  24  27
HETATM   27  C   UNL     1       5.360  26.265  50.605  1.00  0.00     0.125 C 
BRANCH  27  28
HETATM   28  C   UNL     1       5.339  27.774  50.802  1.00  0.00     0.046 C 
BRANCH  28  29
HETATM   29  C   UNL     1       3.931  28.334  50.682  1.00  0.00     0.165 C 
BRANCH  29  30
HETATM   30  O   UNL     1       3.162  27.519  49.807  1.00  0.00    -0.401 OA
HETATM   31  H   UNL     1       2.303  27.956  49.677  1.00  0.00     0.209 HD
ENDBRANCH  29  30
ENDBRANCH  28  29
ENDBRANCH  27  28
ENDBRANCH  24  27
ENDBRANCH  18  23
ENDBRANCH   1  17
TORSDOF 10
ENDMDL
MODEL 10
REMARK VINA RESULT:      -7.6      2.287      2.776
REMARK  10 active torsions:
REMARK  status: ('A' for Active; 'I' for Inactive)
REMARK    1  A    between atoms: O_2  and  C_3 
REMARK    2  A    between atoms: C_4  and  C_5 
REMARK       I    between atoms: C_5  and  N_6 
REMARK    3  A    between atoms: N_6  and  C_7 
REMARK    4  A    between atoms: C_7  and  N_8 
REMARK    5  A    between atoms: N_8  and  C_9 
REMARK    6  A    between atoms: C_10  and  C_11 
REMARK       I    between atoms: C_11  and  N_12 
REMARK    7  A    between atoms: N_12  and  C_13 
REMARK    8  A    between atoms: C_13  and  C_14 
REMARK    9  A    between atoms: C_14  and  C_15 
REMARK   10  A    between atoms: C_15  and  O_16 
ROOT
HETATM    1  N   UNL     1       7.139  29.031  54.811  1.00  0.00    -0.332 N 
HETATM    2  H   UNL     1       6.752  29.890  54.426  1.00  0.00     0.168 HD
ENDROOT
BRANCH   1   3
HETATM    3  C   UNL     1       6.904  27.936  54.055  1.00  0.00     0.179 C 
HETATM    4  S   UNL     1       5.953  28.086  52.686  1.00  0.00    -0.040 SA
BRANCH   3   5
HETATM    5  N   UNL     1       7.351  26.701  54.408  1.00  0.00    -0.299 N 
HETATM    6  C   UNL     1       6.552  25.614  54.755  1.00  0.00     0.260 C 
HETATM    7  O   UNL     1       5.416  25.695  55.214  1.00  0.00    -0.267 OA
HETATM    8  H   UNL     1       8.173  26.437  53.874  1.00  0.00     0.171 HD
BRANCH   6   9
HETATM    9  C   UNL     1       7.162  24.253  54.567  1.00  0.00     0.065 A 
HETATM   10  C   UNL     1       7.713  23.483  55.614  1.00  0.00     0.084 A 
HETATM   11  C   UNL     1       8.290  22.239  55.321  1.00  0.00     0.038 A 
HETATM   12  C   UNL     1       8.334  21.767  54.008  1.00  0.00     0.003 A 
HETATM   13  C   UNL     1       7.799  22.526  52.972  1.00  0.00     0.001 A 
HETATM   14  C   UNL     1       7.219  23.763  53.251  1.00  0.00     0.020 A 
BRANCH  10  15
HETATM   15  O   UNL     1       7.645  24.000  56.883  1.00  0.00    -0.355 OA
HETATM   16  C   UNL     1       8.852  24.477  57.472  1.00  0.00     0.210 C 
ENDBRANCH  10  15
ENDBRANCH   6   9
ENDBRANCH   3   5
ENDBRANCH   1   3
BRANCH   1  17
HETATM   17  C   UNL     1       8.031  29.226  55.896  1.00  0.00     0.050 A 
HETATM   18  C   UNL     1       7.513  29.481  57.185  1.00  0.00     0.058 A 
HETATM   19  C   UNL     1       8.368  29.836  58.237  1.00  0.00     0.019 A 
HETATM   20  C   UNL     1       9.743  29.910  58.026  1.00  0.00     0.001 A 
HETATM   21  C   UNL     1      10.265  29.631  56.765  1.00  0.00     0.002 A 
HETATM   22  C   UNL     1       9.417  29.294  55.705  1.00  0.00     0.030 A 
BRANCH  18  23
HETATM   23  C   UNL     1       6.062  29.359  57.506  1.00  0.00     0.253 C 
HETATM   24  N   UNL     1       5.453  30.523  57.929  1.00  0.00    -0.357 N 
HETATM   25  H   UNL     1       5.956  31.392  57.754  1.00  0.00     0.162 HD
HETATM   26  O   UNL     1       5.479  28.290  57.375  1.00  0.00    -0.268 OA
BRANCH  24  27
HETATM   27  C   UNL     1       4.031  30.595  58.190  1.00  0.00     0.125 C 
BRANCH  27  28
HETATM   28  C   UNL     1       3.719  31.734  59.148  1.00  0.00     0.046 C 
BRANCH  28  29
HETATM   29  C   UNL     1       4.980  32.475  59.565  1.00  0.00     0.165 C 
BRANCH  29  30
HETATM   30  O   UNL     1       5.639  31.759  60.601  1.00  0.00    -0.401 OA
HETATM   31  H   UNL     1       6.042  30.968  60.202  1.00  0.00     0.209 HD
ENDBRANCH  29  30
ENDBRANCH  28  29
ENDBRANCH  27  28
ENDBRANCH  24  27
ENDBRANCH  18  23
ENDBRANCH   1  17
TORSDOF 10
ENDMDL
