MODEL 1
REMARK VINA RESULT:      -9.5      0.000      0.000
REMARK  6 active torsions:
REMARK  status: ('A' for Active; 'I' for Inactive)
REMARK    1  A    between atoms: O_2  and  C_3 
REMARK    2  A    between atoms: C_6  and  C_7 
REMARK    3  A    between atoms: C_11  and  C_12 
REMARK       I    between atoms: C_12  and  N_13 
REMARK    4  A    between atoms: N_13  and  N_14 
REMARK       I    between atoms: N_14  and  C_15 
REMARK    5  A    between atoms: C_15  and  C_16 
REMARK    6  A    between atoms: C_16  and  C_17 
ROOT
HETATM    1  C   UNL     1       8.116  28.956  57.788  1.00  0.00     0.288 C 
HETATM    2  N   UNL     1       7.462  29.422  58.908  1.00  0.00    -0.262 N 
HETATM    3  O   UNL     1       8.970  29.623  57.206  1.00  0.00    -0.264 OA
HETATM    4  H   UNL     1       6.667  28.944  59.326  1.00  0.00     0.190 HD
ENDROOT
BRANCH   1   5
HETATM    5  C   UNL     1       7.724  27.644  57.350  1.00  0.00     0.121 A 
HETATM    6  N   UNL     1       6.421  27.237  57.367  1.00  0.00    -0.272 N 
HETATM    7  N   UNL     1       6.226  25.991  56.911  1.00  0.00    -0.174 NA
HETATM    8  H   UNL     1       5.617  27.776  57.678  1.00  0.00     0.189 HD
HETATM    9  C   UNL     1       7.454  25.547  56.597  1.00  0.00     0.089 A 
HETATM   10  C   UNL     1       8.422  26.561  56.854  1.00  0.00     0.071 A 
BRANCH   9  11
HETATM   11  C   UNL     1       7.679  24.204  56.057  1.00  0.00    -0.005 A 
HETATM   12  C   UNL     1       8.207  23.189  56.868  1.00  0.00     0.016 A 
HETATM   13  C   UNL     1       8.404  21.894  56.371  1.00  0.00     0.037 A 
HETATM   14  C   UNL     1       8.079  21.596  55.050  1.00  0.00     0.068 A 
HETATM   15  C   UNL     1       7.570  22.604  54.230  1.00  0.00     0.037 A 
HETATM   16  C   UNL     1       7.369  23.897  54.725  1.00  0.00     0.016 A 
BRANCH  14  17
HETATM   17  O   UNL     1       8.214  20.378  54.441  1.00  0.00    -0.356 OA
HETATM   18  C   UNL     1       8.399  20.384  53.031  1.00  0.00     0.210 C 
ENDBRANCH  14  17
ENDBRANCH   9  11
ENDBRANCH   1   5
BRANCH   2  19
HETATM   19  N   UNL     1       7.653  30.750  59.305  1.00  0.00    -0.267 N 
HETATM   20  C   UNL     1       8.399  30.984  60.439  1.00  0.00     0.240 C 
HETATM   21  O   UNL     1       8.967  30.079  61.052  1.00  0.00    -0.272 OA
HETATM   22  H   UNL     1       7.126  31.467  58.806  1.00  0.00     0.190 HD
BRANCH  20  23
HETATM   23  C   UNL     1       8.469  32.436  60.862  1.00  0.00     0.144 C 
BRANCH  23  24
HETATM   24  C   UNL     1       7.597  32.727  62.059  1.00  0.00    -0.028 A 
HETATM   25  C   UNL     1       6.242  33.078  61.946  1.00  0.00     0.040 A 
HETATM   26 CL   UNL     1       5.455  33.190  60.412  1.00  0.00    -0.084 Cl
HETATM   27  C   UNL     1       5.481  33.352  63.086  1.00  0.00     0.024 A 
HETATM   28  C   UNL     1       6.063  33.291  64.352  1.00  0.00     0.002 A 
HETATM   29  C   UNL     1       7.409  32.960  64.478  1.00  0.00     0.001 A 
HETATM   30  C   UNL     1       8.171  32.683  63.341  1.00  0.00     0.009 A 
ENDBRANCH  23  24
ENDBRANCH  20  23
ENDBRANCH   2  19
TORSDOF 6
ENDMDL
MODEL 2
REMARK VINA RESULT:      -9.4      3.302     10.633
REMARK  6 active torsions:
REMARK  status: ('A' for Active; 'I' for Inactive)
REMARK    1  A    between atoms: O_2  and  C_3 
REMARK    2  A    between atoms: C_6  and  C_7 
REMARK    3  A    between atoms: C_11  and  C_12 
REMARK       I    between atoms: C_12  and  N_13 
REMARK    4  A    between atoms: N_13  and  N_14 
REMARK       I    between atoms: N_14  and  C_15 
REMARK    5  A    between atoms: C_15  and  C_16 
REMARK    6  A    between atoms: C_16  and  C_17 
ROOT
HETATM    1  C   UNL     1       9.242  29.348  57.599  1.00  0.00     0.288 C 
HETATM    2  N   UNL     1       8.420  28.249  57.731  1.00  0.00    -0.262 N 
HETATM    3  O   UNL     1      10.092  29.424  56.714  1.00  0.00    -0.264 OA
HETATM    4  H   UNL     1       7.802  28.110  58.527  1.00  0.00     0.190 HD
ENDROOT
BRANCH   1   5
HETATM    5  C   UNL     1       9.037  30.388  58.570  1.00  0.00     0.121 A 
HETATM    6  N   UNL     1       9.692  31.584  58.494  1.00  0.00    -0.272 N 
HETATM    7  N   UNL     1       9.374  32.448  59.470  1.00  0.00    -0.174 NA
HETATM    8  H   UNL     1      10.367  31.867  57.789  1.00  0.00     0.189 HD
HETATM    9  C   UNL     1       8.488  31.789  60.234  1.00  0.00     0.089 A 
HETATM   10  C   UNL     1       8.246  30.492  59.696  1.00  0.00     0.071 A 
BRANCH   9  11
HETATM   11  C   UNL     1       7.889  32.397  61.426  1.00  0.00    -0.005 A 
HETATM   12  C   UNL     1       6.713  33.155  61.324  1.00  0.00     0.016 A 
HETATM   13  C   UNL     1       6.117  33.720  62.458  1.00  0.00     0.037 A 
HETATM   14  C   UNL     1       6.692  33.539  63.714  1.00  0.00     0.068 A 
HETATM   15  C   UNL     1       7.872  32.802  63.822  1.00  0.00     0.037 A 
HETATM   16  C   UNL     1       8.467  32.233  62.691  1.00  0.00     0.016 A 
BRANCH  14  17
HETATM   17  O   UNL     1       6.213  34.028  64.899  1.00  0.00    -0.356 OA
HETATM   18  C   UNL     1       4.879  33.676  65.244  1.00  0.00     0.210 C 
ENDBRANCH  14  17
ENDBRANCH   9  11
ENDBRANCH   1   5
BRANCH   2  19
HETATM   19  N   UNL     1       8.661  27.119  56.942  1.00  0.00    -0.267 N 
HETATM   20  C   UNL     1       8.196  25.904  57.395  1.00  0.00     0.240 C 
HETATM   21  O   UNL     1       7.509  25.799  58.413  1.00  0.00    -0.272 OA
HETATM   22  H   UNL     1       9.276  27.234  56.136  1.00  0.00     0.190 HD
BRANCH  20  23
HETATM   23  C   UNL     1       8.590  24.717  56.541  1.00  0.00     0.144 C 
BRANCH  23  24
HETATM   24  C   UNL     1       7.710  24.569  55.325  1.00  0.00    -0.028 A 
HETATM   25  C   UNL     1       7.923  23.585  54.347  1.00  0.00     0.040 A 
HETATM   26 CL   UNL     1       9.214  22.443  54.470  1.00  0.00    -0.084 Cl
HETATM   27  C   UNL     1       7.087  23.500  53.230  1.00  0.00     0.024 A 
HETATM   28  C   UNL     1       6.035  24.401  53.068  1.00  0.00     0.002 A 
HETATM   29  C   UNL     1       5.822  25.393  54.021  1.00  0.00     0.001 A 
HETATM   30  C   UNL     1       6.654  25.479  55.139  1.00  0.00     0.009 A 
ENDBRANCH  23  24
ENDBRANCH  20  23
ENDBRANCH   2  19
TORSDOF 6
ENDMDL
MODEL 3
REMARK VINA RESULT:      -9.3      3.419     10.420
REMARK  6 active torsions:
REMARK  status: ('A' for Active; 'I' for Inactive)
REMARK    1  A    between atoms: O_2  and  C_3 
REMARK    2  A    between atoms: C_6  and  C_7 
REMARK    3  A    between atoms: C_11  and  C_12 
REMARK       I    between atoms: C_12  and  N_13 
REMARK    4  A    between atoms: N_13  and  N_14 
REMARK       I    between atoms: N_14  and  C_15 
REMARK    5  A    between atoms: C_15  and  C_16 
REMARK    6  A    between atoms: C_16  and  C_17 
ROOT
HETATM    1  C   UNL     1       8.934  29.583  57.137  1.00  0.00     0.288 C 
HETATM    2  N   UNL     1       8.065  29.823  56.094  1.00  0.00    -0.262 N 
HETATM    3  O   UNL     1       9.711  28.630  57.133  1.00  0.00    -0.264 OA
HETATM    4  H   UNL     1       7.330  30.526  56.134  1.00  0.00     0.190 HD
ENDROOT
BRANCH   1   5
HETATM    5  C   UNL     1       8.860  30.519  58.225  1.00  0.00     0.121 A 
HETATM    6  N   UNL     1       9.744  31.553  58.349  1.00  0.00    -0.272 N 
HETATM    7  N   UNL     1       9.525  32.342  59.412  1.00  0.00    -0.174 NA
HETATM    8  H   UNL     1      10.519  31.772  57.728  1.00  0.00     0.189 HD
HETATM    9  C   UNL     1       8.465  31.795  60.028  1.00  0.00     0.089 A 
HETATM   10  C   UNL     1       8.015  30.651  59.308  1.00  0.00     0.071 A 
BRANCH   9  11
HETATM   11  C   UNL     1       7.901  32.367  61.254  1.00  0.00    -0.005 A 
HETATM   12  C   UNL     1       6.742  33.156  61.205  1.00  0.00     0.016 A 
HETATM   13  C   UNL     1       6.179  33.688  62.372  1.00  0.00     0.037 A 
HETATM   14  C   UNL     1       6.772  33.443  63.609  1.00  0.00     0.068 A 
HETATM   15  C   UNL     1       7.935  32.675  63.665  1.00  0.00     0.037 A 
HETATM   16  C   UNL     1       8.497  32.139  62.502  1.00  0.00     0.016 A 
BRANCH  14  17
HETATM   17  O   UNL     1       6.325  33.894  64.821  1.00  0.00    -0.356 OA
HETATM   18  C   UNL     1       5.005  33.523  65.195  1.00  0.00     0.210 C 
ENDBRANCH  14  17
ENDBRANCH   9  11
ENDBRANCH   1   5
BRANCH   2  19
HETATM   19  N   UNL     1       7.945  28.873  55.075  1.00  0.00    -0.267 N 
HETATM   20  C   UNL     1       6.765  28.168  54.985  1.00  0.00     0.240 C 
HETATM   21  O   UNL     1       5.797  28.410  55.708  1.00  0.00    -0.272 OA
HETATM   22  H   UNL     1       8.782  28.663  54.531  1.00  0.00     0.190 HD
BRANCH  20  23
HETATM   23  C   UNL     1       6.753  27.085  53.927  1.00  0.00     0.144 C 
BRANCH  23  24
HETATM   24  C   UNL     1       7.267  25.767  54.451  1.00  0.00    -0.028 A 
HETATM   25  C   UNL     1       7.744  24.748  53.611  1.00  0.00     0.040 A 
HETATM   26 CL   UNL     1       7.795  24.933  51.894  1.00  0.00    -0.084 Cl
HETATM   27  C   UNL     1       8.195  23.538  54.146  1.00  0.00     0.024 A 
HETATM   28  C   UNL     1       8.167  23.324  55.524  1.00  0.00     0.002 A 
HETATM   29  C   UNL     1       7.681  24.319  56.368  1.00  0.00     0.001 A 
HETATM   30  C   UNL     1       7.232  25.529  55.836  1.00  0.00     0.009 A 
ENDBRANCH  23  24
ENDBRANCH  20  23
ENDBRANCH   2  19
TORSDOF 6
ENDMDL
MODEL 4
REMARK VINA RESULT:      -9.2      1.917      2.510
REMARK  6 active torsions:
REMARK  status: ('A' for Active; 'I' for Inactive)
REMARK    1  A    between atoms: O_2  and  C_3 
REMARK    2  A    between atoms: C_6  and  C_7 
REMARK    3  A    between atoms: C_11  and  C_12 
REMARK       I    between atoms: C_12  and  N_13 
REMARK    4  A    between atoms: N_13  and  N_14 
REMARK       I    between atoms: N_14  and  C_15 
REMARK    5  A    between atoms: C_15  and  C_16 
REMARK    6  A    between atoms: C_16  and  C_17 
ROOT
HETATM    1  C   UNL     1       7.153  29.553  57.650  1.00  0.00     0.288 C 
HETATM    2  N   UNL     1       8.205  29.541  58.540  1.00  0.00    -0.262 N 
HETATM    3  O   UNL     1       6.185  30.298  57.793  1.00  0.00    -0.264 OA
HETATM    4  H   UNL     1       8.949  28.847  58.511  1.00  0.00     0.190 HD
ENDROOT
BRANCH   1   5
HETATM    5  C   UNL     1       7.266  28.631  56.552  1.00  0.00     0.121 A 
HETATM    6  N   UNL     1       7.432  29.058  55.265  1.00  0.00    -0.272 N 
HETATM    7  N   UNL     1       7.536  28.069  54.366  1.00  0.00    -0.174 NA
HETATM    8  H   UNL     1       7.487  30.021  54.944  1.00  0.00     0.189 HD
HETATM    9  C   UNL     1       7.414  26.941  55.084  1.00  0.00     0.089 A 
HETATM   10  C   UNL     1       7.249  27.254  56.464  1.00  0.00     0.071 A 
BRANCH   9  11
HETATM   11  C   UNL     1       7.471  25.615  54.461  1.00  0.00    -0.005 A 
HETATM   12  C   UNL     1       7.780  25.481  53.100  1.00  0.00     0.016 A 
HETATM   13  C   UNL     1       7.862  24.218  52.498  1.00  0.00     0.037 A 
HETATM   14  C   UNL     1       7.630  23.069  53.250  1.00  0.00     0.068 A 
HETATM   15  C   UNL     1       7.303  23.195  54.601  1.00  0.00     0.037 A 
HETATM   16  C   UNL     1       7.225  24.454  55.205  1.00  0.00     0.016 A 
BRANCH  14  17
HETATM   17  O   UNL     1       7.683  21.781  52.792  1.00  0.00    -0.356 OA
HETATM   18  C   UNL     1       7.961  20.771  53.753  1.00  0.00     0.210 C 
ENDBRANCH  14  17
ENDBRANCH   9  11
ENDBRANCH   1   5
BRANCH   2  19
HETATM   19  N   UNL     1       8.103  30.276  59.725  1.00  0.00    -0.267 N 
HETATM   20  C   UNL     1       8.702  31.516  59.769  1.00  0.00     0.240 C 
HETATM   21  O   UNL     1       9.239  32.024  58.783  1.00  0.00    -0.272 OA
HETATM   22  H   UNL     1       7.699  29.805  60.535  1.00  0.00     0.190 HD
BRANCH  20  23
HETATM   23  C   UNL     1       8.640  32.202  61.118  1.00  0.00     0.144 C 
BRANCH  23  24
HETATM   24  C   UNL     1       7.265  32.743  61.423  1.00  0.00    -0.028 A 
HETATM   25  C   UNL     1       6.873  33.142  62.711  1.00  0.00     0.040 A 
HETATM   26 CL   UNL     1       7.951  33.058  64.058  1.00  0.00    -0.084 Cl
HETATM   27  C   UNL     1       5.582  33.623  62.943  1.00  0.00     0.024 A 
HETATM   28  C   UNL     1       4.662  33.703  61.898  1.00  0.00     0.002 A 
HETATM   29  C   UNL     1       5.032  33.296  60.619  1.00  0.00     0.001 A 
HETATM   30  C   UNL     1       6.321  32.816  60.383  1.00  0.00     0.009 A 
ENDBRANCH  23  24
ENDBRANCH  20  23
ENDBRANCH   2  19
TORSDOF 6
ENDMDL
MODEL 5
REMARK VINA RESULT:      -9.1      1.947      2.342
REMARK  6 active torsions:
REMARK  status: ('A' for Active; 'I' for Inactive)
REMARK    1  A    between atoms: O_2  and  C_3 
REMARK    2  A    between atoms: C_6  and  C_7 
REMARK    3  A    between atoms: C_11  and  C_12 
REMARK       I    between atoms: C_12  and  N_13 
REMARK    4  A    between atoms: N_13  and  N_14 
REMARK       I    between atoms: N_14  and  C_15 
REMARK    5  A    between atoms: C_15  and  C_16 
REMARK    6  A    between atoms: C_16  and  C_17 
ROOT
HETATM    1  C   UNL     1       6.006  29.605  56.406  1.00  0.00     0.288 C 
HETATM    2  N   UNL     1       6.375  29.698  57.732  1.00  0.00    -0.262 N 
HETATM    3  O   UNL     1       5.293  30.449  55.866  1.00  0.00    -0.264 OA
HETATM    4  H   UNL     1       6.854  28.950  58.228  1.00  0.00     0.190 HD
ENDROOT
BRANCH   1   5
HETATM    5  C   UNL     1       6.508  28.453  55.709  1.00  0.00     0.121 A 
HETATM    6  N   UNL     1       7.288  28.567  54.593  1.00  0.00    -0.272 N 
HETATM    7  N   UNL     1       7.684  27.395  54.075  1.00  0.00    -0.174 NA
HETATM    8  H   UNL     1       7.587  29.428  54.143  1.00  0.00     0.189 HD
HETATM    9  C   UNL     1       7.127  26.466  54.868  1.00  0.00     0.089 A 
HETATM   10  C   UNL     1       6.385  27.093  55.910  1.00  0.00     0.071 A 
BRANCH   9  11
HETATM   11  C   UNL     1       7.318  25.032  54.635  1.00  0.00    -0.005 A 
HETATM   12  C   UNL     1       7.585  24.549  53.345  1.00  0.00     0.016 A 
HETATM   13  C   UNL     1       7.794  23.184  53.113  1.00  0.00     0.037 A 
HETATM   14  C   UNL     1       7.735  22.278  54.169  1.00  0.00     0.068 A 
HETATM   15  C   UNL     1       7.452  22.747  55.453  1.00  0.00     0.037 A 
HETATM   16  C   UNL     1       7.247  24.111  55.688  1.00  0.00     0.016 A 
BRANCH  14  17
HETATM   17  O   UNL     1       7.925  20.926  54.084  1.00  0.00    -0.356 OA
HETATM   18  C   UNL     1       8.308  20.412  52.815  1.00  0.00     0.210 C 
ENDBRANCH  14  17
ENDBRANCH   9  11
ENDBRANCH   1   5
BRANCH   2  19
HETATM   19  N   UNL     1       5.796  30.688  58.531  1.00  0.00    -0.267 N 
HETATM   20  C   UNL     1       6.599  31.724  58.958  1.00  0.00     0.240 C 
HETATM   21  O   UNL     1       7.768  31.847  58.588  1.00  0.00    -0.272 OA
HETATM   22  H   UNL     1       4.844  30.527  58.860  1.00  0.00     0.190 HD
BRANCH  20  23
HETATM   23  C   UNL     1       5.928  32.695  59.906  1.00  0.00     0.144 C 
BRANCH  23  24
HETATM   24  C   UNL     1       6.582  32.713  61.266  1.00  0.00    -0.028 A 
HETATM   25  C   UNL     1       6.309  33.698  62.228  1.00  0.00     0.040 A 
HETATM   26 CL   UNL     1       5.178  34.971  61.934  1.00  0.00    -0.084 Cl
HETATM   27  C   UNL     1       6.953  33.678  63.469  1.00  0.00     0.024 A 
HETATM   28  C   UNL     1       7.885  32.683  63.761  1.00  0.00     0.002 A 
HETATM   29  C   UNL     1       8.178  31.709  62.810  1.00  0.00     0.001 A 
HETATM   30  C   UNL     1       7.535  31.726  61.571  1.00  0.00     0.009 A 
ENDBRANCH  23  24
ENDBRANCH  20  23
ENDBRANCH   2  19
TORSDOF 6
ENDMDL
MODEL 6
REMARK VINA RESULT:      -9.0      8.377     11.959
REMARK  6 active torsions:
REMARK  status: ('A' for Active; 'I' for Inactive)
REMARK    1  A    between atoms: O_2  and  C_3 
REMARK    2  A    between atoms: C_6  and  C_7 
REMARK    3  A    between atoms: C_11  and  C_12 
REMARK       I    between atoms: C_12  and  N_13 
REMARK    4  A    between atoms: N_13  and  N_14 
REMARK       I    between atoms: N_14  and  C_15 
REMARK    5  A    between atoms: C_15  and  C_16 
REMARK    6  A    between atoms: C_16  and  C_17 
ROOT
HETATM    1  C   UNL     1       5.255  27.569  50.913  1.00  0.00     0.288 C 
HETATM    2  N   UNL     1       5.666  26.261  50.766  1.00  0.00    -0.262 N 
HETATM    3  O   UNL     1       5.909  28.390  51.554  1.00  0.00    -0.264 OA
HETATM    4  H   UNL     1       5.081  25.539  50.351  1.00  0.00     0.190 HD
ENDROOT
BRANCH   1   5
HETATM    5  C   UNL     1       4.012  27.898  50.271  1.00  0.00     0.121 A 
HETATM    6  N   UNL     1       3.001  28.529  50.938  1.00  0.00    -0.272 N 
HETATM    7  N   UNL     1       1.916  28.776  50.188  1.00  0.00    -0.174 NA
HETATM    8  H   UNL     1       3.001  28.822  51.911  1.00  0.00     0.189 HD
HETATM    9  C   UNL     1       2.214  28.269  48.981  1.00  0.00     0.089 A 
HETATM   10  C   UNL     1       3.526  27.714  48.993  1.00  0.00     0.071 A 
BRANCH   9  11
HETATM   11  C   UNL     1       1.273  28.334  47.859  1.00  0.00    -0.005 A 
HETATM   12  C   UNL     1       0.652  29.546  47.521  1.00  0.00     0.016 A 
HETATM   13  C   UNL     1      -0.231  29.627  46.435  1.00  0.00     0.037 A 
HETATM   14  C   UNL     1      -0.510  28.494  45.674  1.00  0.00     0.068 A 
HETATM   15  C   UNL     1       0.090  27.281  46.016  1.00  0.00     0.037 A 
HETATM   16  C   UNL     1       0.974  27.198  47.097  1.00  0.00     0.016 A 
BRANCH  14  17
HETATM   17  O   UNL     1      -1.342  28.435  44.591  1.00  0.00    -0.356 OA
HETATM   18  C   UNL     1      -1.544  29.644  43.871  1.00  0.00     0.210 C 
ENDBRANCH  14  17
ENDBRANCH   9  11
ENDBRANCH   1   5
BRANCH   2  19
HETATM   19  N   UNL     1       6.770  25.808  51.495  1.00  0.00    -0.267 N 
HETATM   20  C   UNL     1       6.533  25.050  52.620  1.00  0.00     0.240 C 
HETATM   21  O   UNL     1       5.400  24.691  52.947  1.00  0.00    -0.272 OA
HETATM   22  H   UNL     1       7.687  26.167  51.227  1.00  0.00     0.190 HD
BRANCH  20  23
HETATM   23  C   UNL     1       7.772  24.689  53.413  1.00  0.00     0.144 C 
BRANCH  23  24
HETATM   24  C   UNL     1       7.781  23.241  53.835  1.00  0.00    -0.028 A 
HETATM   25  C   UNL     1       7.628  22.836  55.171  1.00  0.00     0.040 A 
HETATM   26 CL   UNL     1       7.400  23.977  56.448  1.00  0.00    -0.084 Cl
HETATM   27  C   UNL     1       7.659  21.480  55.511  1.00  0.00     0.024 A 
HETATM   28  C   UNL     1       7.854  20.512  54.526  1.00  0.00     0.002 A 
HETATM   29  C   UNL     1       8.023  20.900  53.200  1.00  0.00     0.001 A 
HETATM   30  C   UNL     1       7.990  22.253  52.857  1.00  0.00     0.009 A 
ENDBRANCH  23  24
ENDBRANCH  20  23
ENDBRANCH   2  19
TORSDOF 6
ENDMDL
MODEL 7
REMARK VINA RESULT:      -8.7      2.127      3.181
REMARK  6 active torsions:
REMARK  status: ('A' for Active; 'I' for Inactive)
REMARK    1  A    between atoms: O_2  and  C_3 
REMARK    2  A    between atoms: C_6  and  C_7 
REMARK    3  A    between atoms: C_11  and  C_12 
REMARK       I    between atoms: C_12  and  N_13 
REMARK    4  A    between atoms: N_13  and  N_14 
REMARK       I    between atoms: N_14  and  C_15 
REMARK    5  A    between atoms: C_15  and  C_16 
REMARK    6  A    between atoms: C_16  and  C_17 
ROOT
HETATM    1  C   UNL     1       8.111  30.884  59.407  1.00  0.00     0.288 C 
HETATM    2  N   UNL     1       8.151  30.507  60.732  1.00  0.00    -0.262 N 
HETATM    3  O   UNL     1       8.453  32.006  59.037  1.00  0.00    -0.264 OA
HETATM    4  H   UNL     1       7.754  29.634  61.073  1.00  0.00     0.190 HD
ENDROOT
BRANCH   1   5
HETATM    5  C   UNL     1       7.638  29.878  58.496  1.00  0.00     0.121 A 
HETATM    6  N   UNL     1       6.350  29.864  58.042  1.00  0.00    -0.272 N 
HETATM    7  N   UNL     1       6.078  28.867  57.187  1.00  0.00    -0.174 NA
HETATM    8  H   UNL     1       5.611  30.520  58.281  1.00  0.00     0.189 HD
HETATM    9  C   UNL     1       7.227  28.181  57.087  1.00  0.00     0.089 A 
HETATM   10  C   UNL     1       8.233  28.790  57.891  1.00  0.00     0.071 A 
BRANCH   9  11
HETATM   11  C   UNL     1       7.350  26.994  56.235  1.00  0.00    -0.005 A 
HETATM   12  C   UNL     1       7.242  27.104  54.841  1.00  0.00     0.016 A 
HETATM   13  C   UNL     1       7.382  25.982  54.014  1.00  0.00     0.037 A 
HETATM   14  C   UNL     1       7.628  24.729  54.571  1.00  0.00     0.068 A 
HETATM   15  C   UNL     1       7.719  24.608  55.958  1.00  0.00     0.037 A 
HETATM   16  C   UNL     1       7.584  25.728  56.786  1.00  0.00     0.016 A 
BRANCH  14  17
HETATM   17  O   UNL     1       7.791  23.559  53.883  1.00  0.00    -0.356 OA
HETATM   18  C   UNL     1       7.791  22.360  54.648  1.00  0.00     0.210 C 
ENDBRANCH  14  17
ENDBRANCH   9  11
ENDBRANCH   1   5
BRANCH   2  19
HETATM   19  N   UNL     1       8.433  31.470  61.706  1.00  0.00    -0.267 N 
HETATM   20  C   UNL     1       7.459  31.748  62.640  1.00  0.00     0.240 C 
HETATM   21  O   UNL     1       6.400  31.121  62.695  1.00  0.00    -0.272 OA
HETATM   22  H   UNL     1       9.295  32.005  61.599  1.00  0.00     0.190 HD
BRANCH  20  23
HETATM   23  C   UNL     1       7.798  32.876  63.592  1.00  0.00     0.144 C 
BRANCH  23  24
HETATM   24  C   UNL     1       6.755  33.966  63.584  1.00  0.00    -0.028 A 
HETATM   25  C   UNL     1       6.203  34.501  64.759  1.00  0.00     0.040 A 
HETATM   26 CL   UNL     1       6.693  33.957  66.324  1.00  0.00    -0.084 Cl
HETATM   27  C   UNL     1       5.228  35.501  64.696  1.00  0.00     0.024 A 
HETATM   28  C   UNL     1       4.783  35.972  63.462  1.00  0.00     0.002 A 
HETATM   29  C   UNL     1       5.309  35.440  62.288  1.00  0.00     0.001 A 
HETATM   30  C   UNL     1       6.285  34.443  62.347  1.00  0.00     0.009 A 
ENDBRANCH  23  24
ENDBRANCH  20  23
ENDBRANCH   2  19
TORSDOF 6
ENDMDL
MODEL 8
REMARK VINA RESULT:      -8.6      3.322     11.040
REMARK  6 active torsions:
REMARK  status: ('A' for Active; 'I' for Inactive)
REMARK    1  A    between atoms: O_2  and  C_3 
REMARK    2  A    between atoms: C_6  and  C_7 
REMARK    3  A    between atoms: C_11  and  C_12 
REMARK       I    between atoms: C_12  and  N_13 
REMARK    4  A    between atoms: N_13  and  N_14 
REMARK       I    between atoms: N_14  and  C_15 
REMARK    5  A    between atoms: C_15  and  C_16 
REMARK    6  A    between atoms: C_16  and  C_17 
ROOT
HETATM    1  C   UNL     1       7.718  31.258  59.182  1.00  0.00     0.288 C 
HETATM    2  N   UNL     1       7.194  30.098  58.653  1.00  0.00    -0.262 N 
HETATM    3  O   UNL     1       8.711  31.804  58.704  1.00  0.00    -0.264 OA
HETATM    4  H   UNL     1       6.456  29.565  59.108  1.00  0.00     0.190 HD
ENDROOT
BRANCH   1   5
HETATM    5  C   UNL     1       7.027  31.777  60.331  1.00  0.00     0.121 A 
HETATM    6  N   UNL     1       5.677  31.986  60.327  1.00  0.00    -0.272 N 
HETATM    7  N   UNL     1       5.189  32.458  61.484  1.00  0.00    -0.174 NA
HETATM    8  H   UNL     1       5.035  31.817  59.557  1.00  0.00     0.189 HD
HETATM    9  C   UNL     1       6.263  32.586  62.280  1.00  0.00     0.089 A 
HETATM   10  C   UNL     1       7.436  32.161  61.592  1.00  0.00     0.071 A 
BRANCH   9  11
HETATM   11  C   UNL     1       6.155  33.083  63.654  1.00  0.00    -0.005 A 
HETATM   12  C   UNL     1       7.307  33.395  64.391  1.00  0.00     0.016 A 
HETATM   13  C   UNL     1       7.217  33.895  65.697  1.00  0.00     0.037 A 
HETATM   14  C   UNL     1       5.970  34.085  66.288  1.00  0.00     0.068 A 
HETATM   15  C   UNL     1       4.819  33.761  65.569  1.00  0.00     0.037 A 
HETATM   16  C   UNL     1       4.906  33.266  64.263  1.00  0.00     0.016 A 
BRANCH  14  17
HETATM   17  O   UNL     1       5.739  34.569  67.547  1.00  0.00    -0.356 OA
HETATM   18  C   UNL     1       6.818  34.494  68.469  1.00  0.00     0.210 C 
ENDBRANCH  14  17
ENDBRANCH   9  11
ENDBRANCH   1   5
BRANCH   2  19
HETATM   19  N   UNL     1       7.897  29.430  57.646  1.00  0.00    -0.267 N 
HETATM   20  C   UNL     1       7.347  29.403  56.384  1.00  0.00     0.240 C 
HETATM   21  O   UNL     1       6.315  30.014  56.101  1.00  0.00    -0.272 OA
HETATM   22  H   UNL     1       8.718  28.893  57.926  1.00  0.00     0.190 HD
BRANCH  20  23
HETATM   23  C   UNL     1       8.113  28.571  55.377  1.00  0.00     0.144 C 
BRANCH  23  24
HETATM   24  C   UNL     1       7.401  27.285  55.035  1.00  0.00    -0.028 A 
HETATM   25  C   UNL     1       7.496  26.129  55.826  1.00  0.00     0.040 A 
HETATM   26 CL   UNL     1       8.434  26.092  57.276  1.00  0.00    -0.084 Cl
HETATM   27  C   UNL     1       6.827  24.958  55.456  1.00  0.00     0.024 A 
HETATM   28  C   UNL     1       6.065  24.922  54.289  1.00  0.00     0.002 A 
HETATM   29  C   UNL     1       5.974  26.056  53.487  1.00  0.00     0.001 A 
HETATM   30  C   UNL     1       6.639  27.227  53.854  1.00  0.00     0.009 A 
ENDBRANCH  23  24
ENDBRANCH  20  23
ENDBRANCH   2  19
TORSDOF 6
ENDMDL
MODEL 9
REMARK VINA RESULT:      -8.6      2.352      3.420
REMARK  6 active torsions:
REMARK  status: ('A' for Active; 'I' for Inactive)
REMARK    1  A    between atoms: O_2  and  C_3 
REMARK    2  A    between atoms: C_6  and  C_7 
REMARK    3  A    between atoms: C_11  and  C_12 
REMARK       I    between atoms: C_12  and  N_13 
REMARK    4  A    between atoms: N_13  and  N_14 
REMARK       I    between atoms: N_14  and  C_15 
REMARK    5  A    between atoms: C_15  and  C_16 
REMARK    6  A    between atoms: C_16  and  C_17 
ROOT
HETATM    1  C   UNL     1       8.467  31.539  59.425  1.00  0.00     0.288 C 
HETATM    2  N   UNL     1       7.437  31.477  60.339  1.00  0.00    -0.262 N 
HETATM    3  O   UNL     1       9.211  32.515  59.345  1.00  0.00    -0.264 OA
HETATM    4  H   UNL     1       6.735  30.740  60.336  1.00  0.00     0.190 HD
ENDROOT
BRANCH   1   5
HETATM    5  C   UNL     1       8.601  30.389  58.573  1.00  0.00     0.121 A 
HETATM    6  N   UNL     1       9.743  30.148  57.862  1.00  0.00    -0.272 N 
HETATM    7  N   UNL     1       9.708  29.024  57.129  1.00  0.00    -0.174 NA
HETATM    8  H   UNL     1      10.584  30.718  57.845  1.00  0.00     0.189 HD
HETATM    9  C   UNL     1       8.487  28.512  57.349  1.00  0.00     0.089 A 
HETATM   10  C   UNL     1       7.764  29.339  58.256  1.00  0.00     0.071 A 
BRANCH   9  11
HETATM   11  C   UNL     1       8.044  27.265  56.718  1.00  0.00    -0.005 A 
HETATM   12  C   UNL     1       7.586  27.261  55.393  1.00  0.00     0.016 A 
HETATM   13  C   UNL     1       7.184  26.071  54.770  1.00  0.00     0.037 A 
HETATM   14  C   UNL     1       7.229  24.867  55.469  1.00  0.00     0.068 A 
HETATM   15  C   UNL     1       7.666  24.865  56.794  1.00  0.00     0.037 A 
HETATM   16  C   UNL     1       8.072  26.050  57.416  1.00  0.00     0.016 A 
BRANCH  14  17
HETATM   17  O   UNL     1       6.874  23.639  54.982  1.00  0.00    -0.356 OA
HETATM   18  C   UNL     1       7.039  23.431  53.586  1.00  0.00     0.210 C 
ENDBRANCH  14  17
ENDBRANCH   9  11
ENDBRANCH   1   5
BRANCH   2  19
HETATM   19  N   UNL     1       7.123  32.615  61.090  1.00  0.00    -0.267 N 
HETATM   20  C   UNL     1       5.794  32.952  61.226  1.00  0.00     0.240 C 
HETATM   21  O   UNL     1       4.886  32.243  60.789  1.00  0.00    -0.272 OA
HETATM   22  H   UNL     1       7.899  33.205  61.391  1.00  0.00     0.190 HD
BRANCH  20  23
HETATM   23  C   UNL     1       5.543  34.252  61.959  1.00  0.00     0.144 C 
BRANCH  23  24
HETATM   24  C   UNL     1       5.647  34.096  63.456  1.00  0.00    -0.028 A 
HETATM   25  C   UNL     1       4.523  34.071  64.298  1.00  0.00     0.040 A 
HETATM   26 CL   UNL     1       2.917  34.205  63.678  1.00  0.00    -0.084 Cl
HETATM   27  C   UNL     1       4.675  33.938  65.682  1.00  0.00     0.024 A 
HETATM   28  C   UNL     1       5.947  33.839  66.244  1.00  0.00     0.002 A 
HETATM   29  C   UNL     1       7.070  33.878  65.423  1.00  0.00     0.001 A 
HETATM   30  C   UNL     1       6.923  34.009  64.041  1.00  0.00     0.009 A 
ENDBRANCH  23  24
ENDBRANCH  20  23
ENDBRANCH   2  19
TORSDOF 6
ENDMDL
MODEL 10
REMARK VINA RESULT:      -8.4      8.211     11.418
REMARK  6 active torsions:
REMARK  status: ('A' for Active; 'I' for Inactive)
REMARK    1  A    between atoms: O_2  and  C_3 
REMARK    2  A    between atoms: C_6  and  C_7 
REMARK    3  A    between atoms: C_11  and  C_12 
REMARK       I    between atoms: C_12  and  N_13 
REMARK    4  A    between atoms: N_13  and  N_14 
REMARK       I    between atoms: N_14  and  C_15 
REMARK    5  A    between atoms: C_15  and  C_16 
REMARK    6  A    between atoms: C_16  and  C_17 
ROOT
HETATM    1  C   UNL     1       4.953  27.267  50.434  1.00  0.00     0.288 C 
HETATM    2  N   UNL     1       3.979  26.885  49.536  1.00  0.00    -0.262 N 
HETATM    3  O   UNL     1       5.505  28.364  50.370  1.00  0.00    -0.264 OA
HETATM    4  H   UNL     1       3.604  25.940  49.494  1.00  0.00     0.190 HD
ENDROOT
BRANCH   1   5
HETATM    5  C   UNL     1       5.278  26.293  51.439  1.00  0.00     0.121 A 
HETATM    6  N   UNL     1       4.353  25.852  52.343  1.00  0.00    -0.272 N 
HETATM    7  N   UNL     1       4.817  24.931  53.202  1.00  0.00    -0.174 NA
HETATM    8  H   UNL     1       3.383  26.145  52.416  1.00  0.00     0.189 HD
HETATM    9  C   UNL     1       6.107  24.771  52.865  1.00  0.00     0.089 A 
HETATM   10  C   UNL     1       6.432  25.606  51.757  1.00  0.00     0.071 A 
BRANCH   9  11
HETATM   11  C   UNL     1       6.984  23.836  53.577  1.00  0.00    -0.005 A 
HETATM   12  C   UNL     1       7.034  23.835  54.979  1.00  0.00     0.016 A 
HETATM   13  C   UNL     1       7.849  22.930  55.672  1.00  0.00     0.037 A 
HETATM   14  C   UNL     1       8.631  22.015  54.970  1.00  0.00     0.068 A 
HETATM   15  C   UNL     1       8.601  22.022  53.575  1.00  0.00     0.037 A 
HETATM   16  C   UNL     1       7.785  22.921  52.881  1.00  0.00     0.016 A 
BRANCH  14  17
HETATM   17  O   UNL     1       9.462  21.077  55.519  1.00  0.00    -0.356 OA
HETATM   18  C   UNL     1       8.908  20.239  56.525  1.00  0.00     0.210 C 
ENDBRANCH  14  17
ENDBRANCH   9  11
ENDBRANCH   1   5
BRANCH   2  19
HETATM   19  N   UNL     1       3.720  27.695  48.426  1.00  0.00    -0.267 N 
HETATM   20  C   UNL     1       2.460  28.238  48.303  1.00  0.00     0.240 C 
HETATM   21  O   UNL     1       1.597  28.105  49.173  1.00  0.00    -0.272 OA
HETATM   22  H   UNL     1       4.438  27.740  47.703  1.00  0.00     0.190 HD
BRANCH  20  23
HETATM   23  C   UNL     1       2.226  29.012  47.023  1.00  0.00     0.144 C 
BRANCH  23  24
HETATM   24  C   UNL     1       0.762  29.114  46.674  1.00  0.00    -0.028 A 
HETATM   25  C   UNL     1       0.014  30.287  46.864  1.00  0.00     0.040 A 
HETATM   26 CL   UNL     1       0.724  31.726  47.505  1.00  0.00    -0.084 Cl
HETATM   27  C   UNL     1      -1.345  30.325  46.537  1.00  0.00     0.024 A 
HETATM   28  C   UNL     1      -1.977  29.192  46.027  1.00  0.00     0.002 A 
HETATM   29  C   UNL     1      -1.252  28.017  45.849  1.00  0.00     0.001 A 
HETATM   30  C   UNL     1       0.105  27.977  46.172  1.00  0.00     0.009 A 
ENDBRANCH  23  24
ENDBRANCH  20  23
ENDBRANCH   2  19
TORSDOF 6
ENDMDL
