MODEL 1
REMARK VINA RESULT:     -10.1      0.000      0.000
REMARK  7 active torsions:
REMARK  status: ('A' for Active; 'I' for Inactive)
REMARK    1  A    between atoms: O_2  and  C_3 
REMARK    2  A    between atoms: C_6  and  C_7 
REMARK    3  A    between atoms: C_11  and  C_12 
REMARK       I    between atoms: C_12  and  N_13 
REMARK    4  A    between atoms: N_13  and  N_14 
REMARK       I    between atoms: N_14  and  C_15 
REMARK    5  A    between atoms: C_15  and  C_16 
REMARK    6  A    between atoms: C_16  and  C_17 
REMARK    7  A    between atoms: C_17  and  C_18 
ROOT
HETATM    1  C   UNL     1       6.959  29.475  57.613  1.00  0.00     0.288 C 
HETATM    2  N   UNL     1       7.965  29.394  58.552  1.00  0.00    -0.262 N 
HETATM    3  O   UNL     1       6.051  30.300  57.710  1.00  0.00    -0.264 OA
HETATM    4  H   UNL     1       8.754  28.754  58.490  1.00  0.00     0.190 HD
ENDROOT
BRANCH   1   5
HETATM    5  C   UNL     1       7.052  28.551  56.519  1.00  0.00     0.121 A 
HETATM    6  N   UNL     1       7.136  28.978  55.224  1.00  0.00    -0.272 N 
HETATM    7  N   UNL     1       7.263  27.992  54.326  1.00  0.00    -0.174 NA
HETATM    8  H   UNL     1       7.125  29.940  54.897  1.00  0.00     0.189 HD
HETATM    9  C   UNL     1       7.243  26.864  55.053  1.00  0.00     0.089 A 
HETATM   10  C   UNL     1       7.100  27.174  56.435  1.00  0.00     0.071 A 
BRANCH   9  11
HETATM   11  C   UNL     1       7.391  25.544  54.432  1.00  0.00    -0.005 A 
HETATM   12  C   UNL     1       7.770  25.433  53.086  1.00  0.00     0.016 A 
HETATM   13  C   UNL     1       7.960  24.180  52.490  1.00  0.00     0.037 A 
HETATM   14  C   UNL     1       7.768  23.016  53.232  1.00  0.00     0.068 A 
HETATM   15  C   UNL     1       7.365  23.118  54.564  1.00  0.00     0.037 A 
HETATM   16  C   UNL     1       7.180  24.369  55.164  1.00  0.00     0.016 A 
BRANCH  14  17
HETATM   17  O   UNL     1       7.931  21.737  52.777  1.00  0.00    -0.356 OA
HETATM   18  C   UNL     1       7.853  20.701  53.747  1.00  0.00     0.210 C 
ENDBRANCH  14  17
ENDBRANCH   9  11
ENDBRANCH   1   5
BRANCH   2  19
HETATM   19  N   UNL     1       7.985  30.314  59.604  1.00  0.00    -0.267 N 
HETATM   20  C   UNL     1       8.908  31.336  59.555  1.00  0.00     0.236 C 
HETATM   21  O   UNL     1       9.769  31.412  58.681  1.00  0.00    -0.272 OA
HETATM   22  H   UNL     1       7.178  30.311  60.227  1.00  0.00     0.190 HD
BRANCH  20  23
HETATM   23  C   UNL     1       8.772  32.347  60.666  1.00  0.00     0.109 C 
BRANCH  23  24
HETATM   24  C   UNL     1       8.747  31.661  62.028  1.00  0.00     0.048 C 
BRANCH  24  25
HETATM   25  C   UNL     1       7.654  32.211  62.913  1.00  0.00    -0.058 A 
HETATM   26  C   UNL     1       7.968  33.009  64.021  1.00  0.00     0.009 A 
HETATM   27  C   UNL     1       6.954  33.509  64.843  1.00  0.00     0.024 A 
HETATM   28  C   UNL     1       5.624  33.211  64.560  1.00  0.00     0.034 A 
HETATM   29 CL   UNL     1       4.376  33.827  65.572  1.00  0.00    -0.084 Cl
HETATM   30  C   UNL     1       5.297  32.418  63.463  1.00  0.00     0.024 A 
HETATM   31  C   UNL     1       6.310  31.920  62.640  1.00  0.00     0.009 A 
ENDBRANCH  24  25
ENDBRANCH  23  24
ENDBRANCH  20  23
ENDBRANCH   2  19
TORSDOF 7
ENDMDL
MODEL 2
REMARK VINA RESULT:     -10.0      4.017     11.119
REMARK  7 active torsions:
REMARK  status: ('A' for Active; 'I' for Inactive)
REMARK    1  A    between atoms: O_2  and  C_3 
REMARK    2  A    between atoms: C_6  and  C_7 
REMARK    3  A    between atoms: C_11  and  C_12 
REMARK       I    between atoms: C_12  and  N_13 
REMARK    4  A    between atoms: N_13  and  N_14 
REMARK       I    between atoms: N_14  and  C_15 
REMARK    5  A    between atoms: C_15  and  C_16 
REMARK    6  A    between atoms: C_16  and  C_17 
REMARK    7  A    between atoms: C_17  and  C_18 
ROOT
HETATM    1  C   UNL     1       9.160  29.668  57.195  1.00  0.00     0.288 C 
HETATM    2  N   UNL     1       8.066  29.609  56.359  1.00  0.00    -0.262 N 
HETATM    3  O   UNL     1      10.170  28.998  56.985  1.00  0.00    -0.264 OA
HETATM    4  H   UNL     1       7.228  30.174  56.474  1.00  0.00     0.190 HD
ENDROOT
BRANCH   1   5
HETATM    5  C   UNL     1       9.047  30.569  58.306  1.00  0.00     0.121 A 
HETATM    6  N   UNL     1       9.864  31.656  58.435  1.00  0.00    -0.272 N 
HETATM    7  N   UNL     1       9.599  32.421  59.503  1.00  0.00    -0.174 NA
HETATM    8  H   UNL     1      10.615  31.932  57.810  1.00  0.00     0.189 HD
HETATM    9  C   UNL     1       8.577  31.805  60.118  1.00  0.00     0.089 A 
HETATM   10  C   UNL     1       8.209  30.631  59.402  1.00  0.00     0.071 A 
BRANCH   9  11
HETATM   11  C   UNL     1       7.963  32.355  61.331  1.00  0.00    -0.005 A 
HETATM   12  C   UNL     1       6.732  33.024  61.259  1.00  0.00     0.016 A 
HETATM   13  C   UNL     1       6.109  33.516  62.414  1.00  0.00     0.037 A 
HETATM   14  C   UNL     1       6.712  33.348  63.659  1.00  0.00     0.068 A 
HETATM   15  C   UNL     1       7.949  32.706  63.735  1.00  0.00     0.037 A 
HETATM   16  C   UNL     1       8.571  32.209  62.583  1.00  0.00     0.016 A 
BRANCH  14  17
HETATM   17  O   UNL     1       6.207  33.767  64.859  1.00  0.00    -0.356 OA
HETATM   18  C   UNL     1       4.805  33.620  65.047  1.00  0.00     0.210 C 
ENDBRANCH  14  17
ENDBRANCH   9  11
ENDBRANCH   1   5
BRANCH   2  19
HETATM   19  N   UNL     1       8.134  28.814  55.212  1.00  0.00    -0.267 N 
HETATM   20  C   UNL     1       7.436  27.625  55.204  1.00  0.00     0.236 C 
HETATM   21  O   UNL     1       6.843  27.197  56.192  1.00  0.00    -0.272 OA
HETATM   22  H   UNL     1       8.505  29.255  54.372  1.00  0.00     0.190 HD
BRANCH  20  23
HETATM   23  C   UNL     1       7.467  26.897  53.884  1.00  0.00     0.109 C 
BRANCH  23  24
HETATM   24  C   UNL     1       6.376  25.831  53.823  1.00  0.00     0.048 C 
BRANCH  24  25
HETATM   25  C   UNL     1       6.946  24.439  53.948  1.00  0.00    -0.058 A 
HETATM   26  C   UNL     1       7.390  23.745  52.814  1.00  0.00     0.009 A 
HETATM   27  C   UNL     1       7.909  22.453  52.933  1.00  0.00     0.024 A 
HETATM   28  C   UNL     1       7.981  21.849  54.185  1.00  0.00     0.034 A 
HETATM   29 CL   UNL     1       8.619  20.258  54.331  1.00  0.00    -0.084 Cl
HETATM   30  C   UNL     1       7.541  22.525  55.321  1.00  0.00     0.024 A 
HETATM   31  C   UNL     1       7.025  23.817  55.202  1.00  0.00     0.009 A 
ENDBRANCH  24  25
ENDBRANCH  23  24
ENDBRANCH  20  23
ENDBRANCH   2  19
TORSDOF 7
ENDMDL
MODEL 3
REMARK VINA RESULT:      -9.9      4.286     11.755
REMARK  7 active torsions:
REMARK  status: ('A' for Active; 'I' for Inactive)
REMARK    1  A    between atoms: O_2  and  C_3 
REMARK    2  A    between atoms: C_6  and  C_7 
REMARK    3  A    between atoms: C_11  and  C_12 
REMARK       I    between atoms: C_12  and  N_13 
REMARK    4  A    between atoms: N_13  and  N_14 
REMARK       I    between atoms: N_14  and  C_15 
REMARK    5  A    between atoms: C_15  and  C_16 
REMARK    6  A    between atoms: C_16  and  C_17 
REMARK    7  A    between atoms: C_17  and  C_18 
ROOT
HETATM    1  C   UNL     1       8.445  29.948  58.840  1.00  0.00     0.288 C 
HETATM    2  N   UNL     1       7.533  28.964  58.525  1.00  0.00    -0.262 N 
HETATM    3  O   UNL     1       9.352  30.259  58.068  1.00  0.00    -0.264 OA
HETATM    4  H   UNL     1       6.747  28.703  59.116  1.00  0.00     0.190 HD
ENDROOT
BRANCH   1   5
HETATM    5  C   UNL     1       8.254  30.591  60.109  1.00  0.00     0.121 A 
HETATM    6  N   UNL     1       9.025  30.281  61.193  1.00  0.00    -0.272 N 
HETATM    7  N   UNL     1       8.750  31.002  62.289  1.00  0.00    -0.174 NA
HETATM    8  H   UNL     1       9.769  29.591  61.236  1.00  0.00     0.189 HD
HETATM    9  C   UNL     1       7.741  31.809  61.922  1.00  0.00     0.089 A 
HETATM   10  C   UNL     1       7.394  31.572  60.562  1.00  0.00     0.071 A 
BRANCH   9  11
HETATM   11  C   UNL     1       7.165  32.791  62.844  1.00  0.00    -0.005 A 
HETATM   12  C   UNL     1       6.120  33.628  62.424  1.00  0.00     0.016 A 
HETATM   13  C   UNL     1       5.527  34.541  63.305  1.00  0.00     0.037 A 
HETATM   14  C   UNL     1       5.974  34.634  64.622  1.00  0.00     0.068 A 
HETATM   15  C   UNL     1       7.031  33.823  65.040  1.00  0.00     0.037 A 
HETATM   16  C   UNL     1       7.622  32.906  64.163  1.00  0.00     0.016 A 
BRANCH  14  17
HETATM   17  O   UNL     1       5.476  35.469  65.583  1.00  0.00    -0.356 OA
HETATM   18  C   UNL     1       4.877  34.853  66.715  1.00  0.00     0.210 C 
ENDBRANCH  14  17
ENDBRANCH   9  11
ENDBRANCH   1   5
BRANCH   2  19
HETATM   19  N   UNL     1       7.608  28.348  57.273  1.00  0.00    -0.267 N 
HETATM   20  C   UNL     1       7.682  26.973  57.229  1.00  0.00     0.236 C 
HETATM   21  O   UNL     1       7.783  26.280  58.239  1.00  0.00    -0.272 OA
HETATM   22  H   UNL     1       7.378  28.927  56.466  1.00  0.00     0.190 HD
BRANCH  20  23
HETATM   23  C   UNL     1       7.633  26.394  55.837  1.00  0.00     0.109 C 
BRANCH  23  24
HETATM   24  C   UNL     1       6.551  25.323  55.729  1.00  0.00     0.048 C 
BRANCH  24  25
HETATM   25  C   UNL     1       7.040  24.106  54.981  1.00  0.00    -0.058 A 
HETATM   26  C   UNL     1       7.116  24.111  53.582  1.00  0.00     0.009 A 
HETATM   27  C   UNL     1       7.560  22.980  52.893  1.00  0.00     0.024 A 
HETATM   28  C   UNL     1       7.928  21.838  53.601  1.00  0.00     0.034 A 
HETATM   29 CL   UNL     1       8.474  20.445  52.752  1.00  0.00    -0.084 Cl
HETATM   30  C   UNL     1       7.855  21.817  54.992  1.00  0.00     0.024 A 
HETATM   31  C   UNL     1       7.413  22.949  55.680  1.00  0.00     0.009 A 
ENDBRANCH  24  25
ENDBRANCH  23  24
ENDBRANCH  20  23
ENDBRANCH   2  19
TORSDOF 7
ENDMDL
MODEL 4
REMARK VINA RESULT:      -9.3      1.344      2.056
REMARK  7 active torsions:
REMARK  status: ('A' for Active; 'I' for Inactive)
REMARK    1  A    between atoms: O_2  and  C_3 
REMARK    2  A    between atoms: C_6  and  C_7 
REMARK    3  A    between atoms: C_11  and  C_12 
REMARK       I    between atoms: C_12  and  N_13 
REMARK    4  A    between atoms: N_13  and  N_14 
REMARK       I    between atoms: N_14  and  C_15 
REMARK    5  A    between atoms: C_15  and  C_16 
REMARK    6  A    between atoms: C_16  and  C_17 
REMARK    7  A    between atoms: C_17  and  C_18 
ROOT
HETATM    1  C   UNL     1       8.042  29.317  57.984  1.00  0.00     0.288 C 
HETATM    2  N   UNL     1       6.940  30.002  58.450  1.00  0.00    -0.262 N 
HETATM    3  O   UNL     1       9.161  29.490  58.466  1.00  0.00    -0.264 OA
HETATM    4  H   UNL     1       5.993  29.862  58.107  1.00  0.00     0.190 HD
ENDROOT
BRANCH   1   5
HETATM    5  C   UNL     1       7.791  28.385  56.922  1.00  0.00     0.121 A 
HETATM    6  N   UNL     1       7.319  28.793  55.707  1.00  0.00    -0.272 N 
HETATM    7  N   UNL     1       7.182  27.806  54.810  1.00  0.00    -0.174 NA
HETATM    8  H   UNL     1       7.086  29.742  55.429  1.00  0.00     0.189 HD
HETATM    9  C   UNL     1       7.559  26.696  55.463  1.00  0.00     0.089 A 
HETATM   10  C   UNL     1       7.939  27.018  56.798  1.00  0.00     0.071 A 
BRANCH   9  11
HETATM   11  C   UNL     1       7.583  25.385  54.808  1.00  0.00    -0.005 A 
HETATM   12  C   UNL     1       7.408  24.214  55.561  1.00  0.00     0.016 A 
HETATM   13  C   UNL     1       7.383  22.956  54.945  1.00  0.00     0.037 A 
HETATM   14  C   UNL     1       7.537  22.851  53.564  1.00  0.00     0.068 A 
HETATM   15  C   UNL     1       7.738  24.009  52.811  1.00  0.00     0.037 A 
HETATM   16  C   UNL     1       7.758  25.268  53.424  1.00  0.00     0.016 A 
BRANCH  14  17
HETATM   17  O   UNL     1       7.519  21.691  52.840  1.00  0.00    -0.356 OA
HETATM   18  C   UNL     1       8.301  20.615  53.341  1.00  0.00     0.210 C 
ENDBRANCH  14  17
ENDBRANCH   9  11
ENDBRANCH   1   5
BRANCH   2  19
HETATM   19  N   UNL     1       7.093  30.868  59.536  1.00  0.00    -0.267 N 
HETATM   20  C   UNL     1       6.624  32.158  59.409  1.00  0.00     0.236 C 
HETATM   21  O   UNL     1       6.171  32.599  58.355  1.00  0.00    -0.272 OA
HETATM   22  H   UNL     1       7.333  30.441  60.430  1.00  0.00     0.190 HD
BRANCH  20  23
HETATM   23  C   UNL     1       6.719  32.980  60.670  1.00  0.00     0.109 C 
BRANCH  23  24
HETATM   24  C   UNL     1       5.519  32.726  61.578  1.00  0.00     0.048 C 
BRANCH  24  25
HETATM   25  C   UNL     1       5.812  33.101  63.011  1.00  0.00    -0.058 A 
HETATM   26  C   UNL     1       4.767  33.342  63.913  1.00  0.00     0.009 A 
HETATM   27  C   UNL     1       5.042  33.697  65.236  1.00  0.00     0.024 A 
HETATM   28  C   UNL     1       6.363  33.816  65.661  1.00  0.00     0.034 A 
HETATM   29 CL   UNL     1       6.701  34.254  67.290  1.00  0.00    -0.084 Cl
HETATM   30  C   UNL     1       7.412  33.581  64.775  1.00  0.00     0.024 A 
HETATM   31  C   UNL     1       7.137  33.224  63.454  1.00  0.00     0.009 A 
ENDBRANCH  24  25
ENDBRANCH  23  24
ENDBRANCH  20  23
ENDBRANCH   2  19
TORSDOF 7
ENDMDL
MODEL 5
REMARK VINA RESULT:      -8.8      8.621     12.185
REMARK  7 active torsions:
REMARK  status: ('A' for Active; 'I' for Inactive)
REMARK    1  A    between atoms: O_2  and  C_3 
REMARK    2  A    between atoms: C_6  and  C_7 
REMARK    3  A    between atoms: C_11  and  C_12 
REMARK       I    between atoms: C_12  and  N_13 
REMARK    4  A    between atoms: N_13  and  N_14 
REMARK       I    between atoms: N_14  and  C_15 
REMARK    5  A    between atoms: C_15  and  C_16 
REMARK    6  A    between atoms: C_16  and  C_17 
REMARK    7  A    between atoms: C_17  and  C_18 
ROOT
HETATM    1  C   UNL     1       4.663  27.365  49.395  1.00  0.00     0.288 C 
HETATM    2  N   UNL     1       4.763  26.250  50.200  1.00  0.00    -0.262 N 
HETATM    3  O   UNL     1       5.555  28.211  49.350  1.00  0.00    -0.264 OA
HETATM    4  H   UNL     1       4.067  25.509  50.238  1.00  0.00     0.190 HD
ENDROOT
BRANCH   1   5
HETATM    5  C   UNL     1       3.466  27.460  48.609  1.00  0.00     0.121 A 
HETATM    6  N   UNL     1       2.521  26.474  48.620  1.00  0.00    -0.272 N 
HETATM    7  N   UNL     1       1.444  26.735  47.867  1.00  0.00    -0.174 NA
HETATM    8  H   UNL     1       2.555  25.601  49.139  1.00  0.00     0.189 HD
HETATM    9  C   UNL     1       1.693  27.935  47.318  1.00  0.00     0.089 A 
HETATM   10  C   UNL     1       2.961  28.417  47.752  1.00  0.00     0.071 A 
BRANCH   9  11
HETATM   11  C   UNL     1       0.726  28.597  46.439  1.00  0.00    -0.005 A 
HETATM   12  C   UNL     1      -0.305  27.860  45.838  1.00  0.00     0.016 A 
HETATM   13  C   UNL     1      -1.264  28.484  45.030  1.00  0.00     0.037 A 
HETATM   14  C   UNL     1      -1.204  29.859  44.809  1.00  0.00     0.068 A 
HETATM   15  C   UNL     1      -0.166  30.595  45.382  1.00  0.00     0.037 A 
HETATM   16  C   UNL     1       0.791  29.974  46.194  1.00  0.00     0.016 A 
BRANCH  14  17
HETATM   17  O   UNL     1      -2.080  30.591  44.057  1.00  0.00    -0.356 OA
HETATM   18  C   UNL     1      -2.888  29.868  43.136  1.00  0.00     0.210 C 
ENDBRANCH  14  17
ENDBRANCH   9  11
ENDBRANCH   1   5
BRANCH   2  19
HETATM   19  N   UNL     1       5.935  26.050  50.935  1.00  0.00    -0.267 N 
HETATM   20  C   UNL     1       5.930  26.393  52.269  1.00  0.00     0.236 C 
HETATM   21  O   UNL     1       4.979  26.953  52.808  1.00  0.00    -0.272 OA
HETATM   22  H   UNL     1       6.646  25.459  50.506  1.00  0.00     0.190 HD
BRANCH  20  23
HETATM   23  C   UNL     1       7.194  26.026  53.007  1.00  0.00     0.109 C 
BRANCH  23  24
HETATM   24  C   UNL     1       7.849  24.794  52.390  1.00  0.00     0.048 C 
BRANCH  24  25
HETATM   25  C   UNL     1       7.870  23.630  53.351  1.00  0.00    -0.058 A 
HETATM   26  C   UNL     1       7.920  22.313  52.875  1.00  0.00     0.009 A 
HETATM   27  C   UNL     1       7.931  21.238  53.768  1.00  0.00     0.024 A 
HETATM   28  C   UNL     1       7.889  21.476  55.139  1.00  0.00     0.034 A 
HETATM   29 CL   UNL     1       7.901  20.152  56.238  1.00  0.00    -0.084 Cl
HETATM   30  C   UNL     1       7.837  22.780  55.627  1.00  0.00     0.024 A 
HETATM   31  C   UNL     1       7.829  23.854  54.735  1.00  0.00     0.009 A 
ENDBRANCH  24  25
ENDBRANCH  23  24
ENDBRANCH  20  23
ENDBRANCH   2  19
TORSDOF 7
ENDMDL
MODEL 6
REMARK VINA RESULT:      -8.7      4.204     11.518
REMARK  7 active torsions:
REMARK  status: ('A' for Active; 'I' for Inactive)
REMARK    1  A    between atoms: O_2  and  C_3 
REMARK    2  A    between atoms: C_6  and  C_7 
REMARK    3  A    between atoms: C_11  and  C_12 
REMARK       I    between atoms: C_12  and  N_13 
REMARK    4  A    between atoms: N_13  and  N_14 
REMARK       I    between atoms: N_14  and  C_15 
REMARK    5  A    between atoms: C_15  and  C_16 
REMARK    6  A    between atoms: C_16  and  C_17 
REMARK    7  A    between atoms: C_17  and  C_18 
ROOT
HETATM    1  C   UNL     1       8.414  29.978  58.830  1.00  0.00     0.288 C 
HETATM    2  N   UNL     1       7.564  28.927  58.561  1.00  0.00    -0.262 N 
HETATM    3  O   UNL     1       9.275  30.334  58.026  1.00  0.00    -0.264 OA
HETATM    4  H   UNL     1       6.815  28.626  59.180  1.00  0.00     0.190 HD
ENDROOT
BRANCH   1   5
HETATM    5  C   UNL     1       8.216  30.632  60.092  1.00  0.00     0.121 A 
HETATM    6  N   UNL     1       8.996  30.350  61.177  1.00  0.00    -0.272 N 
HETATM    7  N   UNL     1       8.711  31.078  62.265  1.00  0.00    -0.174 NA
HETATM    8  H   UNL     1       9.753  29.674  61.225  1.00  0.00     0.189 HD
HETATM    9  C   UNL     1       7.686  31.862  61.892  1.00  0.00     0.089 A 
HETATM   10  C   UNL     1       7.339  31.602  60.536  1.00  0.00     0.071 A 
BRANCH   9  11
HETATM   11  C   UNL     1       7.094  32.844  62.805  1.00  0.00    -0.005 A 
HETATM   12  C   UNL     1       7.529  32.925  64.136  1.00  0.00     0.016 A 
HETATM   13  C   UNL     1       7.006  33.887  65.010  1.00  0.00     0.037 A 
HETATM   14  C   UNL     1       6.036  34.783  64.564  1.00  0.00     0.068 A 
HETATM   15  C   UNL     1       5.580  34.692  63.248  1.00  0.00     0.037 A 
HETATM   16  C   UNL     1       6.105  33.735  62.372  1.00  0.00     0.016 A 
BRANCH  14  17
HETATM   17  O   UNL     1       5.456  35.774  65.306  1.00  0.00    -0.356 OA
HETATM   18  C   UNL     1       4.035  35.778  65.363  1.00  0.00     0.210 C 
ENDBRANCH  14  17
ENDBRANCH   9  11
ENDBRANCH   1   5
BRANCH   2  19
HETATM   19  N   UNL     1       7.645  28.292  57.319  1.00  0.00    -0.267 N 
HETATM   20  C   UNL     1       7.697  26.915  57.295  1.00  0.00     0.236 C 
HETATM   21  O   UNL     1       7.772  26.236  58.317  1.00  0.00    -0.272 OA
HETATM   22  H   UNL     1       7.436  28.863  56.500  1.00  0.00     0.190 HD
BRANCH  20  23
HETATM   23  C   UNL     1       7.657  26.317  55.911  1.00  0.00     0.109 C 
BRANCH  23  24
HETATM   24  C   UNL     1       6.290  25.706  55.620  1.00  0.00     0.048 C 
BRANCH  24  25
HETATM   25  C   UNL     1       5.908  25.856  54.167  1.00  0.00    -0.058 A 
HETATM   26  C   UNL     1       5.332  24.787  53.467  1.00  0.00     0.009 A 
HETATM   27  C   UNL     1       4.988  24.926  52.120  1.00  0.00     0.024 A 
HETATM   28  C   UNL     1       5.221  26.134  51.467  1.00  0.00     0.034 A 
HETATM   29 CL   UNL     1       4.798  26.305  49.808  1.00  0.00    -0.084 Cl
HETATM   30  C   UNL     1       5.795  27.204  52.149  1.00  0.00     0.024 A 
HETATM   31  C   UNL     1       6.136  27.066  53.496  1.00  0.00     0.009 A 
ENDBRANCH  24  25
ENDBRANCH  23  24
ENDBRANCH  20  23
ENDBRANCH   2  19
TORSDOF 7
ENDMDL
MODEL 7
REMARK VINA RESULT:      -8.7      2.260      2.965
REMARK  7 active torsions:
REMARK  status: ('A' for Active; 'I' for Inactive)
REMARK    1  A    between atoms: O_2  and  C_3 
REMARK    2  A    between atoms: C_6  and  C_7 
REMARK    3  A    between atoms: C_11  and  C_12 
REMARK       I    between atoms: C_12  and  N_13 
REMARK    4  A    between atoms: N_13  and  N_14 
REMARK       I    between atoms: N_14  and  C_15 
REMARK    5  A    between atoms: C_15  and  C_16 
REMARK    6  A    between atoms: C_16  and  C_17 
REMARK    7  A    between atoms: C_17  and  C_18 
ROOT
HETATM    1  C   UNL     1       5.898  29.105  56.661  1.00  0.00     0.288 C 
HETATM    2  N   UNL     1       4.840  29.155  57.544  1.00  0.00    -0.262 N 
HETATM    3  O   UNL     1       6.709  30.027  56.574  1.00  0.00    -0.264 OA
HETATM    4  H   UNL     1       4.171  28.400  57.676  1.00  0.00     0.190 HD
ENDROOT
BRANCH   1   5
HETATM    5  C   UNL     1       5.996  27.910  55.874  1.00  0.00     0.121 A 
HETATM    6  N   UNL     1       5.364  27.791  54.668  1.00  0.00    -0.272 N 
HETATM    7  N   UNL     1       5.593  26.631  54.039  1.00  0.00    -0.174 NA
HETATM    8  H   UNL     1       4.773  28.484  54.218  1.00  0.00     0.189 HD
HETATM    9  C   UNL     1       6.393  25.943  54.869  1.00  0.00     0.089 A 
HETATM   10  C   UNL     1       6.659  26.710  56.039  1.00  0.00     0.071 A 
BRANCH   9  11
HETATM   11  C   UNL     1       6.903  24.613  54.524  1.00  0.00    -0.005 A 
HETATM   12  C   UNL     1       7.220  24.300  53.194  1.00  0.00     0.016 A 
HETATM   13  C   UNL     1       7.751  23.049  52.853  1.00  0.00     0.037 A 
HETATM   14  C   UNL     1       7.970  22.090  53.840  1.00  0.00     0.068 A 
HETATM   15  C   UNL     1       7.632  22.385  55.162  1.00  0.00     0.037 A 
HETATM   16  C   UNL     1       7.107  23.636  55.506  1.00  0.00     0.016 A 
BRANCH  14  17
HETATM   17  O   UNL     1       8.492  20.841  53.645  1.00  0.00    -0.356 OA
HETATM   18  C   UNL     1       8.731  20.062  54.810  1.00  0.00     0.210 C 
ENDBRANCH  14  17
ENDBRANCH   9  11
ENDBRANCH   1   5
BRANCH   2  19
HETATM   19  N   UNL     1       4.725  30.253  58.401  1.00  0.00    -0.267 N 
HETATM   20  C   UNL     1       3.702  31.148  58.175  1.00  0.00     0.236 C 
HETATM   21  O   UNL     1       2.956  31.072  57.201  1.00  0.00    -0.272 OA
HETATM   22  H   UNL     1       5.257  30.211  59.270  1.00  0.00     0.190 HD
BRANCH  20  23
HETATM   23  C   UNL     1       3.582  32.229  59.220  1.00  0.00     0.109 C 
BRANCH  23  24
HETATM   24  C   UNL     1       4.780  33.172  59.171  1.00  0.00     0.048 C 
BRANCH  24  25
HETATM   25  C   UNL     1       5.521  33.206  60.486  1.00  0.00    -0.058 A 
HETATM   26  C   UNL     1       5.109  34.064  61.514  1.00  0.00     0.009 A 
HETATM   27  C   UNL     1       5.802  34.100  62.727  1.00  0.00     0.024 A 
HETATM   28  C   UNL     1       6.911  33.279  62.914  1.00  0.00     0.034 A 
HETATM   29 CL   UNL     1       7.765  33.324  64.407  1.00  0.00    -0.084 Cl
HETATM   30  C   UNL     1       7.334  32.423  61.900  1.00  0.00     0.024 A 
HETATM   31  C   UNL     1       6.640  32.386  60.689  1.00  0.00     0.009 A 
ENDBRANCH  24  25
ENDBRANCH  23  24
ENDBRANCH  20  23
ENDBRANCH   2  19
TORSDOF 7
ENDMDL
MODEL 8
REMARK VINA RESULT:      -8.6      3.979     10.660
REMARK  7 active torsions:
REMARK  status: ('A' for Active; 'I' for Inactive)
REMARK    1  A    between atoms: O_2  and  C_3 
REMARK    2  A    between atoms: C_6  and  C_7 
REMARK    3  A    between atoms: C_11  and  C_12 
REMARK       I    between atoms: C_12  and  N_13 
REMARK    4  A    between atoms: N_13  and  N_14 
REMARK       I    between atoms: N_14  and  C_15 
REMARK    5  A    between atoms: C_15  and  C_16 
REMARK    6  A    between atoms: C_16  and  C_17 
REMARK    7  A    between atoms: C_17  and  C_18 
ROOT
HETATM    1  C   UNL     1       5.179  30.154  55.668  1.00  0.00     0.288 C 
HETATM    2  N   UNL     1       6.218  29.598  54.952  1.00  0.00    -0.262 N 
HETATM    3  O   UNL     1       4.005  29.962  55.356  1.00  0.00    -0.264 OA
HETATM    4  H   UNL     1       7.200  29.700  55.198  1.00  0.00     0.190 HD
ENDROOT
BRANCH   1   5
HETATM    5  C   UNL     1       5.560  30.950  56.800  1.00  0.00     0.121 A 
HETATM    6  N   UNL     1       5.282  32.286  56.864  1.00  0.00    -0.272 N 
HETATM    7  N   UNL     1       5.663  32.873  58.006  1.00  0.00    -0.174 NA
HETATM    8  H   UNL     1       4.816  32.847  56.156  1.00  0.00     0.189 HD
HETATM    9  C   UNL     1       6.236  31.892  58.721  1.00  0.00     0.089 A 
HETATM   10  C   UNL     1       6.200  30.670  57.991  1.00  0.00     0.071 A 
BRANCH   9  11
HETATM   11  C   UNL     1       6.763  32.125  60.068  1.00  0.00    -0.005 A 
HETATM   12  C   UNL     1       8.100  31.823  60.367  1.00  0.00     0.016 A 
HETATM   13  C   UNL     1       8.632  32.081  61.637  1.00  0.00     0.037 A 
HETATM   14  C   UNL     1       7.832  32.643  62.630  1.00  0.00     0.068 A 
HETATM   15  C   UNL     1       6.494  32.922  62.348  1.00  0.00     0.037 A 
HETATM   16  C   UNL     1       5.961  32.671  61.078  1.00  0.00     0.016 A 
BRANCH  14  17
HETATM   17  O   UNL     1       8.229  32.956  63.900  1.00  0.00    -0.356 OA
HETATM   18  C   UNL     1       7.207  33.343  64.810  1.00  0.00     0.210 C 
ENDBRANCH  14  17
ENDBRANCH   9  11
ENDBRANCH   1   5
BRANCH   2  19
HETATM   19  N   UNL     1       5.924  28.746  53.884  1.00  0.00    -0.267 N 
HETATM   20  C   UNL     1       6.879  27.830  53.502  1.00  0.00     0.236 C 
HETATM   21  O   UNL     1       8.005  27.799  53.995  1.00  0.00    -0.272 OA
HETATM   22  H   UNL     1       4.947  28.696  53.596  1.00  0.00     0.190 HD
BRANCH  20  23
HETATM   23  C   UNL     1       6.427  26.874  52.427  1.00  0.00     0.109 C 
BRANCH  23  24
HETATM   24  C   UNL     1       5.638  25.713  53.025  1.00  0.00     0.048 C 
BRANCH  24  25
HETATM   25  C   UNL     1       6.549  24.640  53.572  1.00  0.00    -0.058 A 
HETATM   26  C   UNL     1       7.376  23.901  52.715  1.00  0.00     0.009 A 
HETATM   27  C   UNL     1       8.211  22.903  53.224  1.00  0.00     0.024 A 
HETATM   28  C   UNL     1       8.220  22.639  54.592  1.00  0.00     0.034 A 
HETATM   29 CL   UNL     1       9.248  21.409  55.218  1.00  0.00    -0.084 Cl
HETATM   30  C   UNL     1       7.403  23.364  55.455  1.00  0.00     0.024 A 
HETATM   31  C   UNL     1       6.570  24.363  54.947  1.00  0.00     0.009 A 
ENDBRANCH  24  25
ENDBRANCH  23  24
ENDBRANCH  20  23
ENDBRANCH   2  19
TORSDOF 7
ENDMDL
MODEL 9
REMARK VINA RESULT:      -8.4      4.559     10.959
REMARK  7 active torsions:
REMARK  status: ('A' for Active; 'I' for Inactive)
REMARK    1  A    between atoms: O_2  and  C_3 
REMARK    2  A    between atoms: C_6  and  C_7 
REMARK    3  A    between atoms: C_11  and  C_12 
REMARK       I    between atoms: C_12  and  N_13 
REMARK    4  A    between atoms: N_13  and  N_14 
REMARK       I    between atoms: N_14  and  C_15 
REMARK    5  A    between atoms: C_15  and  C_16 
REMARK    6  A    between atoms: C_16  and  C_17 
REMARK    7  A    between atoms: C_17  and  C_18 
ROOT
HETATM    1  C   UNL     1       4.848  27.882  55.947  1.00  0.00     0.288 C 
HETATM    2  N   UNL     1       4.355  27.814  54.662  1.00  0.00    -0.262 N 
HETATM    3  O   UNL     1       5.541  26.983  56.421  1.00  0.00    -0.264 OA
HETATM    4  H   UNL     1       3.812  28.552  54.218  1.00  0.00     0.190 HD
ENDROOT
BRANCH   1   5
HETATM    5  C   UNL     1       4.515  29.071  56.679  1.00  0.00     0.121 A 
HETATM    6  N   UNL     1       3.294  29.671  56.557  1.00  0.00    -0.272 N 
HETATM    7  N   UNL     1       3.126  30.744  57.341  1.00  0.00    -0.174 NA
HETATM    8  H   UNL     1       2.527  29.377  55.958  1.00  0.00     0.189 HD
HETATM    9  C   UNL     1       4.291  30.873  57.996  1.00  0.00     0.089 A 
HETATM   10  C   UNL     1       5.194  29.847  57.598  1.00  0.00     0.071 A 
BRANCH   9  11
HETATM   11  C   UNL     1       4.504  31.929  58.990  1.00  0.00    -0.005 A 
HETATM   12  C   UNL     1       5.727  32.025  59.670  1.00  0.00     0.016 A 
HETATM   13  C   UNL     1       5.964  33.053  60.591  1.00  0.00     0.037 A 
HETATM   14  C   UNL     1       4.976  34.002  60.849  1.00  0.00     0.068 A 
HETATM   15  C   UNL     1       3.746  33.898  60.196  1.00  0.00     0.037 A 
HETATM   16  C   UNL     1       3.510  32.874  59.272  1.00  0.00     0.016 A 
BRANCH  14  17
HETATM   17  O   UNL     1       5.082  35.059  61.710  1.00  0.00    -0.356 OA
HETATM   18  C   UNL     1       4.104  36.083  61.585  1.00  0.00     0.210 C 
ENDBRANCH  14  17
ENDBRANCH   9  11
ENDBRANCH   1   5
BRANCH   2  19
HETATM   19  N   UNL     1       4.704  26.724  53.860  1.00  0.00    -0.267 N 
HETATM   20  C   UNL     1       5.599  26.933  52.834  1.00  0.00     0.236 C 
HETATM   21  O   UNL     1       6.022  28.048  52.537  1.00  0.00    -0.272 OA
HETATM   22  H   UNL     1       4.456  25.800  54.214  1.00  0.00     0.190 HD
BRANCH  20  23
HETATM   23  C   UNL     1       6.009  25.678  52.104  1.00  0.00     0.109 C 
BRANCH  23  24
HETATM   24  C   UNL     1       7.448  25.299  52.438  1.00  0.00     0.048 C 
BRANCH  24  25
HETATM   25  C   UNL     1       7.514  24.099  53.353  1.00  0.00    -0.058 A 
HETATM   26  C   UNL     1       7.296  24.240  54.730  1.00  0.00     0.009 A 
HETATM   27  C   UNL     1       7.366  23.129  55.574  1.00  0.00     0.024 A 
HETATM   28  C   UNL     1       7.658  21.875  55.045  1.00  0.00     0.034 A 
HETATM   29 CL   UNL     1       7.746  20.508  56.086  1.00  0.00    -0.084 Cl
HETATM   30  C   UNL     1       7.880  21.720  53.679  1.00  0.00     0.024 A 
HETATM   31  C   UNL     1       7.807  22.830  52.835  1.00  0.00     0.009 A 
ENDBRANCH  24  25
ENDBRANCH  23  24
ENDBRANCH  20  23
ENDBRANCH   2  19
TORSDOF 7
ENDMDL
MODEL 10
REMARK VINA RESULT:      -8.4      2.624      3.118
REMARK  7 active torsions:
REMARK  status: ('A' for Active; 'I' for Inactive)
REMARK    1  A    between atoms: O_2  and  C_3 
REMARK    2  A    between atoms: C_6  and  C_7 
REMARK    3  A    between atoms: C_11  and  C_12 
REMARK       I    between atoms: C_12  and  N_13 
REMARK    4  A    between atoms: N_13  and  N_14 
REMARK       I    between atoms: N_14  and  C_15 
REMARK    5  A    between atoms: C_15  and  C_16 
REMARK    6  A    between atoms: C_16  and  C_17 
REMARK    7  A    between atoms: C_17  and  C_18 
ROOT
HETATM    1  C   UNL     1       5.344  30.158  57.861  1.00  0.00     0.288 C 
HETATM    2  N   UNL     1       6.599  30.357  58.397  1.00  0.00    -0.262 N 
HETATM    3  O   UNL     1       4.373  30.816  58.231  1.00  0.00    -0.264 OA
HETATM    4  H   UNL     1       7.435  29.864  58.093  1.00  0.00     0.190 HD
ENDROOT
BRANCH   1   5
HETATM    5  C   UNL     1       5.256  29.154  56.840  1.00  0.00     0.121 A 
HETATM    6  N   UNL     1       5.085  27.833  57.146  1.00  0.00    -0.272 N 
HETATM    7  N   UNL     1       4.977  27.031  56.078  1.00  0.00    -0.174 NA
HETATM    8  H   UNL     1       5.020  27.425  58.074  1.00  0.00     0.189 HD
HETATM    9  C   UNL     1       5.101  27.849  55.021  1.00  0.00     0.089 A 
HETATM   10  C   UNL     1       5.290  29.191  55.460  1.00  0.00     0.071 A 
BRANCH   9  11
HETATM   11  C   UNL     1       5.006  27.353  53.646  1.00  0.00    -0.005 A 
HETATM   12  C   UNL     1       4.770  28.243  52.587  1.00  0.00     0.016 A 
HETATM   13  C   UNL     1       4.720  27.792  51.262  1.00  0.00     0.037 A 
HETATM   14  C   UNL     1       4.904  26.441  50.975  1.00  0.00     0.068 A 
HETATM   15  C   UNL     1       5.113  25.545  52.025  1.00  0.00     0.037 A 
HETATM   16  C   UNL     1       5.168  25.994  53.350  1.00  0.00     0.016 A 
BRANCH  14  17
HETATM   17  O   UNL     1       4.892  25.875  49.731  1.00  0.00    -0.356 OA
HETATM   18  C   UNL     1       4.024  26.462  48.771  1.00  0.00     0.210 C 
ENDBRANCH  14  17
ENDBRANCH   9  11
ENDBRANCH   1   5
BRANCH   2  19
HETATM   19  N   UNL     1       6.778  31.373  59.340  1.00  0.00    -0.267 N 
HETATM   20  C   UNL     1       7.883  31.310  60.160  1.00  0.00     0.236 C 
HETATM   21  O   UNL     1       8.655  30.354  60.162  1.00  0.00    -0.272 OA
HETATM   22  H   UNL     1       6.213  32.213  59.218  1.00  0.00     0.190 HD
BRANCH  20  23
HETATM   23  C   UNL     1       8.059  32.510  61.057  1.00  0.00     0.109 C 
BRANCH  23  24
HETATM   24  C   UNL     1       8.338  32.080  62.495  1.00  0.00     0.048 C 
BRANCH  24  25
HETATM   25  C   UNL     1       7.308  32.628  63.453  1.00  0.00    -0.058 A 
HETATM   26  C   UNL     1       7.704  33.310  64.612  1.00  0.00     0.009 A 
HETATM   27  C   UNL     1       6.747  33.807  65.501  1.00  0.00     0.024 A 
HETATM   28  C   UNL     1       5.393  33.622  65.236  1.00  0.00     0.034 A 
HETATM   29 CL   UNL     1       4.216  34.234  66.332  1.00  0.00    -0.084 Cl
HETATM   30  C   UNL     1       4.985  32.944  64.090  1.00  0.00     0.024 A 
HETATM   31  C   UNL     1       5.941  32.449  63.200  1.00  0.00     0.009 A 
ENDBRANCH  24  25
ENDBRANCH  23  24
ENDBRANCH  20  23
ENDBRANCH   2  19
TORSDOF 7
ENDMDL
