MODEL 1
REMARK VINA RESULT:     -10.3      0.000      0.000
REMARK  7 active torsions:
REMARK  status: ('A' for Active; 'I' for Inactive)
REMARK    1  A    between atoms: C_2  and  C_3 
REMARK    2  A    between atoms: C_3  and  N_4 
REMARK       I    between atoms: N_4  and  C_5 
REMARK    3  A    between atoms: C_5  and  C_6 
REMARK    4  A    between atoms: C_7  and  N_8 
REMARK    5  A    between atoms: N_9  and  N_10 
REMARK    6  A    between atoms: C_11  and  C_12 
REMARK    7  A    between atoms: C_13  and  O_14 
ROOT
HETATM    1  C   UNL     1       6.743  26.231  56.197  1.00  0.00     0.104 C 
HETATM    2  C   UNL     1       5.569  26.613  55.559  1.00  0.00     0.123 C 
HETATM    3  N   UNL     1       5.556  25.986  54.315  1.00  0.00    -0.202 N 
HETATM    4  C   UNL     1       6.355  24.868  54.411  1.00  0.00     0.183 A 
HETATM    5  C   UNL     1       7.159  25.039  55.537  1.00  0.00     0.124 A 
HETATM    6  N   UNL     1       8.161  24.167  55.816  1.00  0.00    -0.242 NA
HETATM    7  C   UNL     1       8.259  23.128  54.969  1.00  0.00     0.086 A 
HETATM    8  C   UNL     1       7.407  22.965  53.844  1.00  0.00     0.088 A 
HETATM    9  N   UNL     1       6.450  23.851  53.522  1.00  0.00    -0.225 NA
HETATM   10  C   UNL     1       9.236  22.171  55.213  1.00  0.00     0.034 A 
HETATM   11  C   UNL     1       9.388  21.052  54.392  1.00  0.00     0.002 A 
HETATM   12  C   UNL     1       8.545  20.887  53.301  1.00  0.00     0.002 A 
HETATM   13  C   UNL     1       7.566  21.846  53.038  1.00  0.00     0.034 A 
ENDROOT
BRANCH   3  14
HETATM   14  N   UNL     1       4.927  26.425  53.164  1.00  0.00    -0.176 NA
HETATM   15  C   UNL     1       5.758  26.960  52.319  1.00  0.00     0.153 C 
BRANCH  15  16
HETATM   16  C   UNL     1       5.345  27.474  51.004  1.00  0.00     0.017 A 
HETATM   17  C   UNL     1       5.474  28.818  50.651  1.00  0.00     0.077 A 
HETATM   18  C   UNL     1       5.003  29.258  49.417  1.00  0.00     0.039 A 
HETATM   19  C   UNL     1       4.411  28.355  48.530  1.00  0.00     0.022 A 
HETATM   20  C   UNL     1       4.298  27.010  48.883  1.00  0.00     0.012 A 
HETATM   21 BR   UNL     1       3.504  25.783  47.683  1.00  0.00    -0.051 Br
HETATM   22  C   UNL     1       4.758  26.562  50.118  1.00  0.00     0.034 A 
BRANCH  17  23
HETATM   23  O   UNL     1       6.031  29.753  51.476  1.00  0.00    -0.360 OA
HETATM   24  H   UNL     1       6.775  29.330  51.962  1.00  0.00     0.217 HD
ENDBRANCH  17  23
ENDBRANCH  15  16
ENDBRANCH   3  14
BRANCH   2  25
HETATM   25  N   UNL     1       4.605  27.518  55.923  1.00  0.00    -0.286 NA
HETATM   26  H   UNL     1       4.901  28.498  55.965  1.00  0.00     0.125 HD
HETATM   27  H   UNL     1       3.714  27.461  55.419  1.00  0.00     0.125 HD
ENDBRANCH   2  25
BRANCH   1  28
HETATM   28  C   UNL     1       7.393  26.948  57.289  1.00  0.00     0.257 C 
HETATM   29  N   UNL     1       7.436  28.314  57.073  1.00  0.00    -0.356 N 
HETATM   30  H   UNL     1       7.114  28.610  56.158  1.00  0.00     0.162 HD
HETATM   31  O   UNL     1       7.929  26.405  58.247  1.00  0.00    -0.267 OA
BRANCH  29  32
HETATM   32  C   UNL     1       8.372  29.182  57.751  1.00  0.00     0.126 C 
BRANCH  32  33
HETATM   33  C   UNL     1       9.743  29.238  57.053  1.00  0.00    -0.005 C 
HETATM   34  C   UNL     1      10.613  30.360  57.620  1.00  0.00     0.011 C 
HETATM   35  C   UNL     1       9.628  29.373  55.530  1.00  0.00     0.011 C 
ENDBRANCH  32  33
ENDBRANCH  29  32
ENDBRANCH   1  28
TORSDOF 7
ENDMDL
MODEL 2
REMARK VINA RESULT:     -10.2      3.426      7.511
REMARK  7 active torsions:
REMARK  status: ('A' for Active; 'I' for Inactive)
REMARK    1  A    between atoms: C_2  and  C_3 
REMARK    2  A    between atoms: C_3  and  N_4 
REMARK       I    between atoms: N_4  and  C_5 
REMARK    3  A    between atoms: C_5  and  C_6 
REMARK    4  A    between atoms: C_7  and  N_8 
REMARK    5  A    between atoms: N_9  and  N_10 
REMARK    6  A    between atoms: C_11  and  C_12 
REMARK    7  A    between atoms: C_13  and  O_14 
ROOT
HETATM    1  C   UNL     1       7.665  24.928  56.061  1.00  0.00     0.104 C 
HETATM    2  C   UNL     1       7.429  25.762  57.148  1.00  0.00     0.123 C 
HETATM    3  N   UNL     1       7.094  27.014  56.637  1.00  0.00    -0.202 N 
HETATM    4  C   UNL     1       6.599  26.820  55.366  1.00  0.00     0.183 A 
HETATM    5  C   UNL     1       7.013  25.552  54.959  1.00  0.00     0.124 A 
HETATM    6  N   UNL     1       6.805  25.128  53.688  1.00  0.00    -0.242 NA
HETATM    7  C   UNL     1       6.132  25.989  52.906  1.00  0.00     0.086 A 
HETATM    8  C   UNL     1       5.699  27.265  53.356  1.00  0.00     0.088 A 
HETATM    9  N   UNL     1       5.950  27.723  54.594  1.00  0.00    -0.225 NA
HETATM   10  C   UNL     1       5.846  25.608  51.601  1.00  0.00     0.034 A 
HETATM   11  C   UNL     1       5.133  26.437  50.734  1.00  0.00     0.002 A 
HETATM   12  C   UNL     1       4.698  27.678  51.180  1.00  0.00     0.002 A 
HETATM   13  C   UNL     1       4.988  28.079  52.485  1.00  0.00     0.034 A 
ENDROOT
BRANCH   3  14
HETATM   14  N   UNL     1       7.281  28.242  57.245  1.00  0.00    -0.176 NA
HETATM   15  C   UNL     1       8.540  28.524  57.414  1.00  0.00     0.153 C 
BRANCH  15  16
HETATM   16  C   UNL     1       9.007  29.786  58.008  1.00  0.00     0.017 A 
HETATM   17  C   UNL     1      10.161  30.438  57.570  1.00  0.00     0.077 A 
HETATM   18  C   UNL     1      10.591  31.594  58.216  1.00  0.00     0.039 A 
HETATM   19  C   UNL     1       9.863  32.106  59.294  1.00  0.00     0.022 A 
HETATM   20  C   UNL     1       8.703  31.457  59.718  1.00  0.00     0.012 A 
HETATM   21 BR   UNL     1       7.712  32.151  61.172  1.00  0.00    -0.051 Br
HETATM   22  C   UNL     1       8.270  30.297  59.084  1.00  0.00     0.034 A 
BRANCH  17  23
HETATM   23  O   UNL     1      10.923  29.983  56.532  1.00  0.00    -0.360 OA
HETATM   24  H   UNL     1      10.477  30.234  55.690  1.00  0.00     0.217 HD
ENDBRANCH  17  23
ENDBRANCH  15  16
ENDBRANCH   3  14
BRANCH   2  25
HETATM   25  N   UNL     1       7.588  25.549  58.493  1.00  0.00    -0.286 NA
HETATM   26  H   UNL     1       7.502  24.577  58.807  1.00  0.00     0.125 HD
HETATM   27  H   UNL     1       8.418  25.965  58.925  1.00  0.00     0.125 HD
ENDBRANCH   2  25
BRANCH   1  28
HETATM   28  C   UNL     1       8.447  23.697  56.085  1.00  0.00     0.257 C 
HETATM   29  N   UNL     1       8.935  23.356  54.836  1.00  0.00    -0.356 N 
HETATM   30  H   UNL     1       8.600  23.937  54.075  1.00  0.00     0.162 HD
HETATM   31  O   UNL     1       8.582  22.986  57.072  1.00  0.00    -0.267 OA
BRANCH  29  32
HETATM   32  C   UNL     1       9.351  22.013  54.501  1.00  0.00     0.126 C 
BRANCH  32  33
HETATM   33  C   UNL     1       8.164  21.089  54.173  1.00  0.00    -0.005 C 
HETATM   34  C   UNL     1       7.928  20.067  55.286  1.00  0.00     0.011 C 
HETATM   35  C   UNL     1       8.321  20.377  52.824  1.00  0.00     0.011 C 
ENDBRANCH  32  33
ENDBRANCH  29  32
ENDBRANCH   1  28
TORSDOF 7
ENDMDL
MODEL 3
REMARK VINA RESULT:      -9.5      3.786      7.450
REMARK  7 active torsions:
REMARK  status: ('A' for Active; 'I' for Inactive)
REMARK    1  A    between atoms: C_2  and  C_3 
REMARK    2  A    between atoms: C_3  and  N_4 
REMARK       I    between atoms: N_4  and  C_5 
REMARK    3  A    between atoms: C_5  and  C_6 
REMARK    4  A    between atoms: C_7  and  N_8 
REMARK    5  A    between atoms: N_9  and  N_10 
REMARK    6  A    between atoms: C_11  and  C_12 
REMARK    7  A    between atoms: C_13  and  O_14 
ROOT
HETATM    1  C   UNL     1       6.542  30.829  58.017  1.00  0.00     0.104 C 
HETATM    2  C   UNL     1       7.282  29.653  57.984  1.00  0.00     0.123 C 
HETATM    3  N   UNL     1       6.634  28.786  57.108  1.00  0.00    -0.202 N 
HETATM    4  C   UNL     1       5.895  29.558  56.238  1.00  0.00     0.183 A 
HETATM    5  C   UNL     1       5.760  30.815  56.826  1.00  0.00     0.124 A 
HETATM    6  N   UNL     1       4.955  31.757  56.275  1.00  0.00    -0.242 NA
HETATM    7  C   UNL     1       4.371  31.398  55.119  1.00  0.00     0.086 A 
HETATM    8  C   UNL     1       4.548  30.117  54.529  1.00  0.00     0.088 A 
HETATM    9  N   UNL     1       5.295  29.154  55.094  1.00  0.00    -0.225 NA
HETATM   10  C   UNL     1       3.563  32.326  54.474  1.00  0.00     0.034 A 
HETATM   11  C   UNL     1       2.938  32.036  53.260  1.00  0.00     0.002 A 
HETATM   12  C   UNL     1       3.124  30.789  52.678  1.00  0.00     0.002 A 
HETATM   13  C   UNL     1       3.924  29.844  53.320  1.00  0.00     0.034 A 
ENDROOT
BRANCH   3  14
HETATM   14  N   UNL     1       6.655  27.403  57.132  1.00  0.00    -0.176 NA
HETATM   15  C   UNL     1       7.533  26.906  56.313  1.00  0.00     0.153 C 
BRANCH  15  16
HETATM   16  C   UNL     1       7.776  25.462  56.175  1.00  0.00     0.017 A 
HETATM   17  C   UNL     1       8.136  24.657  57.256  1.00  0.00     0.077 A 
HETATM   18  C   UNL     1       8.420  23.308  57.051  1.00  0.00     0.039 A 
HETATM   19  C   UNL     1       8.334  22.761  55.768  1.00  0.00     0.022 A 
HETATM   20  C   UNL     1       7.959  23.569  54.694  1.00  0.00     0.012 A 
HETATM   21 BR   UNL     1       7.835  22.831  52.957  1.00  0.00    -0.051 Br
HETATM   22  C   UNL     1       7.683  24.919  54.887  1.00  0.00     0.034 A 
BRANCH  17  23
HETATM   23  O   UNL     1       8.250  25.131  58.531  1.00  0.00    -0.360 OA
HETATM   24  H   UNL     1       8.242  26.115  58.495  1.00  0.00     0.217 HD
ENDBRANCH  17  23
ENDBRANCH  15  16
ENDBRANCH   3  14
BRANCH   2  25
HETATM   25  N   UNL     1       8.371  29.259  58.718  1.00  0.00    -0.286 NA
HETATM   26  H   UNL     1       8.599  28.261  58.684  1.00  0.00     0.125 HD
HETATM   27  H   UNL     1       9.231  29.801  58.584  1.00  0.00     0.125 HD
ENDBRANCH   2  25
BRANCH   1  28
HETATM   28  C   UNL     1       6.570  31.826  59.082  1.00  0.00     0.257 C 
HETATM   29  N   UNL     1       7.045  31.311  60.275  1.00  0.00    -0.356 N 
HETATM   30  H   UNL     1       7.204  30.309  60.273  1.00  0.00     0.162 HD
HETATM   31  O   UNL     1       6.134  32.964  58.971  1.00  0.00    -0.267 OA
BRANCH  29  32
HETATM   32  C   UNL     1       6.777  31.930  61.553  1.00  0.00     0.126 C 
BRANCH  32  33
HETATM   33  C   UNL     1       7.948  31.782  62.542  1.00  0.00    -0.005 C 
HETATM   34  C   UNL     1       7.905  32.862  63.623  1.00  0.00     0.011 C 
HETATM   35  C   UNL     1       9.314  31.780  61.847  1.00  0.00     0.011 C 
ENDBRANCH  32  33
ENDBRANCH  29  32
ENDBRANCH   1  28
TORSDOF 7
ENDMDL
MODEL 4
REMARK VINA RESULT:      -9.4      2.998      6.899
REMARK  7 active torsions:
REMARK  status: ('A' for Active; 'I' for Inactive)
REMARK    1  A    between atoms: C_2  and  C_3 
REMARK    2  A    between atoms: C_3  and  N_4 
REMARK       I    between atoms: N_4  and  C_5 
REMARK    3  A    between atoms: C_5  and  C_6 
REMARK    4  A    between atoms: C_7  and  N_8 
REMARK    5  A    between atoms: N_9  and  N_10 
REMARK    6  A    between atoms: C_11  and  C_12 
REMARK    7  A    between atoms: C_13  and  O_14 
ROOT
HETATM    1  C   UNL     1       6.293  26.101  52.734  1.00  0.00     0.104 C 
HETATM    2  C   UNL     1       6.717  27.282  53.332  1.00  0.00     0.123 C 
HETATM    3  N   UNL     1       7.057  26.975  54.647  1.00  0.00    -0.202 N 
HETATM    4  C   UNL     1       7.370  25.634  54.688  1.00  0.00     0.183 A 
HETATM    5  C   UNL     1       6.832  25.057  53.539  1.00  0.00     0.124 A 
HETATM    6  N   UNL     1       6.847  23.712  53.363  1.00  0.00    -0.242 NA
HETATM    7  C   UNL     1       7.462  23.021  54.338  1.00  0.00     0.086 A 
HETATM    8  C   UNL     1       8.026  23.639  55.486  1.00  0.00     0.088 A 
HETATM    9  N   UNL     1       7.965  24.963  55.702  1.00  0.00    -0.225 NA
HETATM   10  C   UNL     1       7.553  21.640  54.209  1.00  0.00     0.034 A 
HETATM   11  C   UNL     1       8.195  20.854  55.167  1.00  0.00     0.002 A 
HETATM   12  C   UNL     1       8.757  21.461  56.282  1.00  0.00     0.002 A 
HETATM   13  C   UNL     1       8.664  22.846  56.430  1.00  0.00     0.034 A 
ENDROOT
BRANCH   3  14
HETATM   14  N   UNL     1       7.023  27.824  55.739  1.00  0.00    -0.176 NA
HETATM   15  C   UNL     1       8.114  28.522  55.857  1.00  0.00     0.153 C 
BRANCH  15  16
HETATM   16  C   UNL     1       8.315  29.522  56.917  1.00  0.00     0.017 A 
HETATM   17  C   UNL     1       9.571  29.793  57.461  1.00  0.00     0.077 A 
HETATM   18  C   UNL     1       9.690  30.702  58.510  1.00  0.00     0.039 A 
HETATM   19  C   UNL     1       8.555  31.348  59.009  1.00  0.00     0.022 A 
HETATM   20  C   UNL     1       7.305  31.083  58.451  1.00  0.00     0.012 A 
HETATM   21 BR   UNL     1       5.768  31.961  59.118  1.00  0.00    -0.051 Br
HETATM   22  C   UNL     1       7.175  30.170  57.408  1.00  0.00     0.034 A 
BRANCH  17  23
HETATM   23  O   UNL     1      10.716  29.187  57.028  1.00  0.00    -0.360 OA
HETATM   24  H   UNL     1      11.215  28.874  57.817  1.00  0.00     0.217 HD
ENDBRANCH  17  23
ENDBRANCH  15  16
ENDBRANCH   3  14
BRANCH   2  25
HETATM   25  N   UNL     1       6.722  28.571  52.866  1.00  0.00    -0.286 NA
HETATM   26  H   UNL     1       6.553  28.687  51.862  1.00  0.00     0.125 HD
HETATM   27  H   UNL     1       6.145  29.243  53.380  1.00  0.00     0.125 HD
ENDBRANCH   2  25
BRANCH   1  28
HETATM   28  C   UNL     1       5.449  26.001  51.548  1.00  0.00     0.257 C 
HETATM   29  N   UNL     1       5.642  27.054  50.671  1.00  0.00    -0.356 N 
HETATM   30  H   UNL     1       6.250  27.788  51.016  1.00  0.00     0.162 HD
HETATM   31  O   UNL     1       4.595  25.140  51.382  1.00  0.00    -0.267 OA
BRANCH  29  32
HETATM   32  C   UNL     1       4.665  27.426  49.673  1.00  0.00     0.126 C 
BRANCH  32  33
HETATM   33  C   UNL     1       4.952  26.797  48.298  1.00  0.00    -0.005 C 
HETATM   34  C   UNL     1       5.375  27.854  47.278  1.00  0.00     0.011 C 
HETATM   35  C   UNL     1       3.771  25.983  47.759  1.00  0.00     0.011 C 
ENDBRANCH  32  33
ENDBRANCH  29  32
ENDBRANCH   1  28
TORSDOF 7
ENDMDL
MODEL 5
REMARK VINA RESULT:      -9.3      3.522      7.402
REMARK  7 active torsions:
REMARK  status: ('A' for Active; 'I' for Inactive)
REMARK    1  A    between atoms: C_2  and  C_3 
REMARK    2  A    between atoms: C_3  and  N_4 
REMARK       I    between atoms: N_4  and  C_5 
REMARK    3  A    between atoms: C_5  and  C_6 
REMARK    4  A    between atoms: C_7  and  N_8 
REMARK    5  A    between atoms: N_9  and  N_10 
REMARK    6  A    between atoms: C_11  and  C_12 
REMARK    7  A    between atoms: C_13  and  O_14 
ROOT
HETATM    1  C   UNL     1       6.967  25.319  55.299  1.00  0.00     0.104 C 
HETATM    2  C   UNL     1       6.395  25.769  56.483  1.00  0.00     0.123 C 
HETATM    3  N   UNL     1       5.759  26.975  56.197  1.00  0.00    -0.202 N 
HETATM    4  C   UNL     1       5.466  26.976  54.851  1.00  0.00     0.183 A 
HETATM    5  C   UNL     1       6.270  26.000  54.261  1.00  0.00     0.124 A 
HETATM    6  N   UNL     1       6.317  25.861  52.913  1.00  0.00    -0.242 NA
HETATM    7  C   UNL     1       5.500  26.680  52.230  1.00  0.00     0.086 A 
HETATM    8  C   UNL     1       4.672  27.647  52.860  1.00  0.00     0.088 A 
HETATM    9  N   UNL     1       4.659  27.837  54.189  1.00  0.00    -0.225 NA
HETATM   10  C   UNL     1       5.464  26.569  50.845  1.00  0.00     0.034 A 
HETATM   11  C   UNL     1       4.626  27.369  50.066  1.00  0.00     0.002 A 
HETATM   12  C   UNL     1       3.807  28.303  50.685  1.00  0.00     0.002 A 
HETATM   13  C   UNL     1       3.841  28.434  52.074  1.00  0.00     0.034 A 
ENDROOT
BRANCH   3  14
HETATM   14  N   UNL     1       5.520  28.022  57.070  1.00  0.00    -0.176 NA
HETATM   15  C   UNL     1       6.525  28.844  57.143  1.00  0.00     0.153 C 
BRANCH  15  16
HETATM   16  C   UNL     1       6.511  30.057  57.974  1.00  0.00     0.017 A 
HETATM   17  C   UNL     1       5.411  30.914  58.029  1.00  0.00     0.077 A 
HETATM   18  C   UNL     1       5.481  32.084  58.781  1.00  0.00     0.039 A 
HETATM   19  C   UNL     1       6.647  32.395  59.487  1.00  0.00     0.022 A 
HETATM   20  C   UNL     1       7.738  31.526  59.439  1.00  0.00     0.012 A 
HETATM   21 BR   UNL     1       9.315  31.939  60.399  1.00  0.00    -0.051 Br
HETATM   22  C   UNL     1       7.681  30.359  58.684  1.00  0.00     0.034 A 
BRANCH  17  23
HETATM   23  O   UNL     1       4.248  30.676  57.354  1.00  0.00    -0.360 OA
HETATM   24  H   UNL     1       4.012  31.489  56.851  1.00  0.00     0.217 HD
ENDBRANCH  17  23
ENDBRANCH  15  16
ENDBRANCH   3  14
BRANCH   2  25
HETATM   25  N   UNL     1       6.480  25.282  57.762  1.00  0.00    -0.286 NA
HETATM   26  H   UNL     1       5.592  25.170  58.261  1.00  0.00     0.125 HD
HETATM   27  H   UNL     1       7.043  24.436  57.891  1.00  0.00     0.125 HD
ENDBRANCH   2  25
BRANCH   1  28
HETATM   28  C   UNL     1       8.069  24.369  55.192  1.00  0.00     0.257 C 
HETATM   29  N   UNL     1       8.151  23.794  53.936  1.00  0.00    -0.356 N 
HETATM   30  H   UNL     1       7.387  24.027  53.311  1.00  0.00     0.162 HD
HETATM   31  O   UNL     1       8.786  24.037  56.127  1.00  0.00    -0.267 OA
BRANCH  29  32
HETATM   32  C   UNL     1       8.841  22.548  53.692  1.00  0.00     0.126 C 
BRANCH  32  33
HETATM   33  C   UNL     1       7.905  21.327  53.760  1.00  0.00    -0.005 C 
HETATM   34  C   UNL     1       7.910  20.696  55.152  1.00  0.00     0.011 C 
HETATM   35  C   UNL     1       8.228  20.272  52.696  1.00  0.00     0.011 C 
ENDBRANCH  32  33
ENDBRANCH  29  32
ENDBRANCH   1  28
TORSDOF 7
ENDMDL
MODEL 6
REMARK VINA RESULT:      -9.2      4.351      7.598
REMARK  7 active torsions:
REMARK  status: ('A' for Active; 'I' for Inactive)
REMARK    1  A    between atoms: C_2  and  C_3 
REMARK    2  A    between atoms: C_3  and  N_4 
REMARK       I    between atoms: N_4  and  C_5 
REMARK    3  A    between atoms: C_5  and  C_6 
REMARK    4  A    between atoms: C_7  and  N_8 
REMARK    5  A    between atoms: N_9  and  N_10 
REMARK    6  A    between atoms: C_11  and  C_12 
REMARK    7  A    between atoms: C_13  and  O_14 
ROOT
HETATM    1  C   UNL     1       7.646  30.308  58.695  1.00  0.00     0.104 C 
HETATM    2  C   UNL     1       7.796  29.279  57.773  1.00  0.00     0.123 C 
HETATM    3  N   UNL     1       6.624  29.229  57.021  1.00  0.00    -0.202 N 
HETATM    4  C   UNL     1       6.046  30.478  57.080  1.00  0.00     0.183 A 
HETATM    5  C   UNL     1       6.616  31.138  58.169  1.00  0.00     0.124 A 
HETATM    6  N   UNL     1       6.143  32.342  58.577  1.00  0.00    -0.242 NA
HETATM    7  C   UNL     1       5.152  32.847  57.822  1.00  0.00     0.086 A 
HETATM    8  C   UNL     1       4.609  32.164  56.702  1.00  0.00     0.088 A 
HETATM    9  N   UNL     1       5.026  30.945  56.322  1.00  0.00    -0.225 NA
HETATM   10  C   UNL     1       4.644  34.097  58.155  1.00  0.00     0.034 A 
HETATM   11  C   UNL     1       3.629  34.698  57.408  1.00  0.00     0.002 A 
HETATM   12  C   UNL     1       3.110  34.035  56.305  1.00  0.00     0.002 A 
HETATM   13  C   UNL     1       3.603  32.775  55.966  1.00  0.00     0.034 A 
ENDROOT
BRANCH   3  14
HETATM   14  N   UNL     1       6.084  28.125  56.386  1.00  0.00    -0.176 NA
HETATM   15  C   UNL     1       6.620  27.912  55.221  1.00  0.00     0.153 C 
BRANCH  15  16
HETATM   16  C   UNL     1       6.245  26.781  54.360  1.00  0.00     0.017 A 
HETATM   17  C   UNL     1       4.986  26.677  53.766  1.00  0.00     0.077 A 
HETATM   18  C   UNL     1       4.665  25.549  53.016  1.00  0.00     0.039 A 
HETATM   19  C   UNL     1       5.605  24.527  52.849  1.00  0.00     0.022 A 
HETATM   20  C   UNL     1       6.866  24.644  53.434  1.00  0.00     0.012 A 
HETATM   21 BR   UNL     1       8.143  23.268  53.205  1.00  0.00    -0.051 Br
HETATM   22  C   UNL     1       7.194  25.764  54.193  1.00  0.00     0.034 A 
BRANCH  17  23
HETATM   23  O   UNL     1       4.020  27.633  53.900  1.00  0.00    -0.360 OA
HETATM   24  H   UNL     1       4.433  28.435  54.294  1.00  0.00     0.217 HD
ENDBRANCH  17  23
ENDBRANCH  15  16
ENDBRANCH   3  14
BRANCH   2  25
HETATM   25  N   UNL     1       8.791  28.348  57.622  1.00  0.00    -0.286 NA
HETATM   26  H   UNL     1       9.677  28.695  57.241  1.00  0.00     0.125 HD
HETATM   27  H   UNL     1       8.988  27.756  58.435  1.00  0.00     0.125 HD
ENDBRANCH   2  25
BRANCH   1  28
HETATM   28  C   UNL     1       8.390  30.451  59.942  1.00  0.00     0.257 C 
HETATM   29  N   UNL     1       7.601  30.920  60.978  1.00  0.00    -0.356 N 
HETATM   30  H   UNL     1       6.664  31.196  60.707  1.00  0.00     0.162 HD
HETATM   31  O   UNL     1       9.596  30.271  60.048  1.00  0.00    -0.267 OA
BRANCH  29  32
HETATM   32  C   UNL     1       8.154  31.547  62.157  1.00  0.00     0.126 C 
BRANCH  32  33
HETATM   33  C   UNL     1       7.140  32.452  62.879  1.00  0.00    -0.005 C 
HETATM   34  C   UNL     1       6.610  33.547  61.954  1.00  0.00     0.011 C 
HETATM   35  C   UNL     1       7.704  33.069  64.164  1.00  0.00     0.011 C 
ENDBRANCH  32  33
ENDBRANCH  29  32
ENDBRANCH   1  28
TORSDOF 7
ENDMDL
MODEL 7
REMARK VINA RESULT:      -9.1      1.679      2.051
REMARK  7 active torsions:
REMARK  status: ('A' for Active; 'I' for Inactive)
REMARK    1  A    between atoms: C_2  and  C_3 
REMARK    2  A    between atoms: C_3  and  N_4 
REMARK       I    between atoms: N_4  and  C_5 
REMARK    3  A    between atoms: C_5  and  C_6 
REMARK    4  A    between atoms: C_7  and  N_8 
REMARK    5  A    between atoms: N_9  and  N_10 
REMARK    6  A    between atoms: C_11  and  C_12 
REMARK    7  A    between atoms: C_13  and  O_14 
ROOT
HETATM    1  C   UNL     1       6.528  27.200  55.339  1.00  0.00     0.104 C 
HETATM    2  C   UNL     1       5.363  27.432  54.618  1.00  0.00     0.123 C 
HETATM    3  N   UNL     1       5.374  26.559  53.532  1.00  0.00    -0.202 N 
HETATM    4  C   UNL     1       6.175  25.491  53.872  1.00  0.00     0.183 A 
HETATM    5  C   UNL     1       6.960  25.900  54.950  1.00  0.00     0.124 A 
HETATM    6  N   UNL     1       7.960  25.113  55.420  1.00  0.00    -0.242 NA
HETATM    7  C   UNL     1       8.076  23.921  54.810  1.00  0.00     0.086 A 
HETATM    8  C   UNL     1       7.244  23.520  53.731  1.00  0.00     0.088 A 
HETATM    9  N   UNL     1       6.290  24.312  53.216  1.00  0.00    -0.225 NA
HETATM   10  C   UNL     1       9.053  23.043  55.264  1.00  0.00     0.034 A 
HETATM   11  C   UNL     1       9.223  21.779  54.698  1.00  0.00     0.002 A 
HETATM   12  C   UNL     1       8.400  21.383  53.653  1.00  0.00     0.002 A 
HETATM   13  C   UNL     1       7.422  22.259  53.179  1.00  0.00     0.034 A 
ENDROOT
BRANCH   3  14
HETATM   14  N   UNL     1       4.762  26.743  52.305  1.00  0.00    -0.176 NA
HETATM   15  C   UNL     1       5.555  27.297  51.435  1.00  0.00     0.153 C 
BRANCH  15  16
HETATM   16  C   UNL     1       5.156  27.569  50.046  1.00  0.00     0.017 A 
HETATM   17  C   UNL     1       5.459  28.770  49.402  1.00  0.00     0.077 A 
HETATM   18  C   UNL     1       4.995  28.998  48.108  1.00  0.00     0.039 A 
HETATM   19  C   UNL     1       4.238  28.022  47.453  1.00  0.00     0.022 A 
HETATM   20  C   UNL     1       3.951  26.819  48.098  1.00  0.00     0.012 A 
HETATM   21 BR   UNL     1       2.933  25.494  47.212  1.00  0.00    -0.051 Br
HETATM   22  C   UNL     1       4.402  26.585  49.393  1.00  0.00     0.034 A 
BRANCH  17  23
HETATM   23  O   UNL     1       6.182  29.767  49.990  1.00  0.00    -0.360 OA
HETATM   24  H   UNL     1       6.537  30.350  49.280  1.00  0.00     0.217 HD
ENDBRANCH  17  23
ENDBRANCH  15  16
ENDBRANCH   3  14
BRANCH   2  25
HETATM   25  N   UNL     1       4.389  28.385  54.769  1.00  0.00    -0.286 NA
HETATM   26  H   UNL     1       3.516  28.071  55.203  1.00  0.00     0.125 HD
HETATM   27  H   UNL     1       4.678  29.266  55.204  1.00  0.00     0.125 HD
ENDBRANCH   2  25
BRANCH   1  28
HETATM   28  C   UNL     1       7.156  28.134  56.267  1.00  0.00     0.257 C 
HETATM   29  N   UNL     1       6.237  28.755  57.095  1.00  0.00    -0.356 N 
HETATM   30  H   UNL     1       5.267  28.560  56.875  1.00  0.00     0.162 HD
HETATM   31  O   UNL     1       8.347  28.416  56.260  1.00  0.00    -0.267 OA
BRANCH  29  32
HETATM   32  C   UNL     1       6.518  29.997  57.778  1.00  0.00     0.126 C 
BRANCH  32  33
HETATM   33  C   UNL     1       5.410  31.048  57.580  1.00  0.00    -0.005 C 
HETATM   34  C   UNL     1       5.552  32.203  58.571  1.00  0.00     0.011 C 
HETATM   35  C   UNL     1       4.002  30.447  57.664  1.00  0.00     0.011 C 
ENDBRANCH  32  33
ENDBRANCH  29  32
ENDBRANCH   1  28
TORSDOF 7
ENDMDL
MODEL 8
REMARK VINA RESULT:      -9.0      3.101      7.446
REMARK  7 active torsions:
REMARK  status: ('A' for Active; 'I' for Inactive)
REMARK    1  A    between atoms: C_2  and  C_3 
REMARK    2  A    between atoms: C_3  and  N_4 
REMARK       I    between atoms: N_4  and  C_5 
REMARK    3  A    between atoms: C_5  and  C_6 
REMARK    4  A    between atoms: C_7  and  N_8 
REMARK    5  A    between atoms: N_9  and  N_10 
REMARK    6  A    between atoms: C_11  and  C_12 
REMARK    7  A    between atoms: C_13  and  O_14 
ROOT
HETATM    1  C   UNL     1       4.313  29.172  54.343  1.00  0.00     0.104 C 
HETATM    2  C   UNL     1       4.517  27.833  54.032  1.00  0.00     0.123 C 
HETATM    3  N   UNL     1       5.750  27.472  54.570  1.00  0.00    -0.202 N 
HETATM    4  C   UNL     1       6.013  28.335  55.610  1.00  0.00     0.183 A 
HETATM    5  C   UNL     1       5.180  29.440  55.441  1.00  0.00     0.124 A 
HETATM    6  N   UNL     1       5.309  30.536  56.230  1.00  0.00    -0.242 NA
HETATM    7  C   UNL     1       6.240  30.434  57.193  1.00  0.00     0.086 A 
HETATM    8  C   UNL     1       7.057  29.284  57.359  1.00  0.00     0.088 A 
HETATM    9  N   UNL     1       6.982  28.216  56.549  1.00  0.00    -0.225 NA
HETATM   10  C   UNL     1       6.403  31.502  58.067  1.00  0.00     0.034 A 
HETATM   11  C   UNL     1       7.333  31.465  59.106  1.00  0.00     0.002 A 
HETATM   12  C   UNL     1       8.121  30.334  59.275  1.00  0.00     0.002 A 
HETATM   13  C   UNL     1       7.977  29.258  58.399  1.00  0.00     0.034 A 
ENDROOT
BRANCH   3  14
HETATM   14  N   UNL     1       6.604  26.482  54.115  1.00  0.00    -0.176 NA
HETATM   15  C   UNL     1       6.328  25.318  54.624  1.00  0.00     0.153 C 
BRANCH  15  16
HETATM   16  C   UNL     1       7.066  24.095  54.275  1.00  0.00     0.017 A 
HETATM   17  C   UNL     1       7.544  23.850  52.987  1.00  0.00     0.077 A 
HETATM   18  C   UNL     1       8.176  22.642  52.700  1.00  0.00     0.039 A 
HETATM   19  C   UNL     1       8.340  21.682  53.703  1.00  0.00     0.022 A 
HETATM   20  C   UNL     1       7.872  21.939  54.992  1.00  0.00     0.012 A 
HETATM   21 BR   UNL     1       8.099  20.646  56.353  1.00  0.00    -0.051 Br
HETATM   22  C   UNL     1       7.231  23.139  55.286  1.00  0.00     0.034 A 
BRANCH  17  23
HETATM   23  O   UNL     1       7.405  24.740  51.961  1.00  0.00    -0.360 OA
HETATM   24  H   UNL     1       6.589  24.508  51.461  1.00  0.00     0.217 HD
ENDBRANCH  17  23
ENDBRANCH  15  16
ENDBRANCH   3  14
BRANCH   2  25
HETATM   25  N   UNL     1       3.789  26.972  53.252  1.00  0.00    -0.286 NA
HETATM   26  H   UNL     1       2.878  27.316  52.933  1.00  0.00     0.125 HD
HETATM   27  H   UNL     1       4.281  26.549  52.459  1.00  0.00     0.125 HD
ENDBRANCH   2  25
BRANCH   1  28
HETATM   28  C   UNL     1       3.411  30.081  53.645  1.00  0.00     0.257 C 
HETATM   29  N   UNL     1       3.073  29.625  52.383  1.00  0.00    -0.356 N 
HETATM   30  H   UNL     1       3.572  28.795  52.083  1.00  0.00     0.162 HD
HETATM   31  O   UNL     1       3.063  31.173  54.077  1.00  0.00    -0.267 OA
BRANCH  29  32
HETATM   32  C   UNL     1       2.572  30.499  51.346  1.00  0.00     0.126 C 
BRANCH  32  33
HETATM   33  C   UNL     1       3.073  30.106  49.945  1.00  0.00    -0.005 C 
HETATM   34  C   UNL     1       2.205  29.008  49.329  1.00  0.00     0.011 C 
HETATM   35  C   UNL     1       4.546  29.685  49.938  1.00  0.00     0.011 C 
ENDBRANCH  32  33
ENDBRANCH  29  32
ENDBRANCH   1  28
TORSDOF 7
ENDMDL
MODEL 9
REMARK VINA RESULT:      -8.9      2.464      5.598
REMARK  7 active torsions:
REMARK  status: ('A' for Active; 'I' for Inactive)
REMARK    1  A    between atoms: C_2  and  C_3 
REMARK    2  A    between atoms: C_3  and  N_4 
REMARK       I    between atoms: N_4  and  C_5 
REMARK    3  A    between atoms: C_5  and  C_6 
REMARK    4  A    between atoms: C_7  and  N_8 
REMARK    5  A    between atoms: N_9  and  N_10 
REMARK    6  A    between atoms: C_11  and  C_12 
REMARK    7  A    between atoms: C_13  and  O_14 
ROOT
HETATM    1  C   UNL     1       7.125  25.568  53.401  1.00  0.00     0.104 C 
HETATM    2  C   UNL     1       6.499  26.086  52.273  1.00  0.00     0.123 C 
HETATM    3  N   UNL     1       5.699  27.144  52.699  1.00  0.00    -0.202 N 
HETATM    4  C   UNL     1       6.228  27.608  53.883  1.00  0.00     0.183 A 
HETATM    5  C   UNL     1       7.060  26.604  54.376  1.00  0.00     0.124 A 
HETATM    6  N   UNL     1       7.616  26.704  55.610  1.00  0.00    -0.242 NA
HETATM    7  C   UNL     1       7.347  27.849  56.261  1.00  0.00     0.086 A 
HETATM    8  C   UNL     1       6.516  28.867  55.722  1.00  0.00     0.088 A 
HETATM    9  N   UNL     1       5.912  28.756  54.527  1.00  0.00    -0.225 NA
HETATM   10  C   UNL     1       7.914  28.042  57.515  1.00  0.00     0.034 A 
HETATM   11  C   UNL     1       7.700  29.212  58.244  1.00  0.00     0.002 A 
HETATM   12  C   UNL     1       6.899  30.212  57.710  1.00  0.00     0.002 A 
HETATM   13  C   UNL     1       6.314  30.028  56.456  1.00  0.00     0.034 A 
ENDROOT
BRANCH   3  14
HETATM   14  N   UNL     1       4.543  27.612  52.101  1.00  0.00    -0.176 NA
HETATM   15  C   UNL     1       4.788  28.452  51.139  1.00  0.00     0.153 C 
BRANCH  15  16
HETATM   16  C   UNL     1       3.731  29.068  50.322  1.00  0.00     0.017 A 
HETATM   17  C   UNL     1       2.401  29.126  50.739  1.00  0.00     0.077 A 
HETATM   18  C   UNL     1       1.432  29.660  49.893  1.00  0.00     0.039 A 
HETATM   19  C   UNL     1       1.793  30.145  48.633  1.00  0.00     0.022 A 
HETATM   20  C   UNL     1       3.127  30.097  48.228  1.00  0.00     0.012 A 
HETATM   21 BR   UNL     1       3.622  30.760  46.527  1.00  0.00    -0.051 Br
HETATM   22  C   UNL     1       4.101  29.558  49.063  1.00  0.00     0.034 A 
BRANCH  17  23
HETATM   23  O   UNL     1       1.980  28.657  51.951  1.00  0.00    -0.360 OA
HETATM   24  H   UNL     1       1.656  29.422  52.480  1.00  0.00     0.217 HD
ENDBRANCH  17  23
ENDBRANCH  15  16
ENDBRANCH   3  14
BRANCH   2  25
HETATM   25  N   UNL     1       6.489  25.650  50.973  1.00  0.00    -0.286 NA
HETATM   26  H   UNL     1       5.567  25.449  50.574  1.00  0.00     0.125 HD
HETATM   27  H   UNL     1       7.028  26.206  50.303  1.00  0.00     0.125 HD
ENDBRANCH   2  25
BRANCH   1  28
HETATM   28  C   UNL     1       7.687  24.228  53.524  1.00  0.00     0.257 C 
HETATM   29  N   UNL     1       7.817  23.827  54.842  1.00  0.00    -0.356 N 
HETATM   30  H   UNL     1       7.608  24.545  55.527  1.00  0.00     0.162 HD
HETATM   31  O   UNL     1       8.093  23.562  52.580  1.00  0.00    -0.267 OA
BRANCH  29  32
HETATM   32  C   UNL     1       8.715  22.772  55.252  1.00  0.00     0.126 C 
BRANCH  32  33
HETATM   33  C   UNL     1       7.992  21.432  55.480  1.00  0.00    -0.005 C 
HETATM   34  C   UNL     1       8.413  20.788  56.801  1.00  0.00     0.011 C 
HETATM   35  C   UNL     1       8.189  20.446  54.323  1.00  0.00     0.011 C 
ENDBRANCH  32  33
ENDBRANCH  29  32
ENDBRANCH   1  28
TORSDOF 7
ENDMDL
MODEL 10
REMARK VINA RESULT:      -8.9     11.327     15.663
REMARK  7 active torsions:
REMARK  status: ('A' for Active; 'I' for Inactive)
REMARK    1  A    between atoms: C_2  and  C_3 
REMARK    2  A    between atoms: C_3  and  N_4 
REMARK       I    between atoms: N_4  and  C_5 
REMARK    3  A    between atoms: C_5  and  C_6 
REMARK    4  A    between atoms: C_7  and  N_8 
REMARK    5  A    between atoms: N_9  and  N_10 
REMARK    6  A    between atoms: C_11  and  C_12 
REMARK    7  A    between atoms: C_13  and  O_14 
ROOT
HETATM    1  C   UNL     1       3.284  34.094  63.939  1.00  0.00     0.104 C 
HETATM    2  C   UNL     1       3.511  34.581  65.222  1.00  0.00     0.123 C 
HETATM    3  N   UNL     1       4.674  33.973  65.690  1.00  0.00    -0.202 N 
HETATM    4  C   UNL     1       5.412  33.597  64.590  1.00  0.00     0.183 A 
HETATM    5  C   UNL     1       4.542  33.590  63.500  1.00  0.00     0.124 A 
HETATM    6  N   UNL     1       4.942  33.118  62.293  1.00  0.00    -0.242 NA
HETATM    7  C   UNL     1       6.227  32.728  62.235  1.00  0.00     0.086 A 
HETATM    8  C   UNL     1       7.099  32.771  63.356  1.00  0.00     0.088 A 
HETATM    9  N   UNL     1       6.700  33.181  64.572  1.00  0.00    -0.225 NA
HETATM   10  C   UNL     1       6.721  32.269  61.020  1.00  0.00     0.034 A 
HETATM   11  C   UNL     1       8.050  31.867  60.874  1.00  0.00     0.002 A 
HETATM   12  C   UNL     1       8.904  31.923  61.967  1.00  0.00     0.002 A 
HETATM   13  C   UNL     1       8.419  32.371  63.196  1.00  0.00     0.034 A 
ENDROOT
BRANCH   3  14
HETATM   14  N   UNL     1       5.012  33.717  67.007  1.00  0.00    -0.176 NA
HETATM   15  C   UNL     1       5.688  34.690  67.543  1.00  0.00     0.153 C 
BRANCH  15  16
HETATM   16  C   UNL     1       6.137  34.679  68.943  1.00  0.00     0.017 A 
HETATM   17  C   UNL     1       5.788  33.663  69.834  1.00  0.00     0.077 A 
HETATM   18  C   UNL     1       6.187  33.742  71.166  1.00  0.00     0.039 A 
HETATM   19  C   UNL     1       6.944  34.832  71.607  1.00  0.00     0.022 A 
HETATM   20  C   UNL     1       7.301  35.837  70.708  1.00  0.00     0.012 A 
HETATM   21 BR   UNL     1       8.332  37.309  71.299  1.00  0.00    -0.051 Br
HETATM   22  C   UNL     1       6.900  35.771  69.377  1.00  0.00     0.034 A 
BRANCH  17  23
HETATM   23  O   UNL     1       5.041  32.580  69.470  1.00  0.00    -0.360 OA
HETATM   24  H   UNL     1       4.267  32.522  70.076  1.00  0.00     0.217 HD
ENDBRANCH  17  23
ENDBRANCH  15  16
ENDBRANCH   3  14
BRANCH   2  25
HETATM   25  N   UNL     1       2.749  35.395  66.019  1.00  0.00    -0.286 NA
HETATM   26  H   UNL     1       3.265  36.014  66.652  1.00  0.00     0.125 HD
HETATM   27  H   UNL     1       2.015  35.934  65.550  1.00  0.00     0.125 HD
ENDBRANCH   2  25
BRANCH   1  28
HETATM   28  C   UNL     1       2.003  34.093  63.242  1.00  0.00     0.257 C 
HETATM   29  N   UNL     1       2.148  34.202  61.870  1.00  0.00    -0.356 N 
HETATM   30  H   UNL     1       3.097  34.371  61.554  1.00  0.00     0.162 HD
HETATM   31  O   UNL     1       0.914  34.095  63.802  1.00  0.00    -0.267 OA
BRANCH  29  32
HETATM   32  C   UNL     1       1.080  34.651  61.006  1.00  0.00     0.126 C 
BRANCH  32  33
HETATM   33  C   UNL     1       1.500  35.827  60.105  1.00  0.00    -0.005 C 
HETATM   34  C   UNL     1       1.699  35.378  58.658  1.00  0.00     0.011 C 
HETATM   35  C   UNL     1       2.754  36.547  60.615  1.00  0.00     0.011 C 
ENDBRANCH  32  33
ENDBRANCH  29  32
ENDBRANCH   1  28
TORSDOF 7
ENDMDL
