MODEL 1
REMARK VINA RESULT:      -9.9      0.000      0.000
REMARK  9 active torsions:
REMARK  status: ('A' for Active; 'I' for Inactive)
REMARK       I    between atoms: C_2  and  N_3 
REMARK    1  A    between atoms: N_3  and  C_4 
REMARK    2  A    between atoms: C_7  and  C_8 
REMARK    3  A    between atoms: C_8  and  N_9 
REMARK    4  A    between atoms: C_11  and  C_12 
REMARK       I    between atoms: C_12  and  N_13 
REMARK    5  A    between atoms: N_13  and  C_14 
REMARK    6  A    between atoms: C_16  and  S_17 
REMARK    7  A    between atoms: C_24  and  N_25 
REMARK    8  A    between atoms: C_28  and  C_29 
REMARK    9  A    between atoms: C_29  and  O_30 
ROOT
HETATM    1  N   UNL     1       6.079  35.161  65.547  1.00  0.00    -0.052 N 
HETATM    2  H   UNL     1       7.059  35.458  65.665  1.00  0.00     0.281 HD
HETATM    3  C   UNL     1       5.267  35.746  66.719  1.00  0.00     0.282 C 
HETATM    4  C   UNL     1       3.843  35.656  66.193  1.00  0.00     0.072 C 
HETATM    5  C   UNL     1       3.979  36.027  64.700  1.00  0.00     0.134 C 
HETATM    6  C   UNL     1       5.453  35.787  64.329  1.00  0.00     0.263 C 
ENDROOT
BRANCH   1   7
HETATM    7  C   UNL     1       6.114  33.638  65.528  1.00  0.00     0.274 C 
BRANCH   7   8
HETATM    8  C   UNL     1       6.568  33.041  64.227  1.00  0.00    -0.032 A 
HETATM    9  C   UNL     1       7.931  32.966  63.917  1.00  0.00     0.011 A 
HETATM   10  C   UNL     1       8.363  32.292  62.770  1.00  0.00     0.030 A 
HETATM   11  C   UNL     1       7.448  31.673  61.919  1.00  0.00     0.034 A 
HETATM   12  C   UNL     1       6.082  31.787  62.204  1.00  0.00     0.030 A 
HETATM   13  C   UNL     1       5.644  32.465  63.347  1.00  0.00     0.011 A 
BRANCH  11  14
HETATM   14  N   UNL     1       7.813  30.889  60.806  1.00  0.00    -0.328 N 
HETATM   15  C   UNL     1       8.449  31.317  59.653  1.00  0.00     0.218 C 
HETATM   16  C   UNL     1       8.833  30.177  58.744  1.00  0.00     0.117 C 
HETATM   17  O   UNL     1       8.736  32.475  59.365  1.00  0.00    -0.274 OA
HETATM   18  H   UNL     1       7.647  29.893  60.885  1.00  0.00     0.169 HD
ENDBRANCH  11  14
ENDBRANCH   7   8
ENDBRANCH   1   7
BRANCH   3  19
HETATM   19  C   UNL     1       5.687  35.103  68.050  1.00  0.00     0.253 C 
HETATM   20  N   UNL     1       6.942  35.394  68.528  1.00  0.00    -0.325 N 
HETATM   21  H   UNL     1       7.655  35.739  67.894  1.00  0.00     0.169 HD
HETATM   22  O   UNL     1       4.826  34.437  68.629  1.00  0.00    -0.271 OA
BRANCH  20  23
HETATM   23  C   UNL     1       7.399  35.155  69.851  1.00  0.00     0.036 A 
HETATM   24  C   UNL     1       7.459  33.880  70.431  1.00  0.00     0.048 A 
HETATM   25  C   UNL     1       7.887  33.701  71.754  1.00  0.00     0.002 A 
HETATM   26  C   UNL     1       8.239  34.828  72.503  1.00  0.00     0.018 A 
HETATM   27  C   UNL     1       8.175  36.103  71.941  1.00  0.00     0.004 A 
HETATM   28  C   UNL     1       7.753  36.266  70.621  1.00  0.00     0.029 A 
BRANCH  25  29
HETATM   29  S   UNL     1       7.952  32.115  72.580  1.00  0.00    -0.134 SA
HETATM   30  C   UNL     1       7.201  30.988  71.373  1.00  0.00     0.095 C 
ENDBRANCH  25  29
ENDBRANCH  20  23
ENDBRANCH   3  19
BRANCH   5  31
HETATM   31  N   UNL     1       3.117  35.282  63.809  1.00  0.00    -0.276 N 
HETATM   32  N   UNL     1       2.665  34.076  64.182  1.00  0.00     0.005 NA
HETATM   33  N   UNL     1       2.181  33.481  63.102  1.00  0.00    -0.152 NA
HETATM   34  C   UNL     1       2.317  34.338  62.035  1.00  0.00     0.166 A 
HETATM   35  C   UNL     1       2.889  35.513  62.489  1.00  0.00     0.147 A 
BRANCH  34  36
HETATM   36  C   UNL     1       1.972  34.011  60.660  1.00  0.00     0.314 C 
HETATM   37  O   UNL     1       2.455  33.053  60.068  1.00  0.00    -0.257 OA
BRANCH  36  38
HETATM   38  O   UNL     1       1.026  34.846  60.144  1.00  0.00    -0.321 OA
HETATM   39  C   UNL     1      -0.284  34.648  60.679  1.00  0.00     0.213 C 
ENDBRANCH  36  38
ENDBRANCH  34  36
ENDBRANCH   5  31
TORSDOF 9
ENDMDL
MODEL 2
REMARK VINA RESULT:      -9.4      9.346     15.518
REMARK  9 active torsions:
REMARK  status: ('A' for Active; 'I' for Inactive)
REMARK       I    between atoms: C_2  and  N_3 
REMARK    1  A    between atoms: N_3  and  C_4 
REMARK    2  A    between atoms: C_7  and  C_8 
REMARK    3  A    between atoms: C_8  and  N_9 
REMARK    4  A    between atoms: C_11  and  C_12 
REMARK       I    between atoms: C_12  and  N_13 
REMARK    5  A    between atoms: N_13  and  C_14 
REMARK    6  A    between atoms: C_16  and  S_17 
REMARK    7  A    between atoms: C_24  and  N_25 
REMARK    8  A    between atoms: C_28  and  C_29 
REMARK    9  A    between atoms: C_29  and  O_30 
ROOT
HETATM    1  N   UNL     1       4.549  27.964  54.616  1.00  0.00    -0.052 N 
HETATM    2  H   UNL     1       4.178  27.050  54.318  1.00  0.00     0.281 HD
HETATM    3  C   UNL     1       3.830  29.053  53.796  1.00  0.00     0.282 C 
HETATM    4  C   UNL     1       4.090  30.299  54.627  1.00  0.00     0.072 C 
HETATM    5  C   UNL     1       3.961  29.803  56.083  1.00  0.00     0.134 C 
HETATM    6  C   UNL     1       4.170  28.279  56.040  1.00  0.00     0.263 C 
ENDROOT
BRANCH   1   7
HETATM    7  C   UNL     1       6.049  27.899  54.361  1.00  0.00     0.274 C 
BRANCH   7   8
HETATM    8  C   UNL     1       6.573  26.521  54.075  1.00  0.00    -0.032 A 
HETATM    9  C   UNL     1       6.321  25.467  54.961  1.00  0.00     0.011 A 
HETATM   10  C   UNL     1       6.691  24.159  54.632  1.00  0.00     0.030 A 
HETATM   11  C   UNL     1       7.308  23.876  53.413  1.00  0.00     0.034 A 
HETATM   12  C   UNL     1       7.602  24.937  52.548  1.00  0.00     0.030 A 
HETATM   13  C   UNL     1       7.239  26.248  52.874  1.00  0.00     0.011 A 
BRANCH  11  14
HETATM   14  N   UNL     1       7.615  22.574  52.969  1.00  0.00    -0.328 N 
HETATM   15  C   UNL     1       8.570  21.717  53.486  1.00  0.00     0.218 C 
HETATM   16  C   UNL     1       8.509  20.341  52.870  1.00  0.00     0.117 C 
HETATM   17  O   UNL     1       9.375  21.972  54.376  1.00  0.00    -0.274 OA
HETATM   18  H   UNL     1       7.030  22.204  52.230  1.00  0.00     0.169 HD
ENDBRANCH  11  14
ENDBRANCH   7   8
ENDBRANCH   1   7
BRANCH   3  19
HETATM   19  C   UNL     1       4.218  28.966  52.312  1.00  0.00     0.253 C 
HETATM   20  N   UNL     1       3.797  27.863  51.608  1.00  0.00    -0.325 N 
HETATM   21  H   UNL     1       3.532  27.019  52.104  1.00  0.00     0.169 HD
HETATM   22  O   UNL     1       4.815  29.939  51.846  1.00  0.00    -0.271 OA
BRANCH  20  23
HETATM   23  C   UNL     1       3.788  27.740  50.194  1.00  0.00     0.036 A 
HETATM   24  C   UNL     1       2.841  28.363  49.367  1.00  0.00     0.048 A 
HETATM   25  C   UNL     1       2.856  28.182  47.977  1.00  0.00     0.002 A 
HETATM   26  C   UNL     1       3.828  27.347  47.420  1.00  0.00     0.018 A 
HETATM   27  C   UNL     1       4.771  26.714  48.230  1.00  0.00     0.004 A 
HETATM   28  C   UNL     1       4.748  26.907  49.612  1.00  0.00     0.029 A 
BRANCH  25  29
HETATM   29  S   UNL     1       1.660  28.906  46.861  1.00  0.00    -0.134 SA
HETATM   30  C   UNL     1       0.520  27.536  46.526  1.00  0.00     0.095 C 
ENDBRANCH  25  29
ENDBRANCH  20  23
ENDBRANCH   3  19
BRANCH   5  31
HETATM   31  N   UNL     1       4.892  30.403  57.013  1.00  0.00    -0.276 N 
HETATM   32  N   UNL     1       4.961  31.739  57.109  1.00  0.00     0.005 NA
HETATM   33  N   UNL     1       6.073  32.035  57.765  1.00  0.00    -0.152 NA
HETATM   34  C   UNL     1       6.705  30.859  58.101  1.00  0.00     0.166 A 
HETATM   35  C   UNL     1       5.934  29.804  57.648  1.00  0.00     0.147 A 
BRANCH  34  36
HETATM   36  C   UNL     1       8.000  30.774  58.760  1.00  0.00     0.314 C 
HETATM   37  O   UNL     1       8.502  29.707  59.094  1.00  0.00    -0.257 OA
BRANCH  36  38
HETATM   38  O   UNL     1       8.596  31.992  58.902  1.00  0.00    -0.321 OA
HETATM   39  C   UNL     1       8.769  32.403  60.260  1.00  0.00     0.213 C 
ENDBRANCH  36  38
ENDBRANCH  34  36
ENDBRANCH   5  31
TORSDOF 9
ENDMDL
MODEL 3
REMARK VINA RESULT:      -9.2      8.420     14.623
REMARK  9 active torsions:
REMARK  status: ('A' for Active; 'I' for Inactive)
REMARK       I    between atoms: C_2  and  N_3 
REMARK    1  A    between atoms: N_3  and  C_4 
REMARK    2  A    between atoms: C_7  and  C_8 
REMARK    3  A    between atoms: C_8  and  N_9 
REMARK    4  A    between atoms: C_11  and  C_12 
REMARK       I    between atoms: C_12  and  N_13 
REMARK    5  A    between atoms: N_13  and  C_14 
REMARK    6  A    between atoms: C_16  and  S_17 
REMARK    7  A    between atoms: C_24  and  N_25 
REMARK    8  A    between atoms: C_28  and  C_29 
REMARK    9  A    between atoms: C_29  and  O_30 
ROOT
HETATM    1  N   UNL     1       5.125  27.767  55.496  1.00  0.00    -0.052 N 
HETATM    2  H   UNL     1       4.587  26.919  55.265  1.00  0.00     0.281 HD
HETATM    3  C   UNL     1       4.230  28.986  55.200  1.00  0.00     0.282 C 
HETATM    4  C   UNL     1       4.914  30.083  55.999  1.00  0.00     0.072 C 
HETATM    5  C   UNL     1       5.351  29.374  57.299  1.00  0.00     0.134 C 
HETATM    6  C   UNL     1       5.390  27.869  56.976  1.00  0.00     0.263 C 
ENDROOT
BRANCH   1   7
HETATM    7  C   UNL     1       6.378  27.705  54.632  1.00  0.00     0.274 C 
BRANCH   7   8
HETATM    8  C   UNL     1       6.672  26.349  54.058  1.00  0.00    -0.032 A 
HETATM    9  C   UNL     1       7.585  26.205  53.006  1.00  0.00     0.011 A 
HETATM   10  C   UNL     1       7.960  24.934  52.560  1.00  0.00     0.030 A 
HETATM   11  C   UNL     1       7.442  23.785  53.159  1.00  0.00     0.034 A 
HETATM   12  C   UNL     1       6.494  23.929  54.179  1.00  0.00     0.030 A 
HETATM   13  C   UNL     1       6.111  25.198  54.626  1.00  0.00     0.011 A 
BRANCH  11  14
HETATM   14  N   UNL     1       7.850  22.475  52.835  1.00  0.00    -0.328 N 
HETATM   15  C   UNL     1       8.707  21.663  53.557  1.00  0.00     0.218 C 
HETATM   16  C   UNL     1       8.787  20.264  52.999  1.00  0.00     0.117 C 
HETATM   17  O   UNL     1       9.326  21.972  54.569  1.00  0.00    -0.274 OA
HETATM   18  H   UNL     1       7.420  22.062  52.016  1.00  0.00     0.169 HD
ENDBRANCH  11  14
ENDBRANCH   7   8
ENDBRANCH   1   7
BRANCH   3  19
HETATM   19  C   UNL     1       3.968  29.118  53.691  1.00  0.00     0.253 C 
HETATM   20  N   UNL     1       4.576  30.158  53.029  1.00  0.00    -0.325 N 
HETATM   21  H   UNL     1       4.905  30.963  53.550  1.00  0.00     0.169 HD
HETATM   22  O   UNL     1       3.293  28.225  53.175  1.00  0.00    -0.271 OA
BRANCH  20  23
HETATM   23  C   UNL     1       4.707  30.276  51.620  1.00  0.00     0.036 A 
HETATM   24  C   UNL     1       3.959  31.175  50.845  1.00  0.00     0.048 A 
HETATM   25  C   UNL     1       4.102  31.230  49.452  1.00  0.00     0.002 A 
HETATM   26  C   UNL     1       4.999  30.353  48.835  1.00  0.00     0.018 A 
HETATM   27  C   UNL     1       5.743  29.448  49.592  1.00  0.00     0.004 A 
HETATM   28  C   UNL     1       5.595  29.407  50.979  1.00  0.00     0.029 A 
BRANCH  25  29
HETATM   29  S   UNL     1       3.157  32.316  48.390  1.00  0.00    -0.134 SA
HETATM   30  C   UNL     1       4.435  33.300  47.560  1.00  0.00     0.095 C 
ENDBRANCH  25  29
ENDBRANCH  20  23
ENDBRANCH   3  19
BRANCH   5  31
HETATM   31  N   UNL     1       6.628  29.801  57.824  1.00  0.00    -0.276 N 
HETATM   32  N   UNL     1       7.608  28.901  57.990  1.00  0.00     0.005 NA
HETATM   33  N   UNL     1       8.533  29.456  58.759  1.00  0.00    -0.152 NA
HETATM   34  C   UNL     1       8.132  30.736  59.066  1.00  0.00     0.166 A 
HETATM   35  C   UNL     1       6.922  30.976  58.441  1.00  0.00     0.147 A 
BRANCH  34  36
HETATM   36  C   UNL     1       8.847  31.637  59.958  1.00  0.00     0.314 C 
HETATM   37  O   UNL     1       9.208  32.756  59.615  1.00  0.00    -0.257 OA
BRANCH  36  38
HETATM   38  O   UNL     1       9.009  31.116  61.208  1.00  0.00    -0.321 OA
HETATM   39  C   UNL     1       7.880  31.292  62.066  1.00  0.00     0.213 C 
ENDBRANCH  36  38
ENDBRANCH  34  36
ENDBRANCH   5  31
TORSDOF 9
ENDMDL
MODEL 4
REMARK VINA RESULT:      -9.0      8.568     14.827
REMARK  9 active torsions:
REMARK  status: ('A' for Active; 'I' for Inactive)
REMARK       I    between atoms: C_2  and  N_3 
REMARK    1  A    between atoms: N_3  and  C_4 
REMARK    2  A    between atoms: C_7  and  C_8 
REMARK    3  A    between atoms: C_8  and  N_9 
REMARK    4  A    between atoms: C_11  and  C_12 
REMARK       I    between atoms: C_12  and  N_13 
REMARK    5  A    between atoms: N_13  and  C_14 
REMARK    6  A    between atoms: C_16  and  S_17 
REMARK    7  A    between atoms: C_24  and  N_25 
REMARK    8  A    between atoms: C_28  and  C_29 
REMARK    9  A    between atoms: C_29  and  O_30 
ROOT
HETATM    1  N   UNL     1       5.092  27.660  55.301  1.00  0.00    -0.052 N 
HETATM    2  H   UNL     1       4.565  26.810  55.049  1.00  0.00     0.281 HD
HETATM    3  C   UNL     1       4.186  28.874  55.020  1.00  0.00     0.282 C 
HETATM    4  C   UNL     1       4.850  29.963  55.847  1.00  0.00     0.072 C 
HETATM    5  C   UNL     1       5.284  29.233  57.136  1.00  0.00     0.134 C 
HETATM    6  C   UNL     1       5.343  27.736  56.785  1.00  0.00     0.263 C 
ENDROOT
BRANCH   1   7
HETATM    7  C   UNL     1       6.353  27.628  54.447  1.00  0.00     0.274 C 
BRANCH   7   8
HETATM    8  C   UNL     1       6.860  26.249  54.136  1.00  0.00    -0.032 A 
HETATM    9  C   UNL     1       6.529  25.168  54.961  1.00  0.00     0.011 A 
HETATM   10  C   UNL     1       6.887  23.864  54.601  1.00  0.00     0.030 A 
HETATM   11  C   UNL     1       7.571  23.614  53.411  1.00  0.00     0.034 A 
HETATM   12  C   UNL     1       7.942  24.700  52.610  1.00  0.00     0.030 A 
HETATM   13  C   UNL     1       7.591  26.007  52.967  1.00  0.00     0.011 A 
BRANCH  11  14
HETATM   14  N   UNL     1       7.872  22.323  52.932  1.00  0.00    -0.328 N 
HETATM   15  C   UNL     1       8.678  21.374  53.537  1.00  0.00     0.218 C 
HETATM   16  C   UNL     1       8.643  20.045  52.824  1.00  0.00     0.117 C 
HETATM   17  O   UNL     1       9.337  21.521  54.560  1.00  0.00    -0.274 OA
HETATM   18  H   UNL     1       7.398  22.038  52.084  1.00  0.00     0.169 HD
ENDBRANCH  11  14
ENDBRANCH   7   8
ENDBRANCH   1   7
BRANCH   3  19
HETATM   19  C   UNL     1       3.935  29.032  53.512  1.00  0.00     0.253 C 
HETATM   20  N   UNL     1       4.919  29.633  52.764  1.00  0.00    -0.325 N 
HETATM   21  H   UNL     1       5.611  30.219  53.219  1.00  0.00     0.169 HD
HETATM   22  O   UNL     1       2.897  28.531  53.077  1.00  0.00    -0.271 OA
BRANCH  20  23
HETATM   23  C   UNL     1       5.016  29.602  51.348  1.00  0.00     0.036 A 
HETATM   24  C   UNL     1       4.860  28.435  50.586  1.00  0.00     0.048 A 
HETATM   25  C   UNL     1       4.998  28.452  49.191  1.00  0.00     0.002 A 
HETATM   26  C   UNL     1       5.315  29.659  48.563  1.00  0.00     0.018 A 
HETATM   27  C   UNL     1       5.481  30.826  49.309  1.00  0.00     0.004 A 
HETATM   28  C   UNL     1       5.336  30.797  50.697  1.00  0.00     0.029 A 
BRANCH  25  29
HETATM   29  S   UNL     1       4.856  27.001  48.154  1.00  0.00    -0.134 SA
HETATM   30  C   UNL     1       3.276  27.253  47.301  1.00  0.00     0.095 C 
ENDBRANCH  25  29
ENDBRANCH  20  23
ENDBRANCH   3  19
BRANCH   5  31
HETATM   31  N   UNL     1       6.552  29.664  57.681  1.00  0.00    -0.276 N 
HETATM   32  N   UNL     1       7.531  28.767  57.864  1.00  0.00     0.005 NA
HETATM   33  N   UNL     1       8.442  29.326  58.647  1.00  0.00    -0.152 NA
HETATM   34  C   UNL     1       8.034  30.605  58.945  1.00  0.00     0.166 A 
HETATM   35  C   UNL     1       6.833  30.841  58.300  1.00  0.00     0.147 A 
BRANCH  34  36
HETATM   36  C   UNL     1       8.732  31.510  59.846  1.00  0.00     0.314 C 
HETATM   37  O   UNL     1       8.990  32.670  59.549  1.00  0.00    -0.257 OA
BRANCH  36  38
HETATM   38  O   UNL     1       9.005  30.938  61.054  1.00  0.00    -0.321 OA
HETATM   39  C   UNL     1       8.071  31.267  62.082  1.00  0.00     0.213 C 
ENDBRANCH  36  38
ENDBRANCH  34  36
ENDBRANCH   5  31
TORSDOF 9
ENDMDL
MODEL 5
REMARK VINA RESULT:      -9.0     10.253     15.113
REMARK  9 active torsions:
REMARK  status: ('A' for Active; 'I' for Inactive)
REMARK       I    between atoms: C_2  and  N_3 
REMARK    1  A    between atoms: N_3  and  C_4 
REMARK    2  A    between atoms: C_7  and  C_8 
REMARK    3  A    between atoms: C_8  and  N_9 
REMARK    4  A    between atoms: C_11  and  C_12 
REMARK       I    between atoms: C_12  and  N_13 
REMARK    5  A    between atoms: N_13  and  C_14 
REMARK    6  A    between atoms: C_16  and  S_17 
REMARK    7  A    between atoms: C_24  and  N_25 
REMARK    8  A    between atoms: C_28  and  C_29 
REMARK    9  A    between atoms: C_29  and  O_30 
ROOT
HETATM    1  N   UNL     1       5.731  27.526  50.773  1.00  0.00    -0.052 N 
HETATM    2  H   UNL     1       6.750  27.436  50.908  1.00  0.00     0.281 HD
HETATM    3  C   UNL     1       5.244  28.697  51.647  1.00  0.00     0.282 C 
HETATM    4  C   UNL     1       3.898  29.023  51.019  1.00  0.00     0.072 C 
HETATM    5  C   UNL     1       4.150  28.857  49.505  1.00  0.00     0.134 C 
HETATM    6  C   UNL     1       5.394  27.961  49.370  1.00  0.00     0.263 C 
ENDROOT
BRANCH   1   7
HETATM    7  C   UNL     1       5.145  26.178  51.174  1.00  0.00     0.274 C 
BRANCH   7   8
HETATM    8  C   UNL     1       5.974  25.407  52.161  1.00  0.00    -0.032 A 
HETATM    9  C   UNL     1       5.404  24.929  53.347  1.00  0.00     0.011 A 
HETATM   10  C   UNL     1       6.136  24.099  54.202  1.00  0.00     0.030 A 
HETATM   11  C   UNL     1       7.442  23.722  53.887  1.00  0.00     0.034 A 
HETATM   12  C   UNL     1       8.027  24.238  52.725  1.00  0.00     0.030 A 
HETATM   13  C   UNL     1       7.302  25.073  51.868  1.00  0.00     0.011 A 
BRANCH  11  14
HETATM   14  N   UNL     1       8.203  22.808  54.644  1.00  0.00    -0.328 N 
HETATM   15  C   UNL     1       8.264  21.435  54.482  1.00  0.00     0.218 C 
HETATM   16  C   UNL     1       9.309  20.794  55.361  1.00  0.00     0.117 C 
HETATM   17  O   UNL     1       7.602  20.762  53.700  1.00  0.00    -0.274 OA
HETATM   18  H   UNL     1       8.818  23.208  55.342  1.00  0.00     0.169 HD
ENDBRANCH  11  14
ENDBRANCH   7   8
ENDBRANCH   1   7
BRANCH   3  19
HETATM   19  C   UNL     1       5.388  28.361  53.140  1.00  0.00     0.253 C 
HETATM   20  N   UNL     1       6.654  28.371  53.675  1.00  0.00    -0.325 N 
HETATM   21  H   UNL     1       7.459  28.285  53.064  1.00  0.00     0.169 HD
HETATM   22  O   UNL     1       4.338  28.187  53.763  1.00  0.00    -0.271 OA
BRANCH  20  23
HETATM   23  C   UNL     1       6.966  28.389  55.060  1.00  0.00     0.036 A 
HETATM   24  C   UNL     1       6.789  29.512  55.880  1.00  0.00     0.048 A 
HETATM   25  C   UNL     1       7.144  29.488  57.236  1.00  0.00     0.002 A 
HETATM   26  C   UNL     1       7.701  28.319  57.762  1.00  0.00     0.018 A 
HETATM   27  C   UNL     1       7.891  27.197  56.956  1.00  0.00     0.004 A 
HETATM   28  C   UNL     1       7.528  27.232  55.609  1.00  0.00     0.029 A 
BRANCH  25  29
HETATM   29  S   UNL     1       6.989  30.890  58.336  1.00  0.00    -0.134 SA
HETATM   30  C   UNL     1       8.277  30.588  59.577  1.00  0.00     0.095 C 
ENDBRANCH  25  29
ENDBRANCH  20  23
ENDBRANCH   3  19
BRANCH   5  31
HETATM   31  N   UNL     1       3.046  28.285  48.766  1.00  0.00    -0.276 N 
HETATM   32  N   UNL     1       3.090  26.993  48.409  1.00  0.00     0.005 NA
HETATM   33  N   UNL     1       2.149  26.800  47.496  1.00  0.00    -0.152 NA
HETATM   34  C   UNL     1       1.493  27.992  47.290  1.00  0.00     0.166 A 
HETATM   35  C   UNL     1       2.044  28.944  48.128  1.00  0.00     0.147 A 
BRANCH  34  36
HETATM   36  C   UNL     1       0.446  28.201  46.300  1.00  0.00     0.314 C 
HETATM   37  O   UNL     1      -0.231  27.284  45.851  1.00  0.00    -0.257 OA
BRANCH  36  38
HETATM   38  O   UNL     1       0.279  29.517  45.985  1.00  0.00    -0.321 OA
HETATM   39  C   UNL     1      -1.086  29.930  45.905  1.00  0.00     0.213 C 
ENDBRANCH  36  38
ENDBRANCH  34  36
ENDBRANCH   5  31
TORSDOF 9
ENDMDL
MODEL 6
REMARK VINA RESULT:      -8.7      8.134     13.904
REMARK  9 active torsions:
REMARK  status: ('A' for Active; 'I' for Inactive)
REMARK       I    between atoms: C_2  and  N_3 
REMARK    1  A    between atoms: N_3  and  C_4 
REMARK    2  A    between atoms: C_7  and  C_8 
REMARK    3  A    between atoms: C_8  and  N_9 
REMARK    4  A    between atoms: C_11  and  C_12 
REMARK       I    between atoms: C_12  and  N_13 
REMARK    5  A    between atoms: N_13  and  C_14 
REMARK    6  A    between atoms: C_16  and  S_17 
REMARK    7  A    between atoms: C_24  and  N_25 
REMARK    8  A    between atoms: C_28  and  C_29 
REMARK    9  A    between atoms: C_29  and  O_30 
ROOT
HETATM    1  N   UNL     1       5.301  28.056  54.038  1.00  0.00    -0.052 N 
HETATM    2  H   UNL     1       4.974  27.755  54.969  1.00  0.00     0.281 HD
HETATM    3  C   UNL     1       5.412  26.801  53.152  1.00  0.00     0.282 C 
HETATM    4  C   UNL     1       5.423  27.400  51.755  1.00  0.00     0.072 C 
HETATM    5  C   UNL     1       4.403  28.555  51.842  1.00  0.00     0.134 C 
HETATM    6  C   UNL     1       4.270  28.901  53.336  1.00  0.00     0.263 C 
ENDROOT
BRANCH   1   7
HETATM    7  C   UNL     1       6.633  28.754  54.279  1.00  0.00     0.274 C 
BRANCH   7   8
HETATM    8  C   UNL     1       6.947  29.017  55.723  1.00  0.00    -0.032 A 
HETATM    9  C   UNL     1       8.118  28.510  56.299  1.00  0.00     0.011 A 
HETATM   10  C   UNL     1       8.479  28.864  57.604  1.00  0.00     0.030 A 
HETATM   11  C   UNL     1       7.687  29.736  58.352  1.00  0.00     0.034 A 
HETATM   12  C   UNL     1       6.493  30.206  57.792  1.00  0.00     0.030 A 
HETATM   13  C   UNL     1       6.124  29.851  56.491  1.00  0.00     0.011 A 
BRANCH  11  14
HETATM   14  N   UNL     1       8.038  30.219  59.629  1.00  0.00    -0.328 N 
HETATM   15  C   UNL     1       8.654  31.422  59.929  1.00  0.00     0.218 C 
HETATM   16  C   UNL     1       8.726  31.683  61.412  1.00  0.00     0.117 C 
HETATM   17  O   UNL     1       9.077  32.245  59.124  1.00  0.00    -0.274 OA
HETATM   18  H   UNL     1       7.751  29.651  60.417  1.00  0.00     0.169 HD
ENDBRANCH  11  14
ENDBRANCH   7   8
ENDBRANCH   1   7
BRANCH   3  19
HETATM   19  C   UNL     1       6.532  25.875  53.652  1.00  0.00     0.253 C 
HETATM   20  N   UNL     1       6.404  25.347  54.914  1.00  0.00    -0.325 N 
HETATM   21  H   UNL     1       5.786  25.790  55.585  1.00  0.00     0.169 HD
HETATM   22  O   UNL     1       7.425  25.614  52.843  1.00  0.00    -0.271 OA
BRANCH  20  23
HETATM   23  C   UNL     1       7.153  24.260  55.434  1.00  0.00     0.036 A 
HETATM   24  C   UNL     1       7.273  23.021  54.787  1.00  0.00     0.048 A 
HETATM   25  C   UNL     1       7.998  21.967  55.360  1.00  0.00     0.002 A 
HETATM   26  C   UNL     1       8.593  22.163  56.609  1.00  0.00     0.018 A 
HETATM   27  C   UNL     1       8.476  23.387  57.268  1.00  0.00     0.004 A 
HETATM   28  C   UNL     1       7.755  24.430  56.685  1.00  0.00     0.029 A 
BRANCH  25  29
HETATM   29  S   UNL     1       8.162  20.346  54.619  1.00  0.00    -0.134 SA
HETATM   30  C   UNL     1       8.066  20.691  52.841  1.00  0.00     0.095 C 
ENDBRANCH  25  29
ENDBRANCH  20  23
ENDBRANCH   3  19
BRANCH   5  31
HETATM   31  N   UNL     1       4.760  29.738  51.090  1.00  0.00    -0.276 N 
HETATM   32  N   UNL     1       5.936  29.782  50.448  1.00  0.00     0.005 NA
HETATM   33  N   UNL     1       6.162  31.045  50.118  1.00  0.00    -0.152 NA
HETATM   34  C   UNL     1       5.098  31.804  50.547  1.00  0.00     0.166 A 
HETATM   35  C   UNL     1       4.176  30.964  51.146  1.00  0.00     0.147 A 
BRANCH  34  36
HETATM   36  C   UNL     1       5.016  33.253  50.438  1.00  0.00     0.314 C 
HETATM   37  O   UNL     1       5.053  33.838  49.362  1.00  0.00    -0.257 OA
BRANCH  36  38
HETATM   38  O   UNL     1       4.839  33.860  51.646  1.00  0.00    -0.321 OA
HETATM   39  C   UNL     1       6.041  34.373  52.224  1.00  0.00     0.213 C 
ENDBRANCH  36  38
ENDBRANCH  34  36
ENDBRANCH   5  31
TORSDOF 9
ENDMDL
MODEL 7
REMARK VINA RESULT:      -8.7      8.480     14.143
REMARK  9 active torsions:
REMARK  status: ('A' for Active; 'I' for Inactive)
REMARK       I    between atoms: C_2  and  N_3 
REMARK    1  A    between atoms: N_3  and  C_4 
REMARK    2  A    between atoms: C_7  and  C_8 
REMARK    3  A    between atoms: C_8  and  N_9 
REMARK    4  A    between atoms: C_11  and  C_12 
REMARK       I    between atoms: C_12  and  N_13 
REMARK    5  A    between atoms: N_13  and  C_14 
REMARK    6  A    between atoms: C_16  and  S_17 
REMARK    7  A    between atoms: C_24  and  N_25 
REMARK    8  A    between atoms: C_28  and  C_29 
REMARK    9  A    between atoms: C_29  and  O_30 
ROOT
HETATM    1  N   UNL     1       5.070  28.425  54.488  1.00  0.00    -0.052 N 
HETATM    2  H   UNL     1       4.789  28.603  55.464  1.00  0.00     0.281 HD
HETATM    3  C   UNL     1       4.581  27.014  54.109  1.00  0.00     0.282 C 
HETATM    4  C   UNL     1       4.618  27.063  52.590  1.00  0.00     0.072 C 
HETATM    5  C   UNL     1       4.123  28.487  52.257  1.00  0.00     0.134 C 
HETATM    6  C   UNL     1       4.340  29.327  53.528  1.00  0.00     0.263 C 
ENDROOT
BRANCH   1   7
HETATM    7  C   UNL     1       6.586  28.573  54.465  1.00  0.00     0.274 C 
BRANCH   7   8
HETATM    8  C   UNL     1       7.175  29.147  55.722  1.00  0.00    -0.032 A 
HETATM    9  C   UNL     1       6.397  29.944  56.571  1.00  0.00     0.011 A 
HETATM   10  C   UNL     1       6.901  30.367  57.805  1.00  0.00     0.030 A 
HETATM   11  C   UNL     1       8.181  29.997  58.220  1.00  0.00     0.034 A 
HETATM   12  C   UNL     1       8.975  29.239  57.350  1.00  0.00     0.030 A 
HETATM   13  C   UNL     1       8.479  28.817  56.112  1.00  0.00     0.011 A 
BRANCH  11  14
HETATM   14  N   UNL     1       8.716  30.297  59.489  1.00  0.00    -0.328 N 
HETATM   15  C   UNL     1       9.231  31.509  59.914  1.00  0.00     0.218 C 
HETATM   16  C   UNL     1       9.562  31.514  61.386  1.00  0.00     0.117 C 
HETATM   17  O   UNL     1       9.386  32.516  59.232  1.00  0.00    -0.274 OA
HETATM   18  H   UNL     1       8.660  29.562  60.183  1.00  0.00     0.169 HD
ENDBRANCH  11  14
ENDBRANCH   7   8
ENDBRANCH   1   7
BRANCH   3  19
HETATM   19  C   UNL     1       5.336  25.940  54.909  1.00  0.00     0.253 C 
HETATM   20  N   UNL     1       6.140  25.073  54.209  1.00  0.00    -0.325 N 
HETATM   21  H   UNL     1       5.992  24.942  53.214  1.00  0.00     0.169 HD
HETATM   22  O   UNL     1       5.222  25.995  56.136  1.00  0.00    -0.271 OA
BRANCH  20  23
HETATM   23  C   UNL     1       7.131  24.228  54.772  1.00  0.00     0.036 A 
HETATM   24  C   UNL     1       7.305  22.886  54.405  1.00  0.00     0.048 A 
HETATM   25  C   UNL     1       8.279  22.084  55.016  1.00  0.00     0.002 A 
HETATM   26  C   UNL     1       9.073  22.642  56.022  1.00  0.00     0.018 A 
HETATM   27  C   UNL     1       8.906  23.973  56.403  1.00  0.00     0.004 A 
HETATM   28  C   UNL     1       7.936  24.763  55.783  1.00  0.00     0.029 A 
BRANCH  25  29
HETATM   29  S   UNL     1       8.535  20.355  54.635  1.00  0.00    -0.134 SA
HETATM   30  C   UNL     1       8.435  20.309  52.825  1.00  0.00     0.095 C 
ENDBRANCH  25  29
ENDBRANCH  20  23
ENDBRANCH   3  19
BRANCH   5  31
HETATM   31  N   UNL     1       4.785  29.112  51.132  1.00  0.00    -0.276 N 
HETATM   32  N   UNL     1       5.933  29.775  51.328  1.00  0.00     0.005 NA
HETATM   33  N   UNL     1       6.162  30.504  50.245  1.00  0.00    -0.152 NA
HETATM   34  C   UNL     1       5.144  30.279  49.347  1.00  0.00     0.166 A 
HETATM   35  C   UNL     1       4.271  29.359  49.899  1.00  0.00     0.147 A 
BRANCH  34  36
HETATM   36  C   UNL     1       5.000  30.961  48.070  1.00  0.00     0.314 C 
HETATM   37  O   UNL     1       4.490  30.429  47.091  1.00  0.00    -0.257 OA
BRANCH  36  38
HETATM   38  O   UNL     1       5.438  32.251  48.113  1.00  0.00    -0.321 OA
HETATM   39  C   UNL     1       4.415  33.208  48.393  1.00  0.00     0.213 C 
ENDBRANCH  36  38
ENDBRANCH  34  36
ENDBRANCH   5  31
TORSDOF 9
ENDMDL
MODEL 8
REMARK VINA RESULT:      -8.6      8.587     14.604
REMARK  9 active torsions:
REMARK  status: ('A' for Active; 'I' for Inactive)
REMARK       I    between atoms: C_2  and  N_3 
REMARK    1  A    between atoms: N_3  and  C_4 
REMARK    2  A    between atoms: C_7  and  C_8 
REMARK    3  A    between atoms: C_8  and  N_9 
REMARK    4  A    between atoms: C_11  and  C_12 
REMARK       I    between atoms: C_12  and  N_13 
REMARK    5  A    between atoms: N_13  and  C_14 
REMARK    6  A    between atoms: C_16  and  S_17 
REMARK    7  A    between atoms: C_24  and  N_25 
REMARK    8  A    between atoms: C_28  and  C_29 
REMARK    9  A    between atoms: C_29  and  O_30 
ROOT
HETATM    1  N   UNL     1       6.708  27.615  53.859  1.00  0.00    -0.052 N 
HETATM    2  H   UNL     1       7.120  28.560  53.834  1.00  0.00     0.281 HD
HETATM    3  C   UNL     1       5.571  27.571  52.820  1.00  0.00     0.282 C 
HETATM    4  C   UNL     1       5.385  26.076  52.617  1.00  0.00     0.072 C 
HETATM    5  C   UNL     1       6.824  25.519  52.645  1.00  0.00     0.134 C 
HETATM    6  C   UNL     1       7.680  26.572  53.371  1.00  0.00     0.263 C 
ENDROOT
BRANCH   1   7
HETATM    7  C   UNL     1       6.234  27.414  55.293  1.00  0.00     0.274 C 
BRANCH   7   8
HETATM    8  C   UNL     1       6.884  28.322  56.297  1.00  0.00    -0.032 A 
HETATM    9  C   UNL     1       6.152  29.350  56.904  1.00  0.00     0.011 A 
HETATM   10  C   UNL     1       6.716  30.109  57.935  1.00  0.00     0.030 A 
HETATM   11  C   UNL     1       8.011  29.852  58.386  1.00  0.00     0.034 A 
HETATM   12  C   UNL     1       8.758  28.855  57.747  1.00  0.00     0.030 A 
HETATM   13  C   UNL     1       8.202  28.096  56.712  1.00  0.00     0.011 A 
BRANCH  11  14
HETATM   14  N   UNL     1       8.606  30.502  59.485  1.00  0.00    -0.328 N 
HETATM   15  C   UNL     1       9.479  31.576  59.450  1.00  0.00     0.218 C 
HETATM   16  C   UNL     1       9.785  32.120  60.824  1.00  0.00     0.117 C 
HETATM   17  O   UNL     1       9.951  32.100  58.447  1.00  0.00    -0.274 OA
HETATM   18  H   UNL     1       8.314  30.189  60.403  1.00  0.00     0.169 HD
ENDBRANCH  11  14
ENDBRANCH   7   8
ENDBRANCH   1   7
BRANCH   3  19
HETATM   19  C   UNL     1       4.412  28.489  53.239  1.00  0.00     0.253 C 
HETATM   20  N   UNL     1       4.713  29.793  53.548  1.00  0.00    -0.325 N 
HETATM   21  H   UNL     1       5.664  30.045  53.798  1.00  0.00     0.169 HD
HETATM   22  O   UNL     1       3.282  27.998  53.186  1.00  0.00    -0.271 OA
BRANCH  20  23
HETATM   23  C   UNL     1       3.776  30.854  53.660  1.00  0.00     0.036 A 
HETATM   24  C   UNL     1       3.378  31.653  52.578  1.00  0.00     0.048 A 
HETATM   25  C   UNL     1       2.473  32.710  52.748  1.00  0.00     0.002 A 
HETATM   26  C   UNL     1       1.981  32.973  54.030  1.00  0.00     0.018 A 
HETATM   27  C   UNL     1       2.376  32.192  55.116  1.00  0.00     0.004 A 
HETATM   28  C   UNL     1       3.273  31.139  54.933  1.00  0.00     0.029 A 
BRANCH  25  29
HETATM   29  S   UNL     1       1.948  33.799  51.429  1.00  0.00    -0.134 SA
HETATM   30  C   UNL     1       2.257  35.452  52.108  1.00  0.00     0.095 C 
ENDBRANCH  25  29
ENDBRANCH  20  23
ENDBRANCH   3  19
BRANCH   5  31
HETATM   31  N   UNL     1       6.966  24.235  53.294  1.00  0.00    -0.276 N 
HETATM   32  N   UNL     1       6.691  24.122  54.602  1.00  0.00     0.005 NA
HETATM   33  N   UNL     1       7.190  22.967  55.016  1.00  0.00    -0.152 NA
HETATM   34  C   UNL     1       7.775  22.336  53.942  1.00  0.00     0.166 A 
HETATM   35  C   UNL     1       7.606  23.132  52.823  1.00  0.00     0.147 A 
BRANCH  34  36
HETATM   36  C   UNL     1       8.503  21.078  54.015  1.00  0.00     0.314 C 
HETATM   37  O   UNL     1       8.308  20.156  53.232  1.00  0.00    -0.257 OA
BRANCH  36  38
HETATM   38  O   UNL     1       9.445  21.075  55.001  1.00  0.00    -0.321 OA
HETATM   39  C   UNL     1       9.086  20.306  56.150  1.00  0.00     0.213 C 
ENDBRANCH  36  38
ENDBRANCH  34  36
ENDBRANCH   5  31
TORSDOF 9
ENDMDL
MODEL 9
REMARK VINA RESULT:      -8.6      6.783     11.283
REMARK  9 active torsions:
REMARK  status: ('A' for Active; 'I' for Inactive)
REMARK       I    between atoms: C_2  and  N_3 
REMARK    1  A    between atoms: N_3  and  C_4 
REMARK    2  A    between atoms: C_7  and  C_8 
REMARK    3  A    between atoms: C_8  and  N_9 
REMARK    4  A    between atoms: C_11  and  C_12 
REMARK       I    between atoms: C_12  and  N_13 
REMARK    5  A    between atoms: N_13  and  C_14 
REMARK    6  A    between atoms: C_16  and  S_17 
REMARK    7  A    between atoms: C_24  and  N_25 
REMARK    8  A    between atoms: C_28  and  C_29 
REMARK    9  A    between atoms: C_29  and  O_30 
ROOT
HETATM    1  N   UNL     1       8.448  28.239  57.181  1.00  0.00    -0.052 N 
HETATM    2  H   UNL     1       9.240  28.250  57.841  1.00  0.00     0.281 HD
HETATM    3  C   UNL     1       7.945  29.687  57.026  1.00  0.00     0.282 C 
HETATM    4  C   UNL     1       7.150  29.610  55.733  1.00  0.00     0.072 C 
HETATM    5  C   UNL     1       7.991  28.674  54.840  1.00  0.00     0.134 C 
HETATM    6  C   UNL     1       8.889  27.863  55.790  1.00  0.00     0.263 C 
ENDROOT
BRANCH   1   7
HETATM    7  C   UNL     1       7.419  27.297  57.794  1.00  0.00     0.274 C 
BRANCH   7   8
HETATM    8  C   UNL     1       7.395  25.922  57.191  1.00  0.00    -0.032 A 
HETATM    9  C   UNL     1       6.263  25.467  56.504  1.00  0.00     0.011 A 
HETATM   10  C   UNL     1       6.287  24.243  55.828  1.00  0.00     0.030 A 
HETATM   11  C   UNL     1       7.440  23.456  55.815  1.00  0.00     0.034 A 
HETATM   12  C   UNL     1       8.556  23.890  56.540  1.00  0.00     0.030 A 
HETATM   13  C   UNL     1       8.536  25.111  57.222  1.00  0.00     0.011 A 
BRANCH  11  14
HETATM   14  N   UNL     1       7.573  22.266  55.073  1.00  0.00    -0.328 N 
HETATM   15  C   UNL     1       8.003  22.140  53.763  1.00  0.00     0.218 C 
HETATM   16  C   UNL     1       8.180  20.701  53.347  1.00  0.00     0.117 C 
HETATM   17  O   UNL     1       8.268  23.055  52.991  1.00  0.00    -0.274 OA
HETATM   18  H   UNL     1       7.393  21.404  55.573  1.00  0.00     0.169 HD
ENDBRANCH  11  14
ENDBRANCH   7   8
ENDBRANCH   1   7
BRANCH   3  19
HETATM   19  C   UNL     1       7.323  30.193  58.338  1.00  0.00     0.253 C 
HETATM   20  N   UNL     1       8.174  30.460  59.383  1.00  0.00    -0.325 N 
HETATM   21  H   UNL     1       9.100  30.047  59.397  1.00  0.00     0.169 HD
HETATM   22  O   UNL     1       6.107  30.397  58.321  1.00  0.00    -0.271 OA
BRANCH  20  23
HETATM   23  C   UNL     1       7.845  31.204  60.546  1.00  0.00     0.036 A 
HETATM   24  C   UNL     1       6.864  32.206  60.574  1.00  0.00     0.048 A 
HETATM   25  C   UNL     1       6.600  32.935  61.742  1.00  0.00     0.002 A 
HETATM   26  C   UNL     1       7.350  32.660  62.889  1.00  0.00     0.018 A 
HETATM   27  C   UNL     1       8.335  31.673  62.873  1.00  0.00     0.004 A 
HETATM   28  C   UNL     1       8.585  30.950  61.706  1.00  0.00     0.029 A 
BRANCH  25  29
HETATM   29  S   UNL     1       5.396  34.254  61.847  1.00  0.00    -0.134 SA
HETATM   30  C   UNL     1       4.451  33.836  63.338  1.00  0.00     0.095 C 
ENDBRANCH  25  29
ENDBRANCH  20  23
ENDBRANCH   3  19
BRANCH   5  31
HETATM   31  N   UNL     1       7.222  27.780  54.003  1.00  0.00    -0.276 N 
HETATM   32  N   UNL     1       7.749  26.604  53.634  1.00  0.00     0.005 NA
HETATM   33  N   UNL     1       7.009  26.129  52.643  1.00  0.00    -0.152 NA
HETATM   34  C   UNL     1       5.988  27.018  52.398  1.00  0.00     0.166 A 
HETATM   35  C   UNL     1       6.100  28.068  53.292  1.00  0.00     0.147 A 
BRANCH  34  36
HETATM   36  C   UNL     1       5.012  26.884  51.327  1.00  0.00     0.314 C 
HETATM   37  O   UNL     1       4.951  25.894  50.608  1.00  0.00    -0.257 OA
BRANCH  36  38
HETATM   38  O   UNL     1       4.157  27.945  51.263  1.00  0.00    -0.321 OA
HETATM   39  C   UNL     1       4.089  28.564  49.977  1.00  0.00     0.213 C 
ENDBRANCH  36  38
ENDBRANCH  34  36
ENDBRANCH   5  31
TORSDOF 9
ENDMDL
MODEL 10
REMARK VINA RESULT:      -8.6      9.572     14.836
REMARK  9 active torsions:
REMARK  status: ('A' for Active; 'I' for Inactive)
REMARK       I    between atoms: C_2  and  N_3 
REMARK    1  A    between atoms: N_3  and  C_4 
REMARK    2  A    between atoms: C_7  and  C_8 
REMARK    3  A    between atoms: C_8  and  N_9 
REMARK    4  A    between atoms: C_11  and  C_12 
REMARK       I    between atoms: C_12  and  N_13 
REMARK    5  A    between atoms: N_13  and  C_14 
REMARK    6  A    between atoms: C_16  and  S_17 
REMARK    7  A    between atoms: C_24  and  N_25 
REMARK    8  A    between atoms: C_28  and  C_29 
REMARK    9  A    between atoms: C_29  and  O_30 
ROOT
HETATM    1  N   UNL     1       4.611  27.634  54.812  1.00  0.00    -0.052 N 
HETATM    2  H   UNL     1       3.964  26.892  54.506  1.00  0.00     0.281 HD
HETATM    3  C   UNL     1       3.908  28.988  54.595  1.00  0.00     0.282 C 
HETATM    4  C   UNL     1       4.718  29.912  55.489  1.00  0.00     0.072 C 
HETATM    5  C   UNL     1       5.010  29.052  56.738  1.00  0.00     0.134 C 
HETATM    6  C   UNL     1       4.844  27.586  56.300  1.00  0.00     0.263 C 
ENDROOT
BRANCH   1   7
HETATM    7  C   UNL     1       5.867  27.455  53.969  1.00  0.00     0.274 C 
BRANCH   7   8
HETATM    8  C   UNL     1       6.506  26.101  54.083  1.00  0.00    -0.032 A 
HETATM    9  C   UNL     1       7.524  25.872  55.017  1.00  0.00     0.011 A 
HETATM   10  C   UNL     1       8.026  24.582  55.218  1.00  0.00     0.030 A 
HETATM   11  C   UNL     1       7.518  23.498  54.501  1.00  0.00     0.034 A 
HETATM   12  C   UNL     1       6.533  23.735  53.535  1.00  0.00     0.030 A 
HETATM   13  C   UNL     1       6.030  25.023  53.326  1.00  0.00     0.011 A 
BRANCH  11  14
HETATM   14  N   UNL     1       7.900  22.160  54.722  1.00  0.00    -0.328 N 
HETATM   15  C   UNL     1       8.227  21.571  55.932  1.00  0.00     0.218 C 
HETATM   16  C   UNL     1       8.424  20.080  55.817  1.00  0.00     0.117 C 
HETATM   17  O   UNL     1       8.320  22.136  57.016  1.00  0.00    -0.274 OA
HETATM   18  H   UNL     1       7.872  21.547  53.916  1.00  0.00     0.169 HD
ENDBRANCH  11  14
ENDBRANCH   7   8
ENDBRANCH   1   7
BRANCH   3  19
HETATM   19  C   UNL     1       3.712  29.268  53.096  1.00  0.00     0.253 C 
HETATM   20  N   UNL     1       4.607  30.114  52.485  1.00  0.00    -0.325 N 
HETATM   21  H   UNL     1       5.155  30.758  53.046  1.00  0.00     0.169 HD
HETATM   22  O   UNL     1       2.808  28.643  52.539  1.00  0.00    -0.271 OA
BRANCH  20  23
HETATM   23  C   UNL     1       4.781  30.260  51.084  1.00  0.00     0.036 A 
HETATM   24  C   UNL     1       4.901  29.176  50.201  1.00  0.00     0.048 A 
HETATM   25  C   UNL     1       5.105  29.374  48.829  1.00  0.00     0.002 A 
HETATM   26  C   UNL     1       5.208  30.683  48.348  1.00  0.00     0.018 A 
HETATM   27  C   UNL     1       5.100  31.769  49.215  1.00  0.00     0.004 A 
HETATM   28  C   UNL     1       4.891  31.559  50.579  1.00  0.00     0.029 A 
BRANCH  25  29
HETATM   29  S   UNL     1       5.309  28.048  47.646  1.00  0.00    -0.134 SA
HETATM   30  C   UNL     1       4.165  26.775  48.247  1.00  0.00     0.095 C 
ENDBRANCH  25  29
ENDBRANCH  20  23
ENDBRANCH   3  19
BRANCH   5  31
HETATM   31  N   UNL     1       6.320  29.250  57.318  1.00  0.00    -0.276 N 
HETATM   32  N   UNL     1       7.079  28.185  57.611  1.00  0.00     0.005 NA
HETATM   33  N   UNL     1       8.059  28.599  58.402  1.00  0.00    -0.152 NA
HETATM   34  C   UNL     1       7.919  29.955  58.593  1.00  0.00     0.166 A 
HETATM   35  C   UNL     1       6.820  30.386  57.871  1.00  0.00     0.147 A 
BRANCH  34  36
HETATM   36  C   UNL     1       8.759  30.759  59.467  1.00  0.00     0.314 C 
HETATM   37  O   UNL     1       8.905  30.508  60.657  1.00  0.00    -0.257 OA
BRANCH  36  38
HETATM   38  O   UNL     1       9.393  31.767  58.802  1.00  0.00    -0.321 OA
HETATM   39  C   UNL     1      10.442  31.329  57.938  1.00  0.00     0.213 C 
ENDBRANCH  36  38
ENDBRANCH  34  36
ENDBRANCH   5  31
TORSDOF 9
ENDMDL
