MODEL 1
REMARK VINA RESULT:     -10.2      0.000      0.000
REMARK  8 active torsions:
REMARK  status: ('A' for Active; 'I' for Inactive)
REMARK       I    between atoms: N_2  and  C_3 
REMARK    1  A    between atoms: N_2  and  C_29 
REMARK    2  A    between atoms: C_3  and  C_4 
REMARK    3  A    between atoms: C_7  and  C_8 
REMARK       I    between atoms: C_8  and  N_9 
REMARK    4  A    between atoms: N_9  and  C_10 
REMARK    5  A    between atoms: N_20  and  C_21 
REMARK    6  A    between atoms: C_21  and  C_22 
REMARK    7  A    between atoms: C_29  and  C_30 
REMARK    8  A    between atoms: C_30  and  C_31 
ROOT
HETATM    1  C   UNL     1       7.490  30.509  58.359  1.00  0.00     0.098 C 
HETATM    2  C   UNL     1       7.309  29.068  58.067  1.00  0.00     0.206 C 
HETATM    3  O   UNL     1       8.149  28.232  58.397  1.00  0.00    -0.286 OA
HETATM    4  C   UNL     1       6.063  28.659  57.352  1.00  0.00     0.098 C 
HETATM    5  C   UNL     1       5.071  29.567  57.307  1.00  0.00     0.111 C 
HETATM    6  N   UNL     1       5.153  30.853  57.832  1.00  0.00    -0.362 N 
HETATM    7  C   UNL     1       6.394  31.283  58.287  1.00  0.00     0.111 C 
ENDROOT
BRANCH   1   8
HETATM    8  C   UNL     1       8.744  31.164  58.800  1.00  0.00     0.258 C 
HETATM    9  N   UNL     1       8.907  31.490  60.142  1.00  0.00    -0.352 N 
HETATM   10  C   UNL     1      10.212  31.972  60.574  1.00  0.00     0.152 C 
HETATM   11  O   UNL     1       9.657  31.281  57.977  1.00  0.00    -0.267 OA
BRANCH   9  12
HETATM   12  C   UNL     1       7.878  31.445  61.194  1.00  0.00     0.131 C 
BRANCH  12  13
HETATM   13  C   UNL     1       8.385  31.846  62.580  1.00  0.00     0.079 C 
BRANCH  13  14
HETATM   14  C   UNL     1       7.283  32.489  63.385  1.00  0.00     0.035 A 
HETATM   15  N   UNL     1       6.013  32.289  62.956  1.00  0.00    -0.266 NA
HETATM   16  C   UNL     1       5.013  32.849  63.674  1.00  0.00     0.117 A 
HETATM   17  C   UNL     1       5.216  33.619  64.804  1.00  0.00     0.019 A 
HETATM   18  C   UNL     1       6.524  33.831  65.224  1.00  0.00     0.003 A 
HETATM   19  C   UNL     1       7.575  33.261  64.508  1.00  0.00     0.027 A 
ENDBRANCH  13  14
ENDBRANCH  12  13
ENDBRANCH   9  12
ENDBRANCH   1   8
BRANCH   4  20
HETATM   20  C   UNL     1       5.875  27.334  56.692  1.00  0.00     0.257 C 
HETATM   21  N   UNL     1       6.964  26.889  55.984  1.00  0.00    -0.352 N 
HETATM   22  H   UNL     1       7.824  27.436  56.046  1.00  0.00     0.163 HD
HETATM   23  O   UNL     1       4.810  26.731  56.753  1.00  0.00    -0.267 OA
BRANCH  21  24
HETATM   24  C   UNL     1       7.013  25.684  55.153  1.00  0.00     0.084 C 
HETATM   25  C   UNL     1       6.950  24.421  56.019  1.00  0.00     0.025 C 
HETATM   26  C   UNL     1       7.257  23.087  55.333  1.00  0.00     0.002 C 
HETATM   27  C   UNL     1       8.461  23.096  54.388  1.00  0.00     0.000 C 
HETATM   28  C   UNL     1       8.107  23.155  52.900  1.00  0.00     0.000 C 
HETATM   29  C   UNL     1       7.481  24.452  52.381  1.00  0.00     0.000 C 
HETATM   30  C   UNL     1       6.071  24.732  52.900  1.00  0.00     0.002 C 
HETATM   31  C   UNL     1       5.981  25.768  54.022  1.00  0.00     0.025 C 
ENDBRANCH  21  24
ENDBRANCH   4  20
BRANCH   6  32
HETATM   32  C   UNL     1       3.957  31.724  57.923  1.00  0.00     0.159 C 
BRANCH  32  33
HETATM   33  C   UNL     1       3.961  32.684  59.119  1.00  0.00     0.139 C 
HETATM   34  O   UNL     1       2.769  32.568  59.921  1.00  0.00    -0.384 OA
HETATM   35  C   UNL     1       2.478  33.862  60.473  1.00  0.00     0.168 C 
HETATM   36  C   UNL     1       3.625  34.779  60.098  1.00  0.00     0.029 C 
HETATM   37  C   UNL     1       4.111  34.163  58.809  1.00  0.00     0.035 C 
ENDBRANCH  32  33
ENDBRANCH   6  32
TORSDOF 8
ENDMDL
MODEL 2
REMARK VINA RESULT:     -10.1      1.335      3.543
REMARK  8 active torsions:
REMARK  status: ('A' for Active; 'I' for Inactive)
REMARK       I    between atoms: N_2  and  C_3 
REMARK    1  A    between atoms: N_2  and  C_29 
REMARK    2  A    between atoms: C_3  and  C_4 
REMARK    3  A    between atoms: C_7  and  C_8 
REMARK       I    between atoms: C_8  and  N_9 
REMARK    4  A    between atoms: N_9  and  C_10 
REMARK    5  A    between atoms: N_20  and  C_21 
REMARK    6  A    between atoms: C_21  and  C_22 
REMARK    7  A    between atoms: C_29  and  C_30 
REMARK    8  A    between atoms: C_30  and  C_31 
ROOT
HETATM    1  C   UNL     1       5.233  31.121  58.352  1.00  0.00     0.098 C 
HETATM    2  C   UNL     1       4.937  29.936  57.512  1.00  0.00     0.206 C 
HETATM    3  O   UNL     1       3.822  29.750  57.029  1.00  0.00    -0.286 OA
HETATM    4  C   UNL     1       6.049  28.968  57.270  1.00  0.00     0.098 C 
HETATM    5  C   UNL     1       7.291  29.393  57.562  1.00  0.00     0.111 C 
HETATM    6  N   UNL     1       7.592  30.637  58.110  1.00  0.00    -0.362 N 
HETATM    7  C   UNL     1       6.529  31.425  58.535  1.00  0.00     0.111 C 
ENDROOT
BRANCH   1   8
HETATM    8  C   UNL     1       4.238  32.048  58.941  1.00  0.00     0.258 C 
HETATM    9  N   UNL     1       4.515  32.659  60.160  1.00  0.00    -0.352 N 
HETATM   10  C   UNL     1       3.601  33.692  60.629  1.00  0.00     0.152 C 
HETATM   11  O   UNL     1       3.249  32.344  58.264  1.00  0.00    -0.267 OA
BRANCH   9  12
HETATM   12  C   UNL     1       5.627  32.346  61.073  1.00  0.00     0.131 C 
BRANCH  12  13
HETATM   13  C   UNL     1       5.191  31.687  62.383  1.00  0.00     0.079 C 
BRANCH  13  14
HETATM   14  C   UNL     1       5.625  32.517  63.566  1.00  0.00     0.035 A 
HETATM   15  N   UNL     1       4.659  32.889  64.441  1.00  0.00    -0.266 NA
HETATM   16  C   UNL     1       5.034  33.623  65.514  1.00  0.00     0.117 A 
HETATM   17  C   UNL     1       6.336  34.021  65.755  1.00  0.00     0.019 A 
HETATM   18  C   UNL     1       7.314  33.647  64.841  1.00  0.00     0.003 A 
HETATM   19  C   UNL     1       6.958  32.885  63.730  1.00  0.00     0.027 A 
ENDBRANCH  13  14
ENDBRANCH  12  13
ENDBRANCH   9  12
ENDBRANCH   1   8
BRANCH   4  20
HETATM   20  C   UNL     1       5.851  27.585  56.747  1.00  0.00     0.257 C 
HETATM   21  N   UNL     1       6.845  27.143  55.909  1.00  0.00    -0.352 N 
HETATM   22  H   UNL     1       7.665  27.740  55.793  1.00  0.00     0.163 HD
HETATM   23  O   UNL     1       4.851  26.930  57.020  1.00  0.00    -0.267 OA
BRANCH  21  24
HETATM   24  C   UNL     1       6.846  25.878  55.170  1.00  0.00     0.084 C 
HETATM   25  C   UNL     1       6.934  24.686  56.129  1.00  0.00     0.025 C 
HETATM   26  C   UNL     1       7.212  23.312  55.514  1.00  0.00     0.002 C 
HETATM   27  C   UNL     1       8.298  23.284  54.435  1.00  0.00     0.000 C 
HETATM   28  C   UNL     1       7.773  23.215  52.999  1.00  0.00     0.000 C 
HETATM   29  C   UNL     1       7.041  24.447  52.462  1.00  0.00     0.000 C 
HETATM   30  C   UNL     1       5.690  24.723  53.121  1.00  0.00     0.002 C 
HETATM   31  C   UNL     1       5.688  25.841  54.165  1.00  0.00     0.025 C 
ENDBRANCH  21  24
ENDBRANCH   4  20
BRANCH   6  32
HETATM   32  C   UNL     1       8.991  31.111  58.218  1.00  0.00     0.159 C 
BRANCH  32  33
HETATM   33  C   UNL     1       9.556  31.103  59.644  1.00  0.00     0.139 C 
HETATM   34  O   UNL     1       9.035  30.017  60.436  1.00  0.00    -0.384 OA
HETATM   35  C   UNL     1       8.961  30.457  61.801  1.00  0.00     0.168 C 
HETATM   36  C   UNL     1       9.595  31.833  61.863  1.00  0.00     0.029 C 
HETATM   37  C   UNL     1       9.343  32.359  60.472  1.00  0.00     0.035 C 
ENDBRANCH  32  33
ENDBRANCH   6  32
TORSDOF 8
ENDMDL
MODEL 3
REMARK VINA RESULT:     -10.1      1.447      1.839
REMARK  8 active torsions:
REMARK  status: ('A' for Active; 'I' for Inactive)
REMARK       I    between atoms: N_2  and  C_3 
REMARK    1  A    between atoms: N_2  and  C_29 
REMARK    2  A    between atoms: C_3  and  C_4 
REMARK    3  A    between atoms: C_7  and  C_8 
REMARK       I    between atoms: C_8  and  N_9 
REMARK    4  A    between atoms: N_9  and  C_10 
REMARK    5  A    between atoms: N_20  and  C_21 
REMARK    6  A    between atoms: C_21  and  C_22 
REMARK    7  A    between atoms: C_29  and  C_30 
REMARK    8  A    between atoms: C_30  and  C_31 
ROOT
HETATM    1  C   UNL     1       7.328  30.127  58.145  1.00  0.00     0.098 C 
HETATM    2  C   UNL     1       7.248  28.661  57.942  1.00  0.00     0.206 C 
HETATM    3  O   UNL     1       8.137  27.906  58.331  1.00  0.00    -0.286 OA
HETATM    4  C   UNL     1       6.041  28.126  57.243  1.00  0.00     0.098 C 
HETATM    5  C   UNL     1       4.991  28.961  57.133  1.00  0.00     0.111 C 
HETATM    6  N   UNL     1       4.980  30.279  57.578  1.00  0.00    -0.362 N 
HETATM    7  C   UNL     1       6.184  30.819  58.016  1.00  0.00     0.111 C 
ENDROOT
BRANCH   1   8
HETATM    8  C   UNL     1       8.530  30.890  58.555  1.00  0.00     0.258 C 
HETATM    9  N   UNL     1       8.650  31.315  59.874  1.00  0.00    -0.352 N 
HETATM   10  C   UNL     1       9.914  31.910  60.287  1.00  0.00     0.152 C 
HETATM   11  O   UNL     1       9.446  31.012  57.737  1.00  0.00    -0.267 OA
BRANCH   9  12
HETATM   12  C   UNL     1       7.609  31.273  60.915  1.00  0.00     0.131 C 
BRANCH  12  13
HETATM   13  C   UNL     1       8.155  31.291  62.344  1.00  0.00     0.079 C 
BRANCH  13  14
HETATM   14  C   UNL     1       7.300  32.164  63.229  1.00  0.00     0.035 A 
HETATM   15  N   UNL     1       5.957  32.044  63.095  1.00  0.00    -0.266 NA
HETATM   16  C   UNL     1       5.178  32.812  63.890  1.00  0.00     0.117 A 
HETATM   17  C   UNL     1       5.673  33.712  64.815  1.00  0.00     0.019 A 
HETATM   18  C   UNL     1       7.053  33.838  64.930  1.00  0.00     0.003 A 
HETATM   19  C   UNL     1       7.881  33.055  64.128  1.00  0.00     0.027 A 
ENDBRANCH  13  14
ENDBRANCH  12  13
ENDBRANCH   9  12
ENDBRANCH   1   8
BRANCH   4  20
HETATM   20  C   UNL     1       5.950  26.754  56.665  1.00  0.00     0.257 C 
HETATM   21  N   UNL     1       7.074  26.341  55.993  1.00  0.00    -0.352 N 
HETATM   22  H   UNL     1       7.894  26.948  56.026  1.00  0.00     0.163 HD
HETATM   23  O   UNL     1       4.928  26.083  56.757  1.00  0.00    -0.267 OA
BRANCH  21  24
HETATM   24  C   UNL     1       7.214  25.094  55.239  1.00  0.00     0.084 C 
HETATM   25  C   UNL     1       7.150  23.881  56.173  1.00  0.00     0.025 C 
HETATM   26  C   UNL     1       7.544  22.523  55.585  1.00  0.00     0.002 C 
HETATM   27  C   UNL     1       8.797  22.526  54.706  1.00  0.00     0.000 C 
HETATM   28  C   UNL     1       8.523  22.486  53.200  1.00  0.00     0.000 C 
HETATM   29  C   UNL     1       7.879  23.725  52.573  1.00  0.00     0.000 C 
HETATM   30  C   UNL     1       6.433  23.977  53.000  1.00  0.00     0.002 C 
HETATM   31  C   UNL     1       6.243  25.071  54.051  1.00  0.00     0.025 C 
ENDBRANCH  21  24
ENDBRANCH   4  20
BRANCH   6  32
HETATM   32  C   UNL     1       3.728  31.071  57.604  1.00  0.00     0.159 C 
BRANCH  32  33
HETATM   33  C   UNL     1       3.527  31.980  56.384  1.00  0.00     0.139 C 
HETATM   34  O   UNL     1       2.438  32.907  56.562  1.00  0.00    -0.384 OA
HETATM   35  C   UNL     1       1.841  33.144  55.278  1.00  0.00     0.168 C 
HETATM   36  C   UNL     1       2.695  32.431  54.248  1.00  0.00     0.029 C 
HETATM   37  C   UNL     1       3.274  31.293  55.053  1.00  0.00     0.035 C 
ENDBRANCH  32  33
ENDBRANCH   6  32
TORSDOF 8
ENDMDL
MODEL 4
REMARK VINA RESULT:      -9.9      3.378      6.892
REMARK  8 active torsions:
REMARK  status: ('A' for Active; 'I' for Inactive)
REMARK       I    between atoms: N_2  and  C_3 
REMARK    1  A    between atoms: N_2  and  C_29 
REMARK    2  A    between atoms: C_3  and  C_4 
REMARK    3  A    between atoms: C_7  and  C_8 
REMARK       I    between atoms: C_8  and  N_9 
REMARK    4  A    between atoms: N_9  and  C_10 
REMARK    5  A    between atoms: N_20  and  C_21 
REMARK    6  A    between atoms: C_21  and  C_22 
REMARK    7  A    between atoms: C_29  and  C_30 
REMARK    8  A    between atoms: C_30  and  C_31 
ROOT
HETATM    1  C   UNL     1       4.755  28.526  54.622  1.00  0.00     0.098 C 
HETATM    2  C   UNL     1       4.953  27.066  54.784  1.00  0.00     0.206 C 
HETATM    3  O   UNL     1       4.871  26.523  55.885  1.00  0.00    -0.286 OA
HETATM    4  C   UNL     1       5.257  26.271  53.557  1.00  0.00     0.098 C 
HETATM    5  C   UNL     1       5.022  26.872  52.377  1.00  0.00     0.111 C 
HETATM    6  N   UNL     1       4.570  28.181  52.234  1.00  0.00    -0.362 N 
HETATM    7  C   UNL     1       4.513  28.969  53.377  1.00  0.00     0.111 C 
ENDROOT
BRANCH   1   8
HETATM    8  C   UNL     1       4.720  29.532  55.709  1.00  0.00     0.258 C 
HETATM    9  N   UNL     1       5.914  29.954  56.285  1.00  0.00    -0.352 N 
HETATM   10  C   UNL     1       5.863  31.065  57.227  1.00  0.00     0.152 C 
HETATM   11  O   UNL     1       3.637  30.058  55.978  1.00  0.00    -0.267 OA
BRANCH   9  12
HETATM   12  C   UNL     1       7.249  29.367  56.083  1.00  0.00     0.131 C 
BRANCH  12  13
HETATM   13  C   UNL     1       7.842  28.721  57.337  1.00  0.00     0.079 C 
BRANCH  13  14
HETATM   14  C   UNL     1       8.606  29.738  58.149  1.00  0.00     0.035 A 
HETATM   15  N   UNL     1       8.285  29.840  59.462  1.00  0.00    -0.266 NA
HETATM   16  C   UNL     1       8.969  30.739  60.205  1.00  0.00     0.117 A 
HETATM   17  C   UNL     1       9.960  31.560  59.700  1.00  0.00     0.019 A 
HETATM   18  C   UNL     1      10.267  31.457  58.349  1.00  0.00     0.003 A 
HETATM   19  C   UNL     1       9.584  30.534  57.559  1.00  0.00     0.027 A 
ENDBRANCH  13  14
ENDBRANCH  12  13
ENDBRANCH   9  12
ENDBRANCH   1   8
BRANCH   4  20
HETATM   20  C   UNL     1       5.806  24.883  53.577  1.00  0.00     0.257 C 
HETATM   21  N   UNL     1       6.638  24.613  54.635  1.00  0.00    -0.352 N 
HETATM   22  H   UNL     1       6.734  25.329  55.356  1.00  0.00     0.163 HD
HETATM   23  O   UNL     1       5.555  24.080  52.686  1.00  0.00    -0.267 OA
BRANCH  21  24
HETATM   24  C   UNL     1       7.397  23.377  54.836  1.00  0.00     0.084 C 
HETATM   25  C   UNL     1       8.450  23.198  53.737  1.00  0.00     0.025 C 
HETATM   26  C   UNL     1       9.145  21.836  53.648  1.00  0.00     0.002 C 
HETATM   27  C   UNL     1       8.226  20.620  53.789  1.00  0.00     0.000 C 
HETATM   28  C   UNL     1       8.268  19.941  55.160  1.00  0.00     0.000 C 
HETATM   29  C   UNL     1       7.692  20.720  56.345  1.00  0.00     0.000 C 
HETATM   30  C   UNL     1       8.496  21.957  56.746  1.00  0.00     0.002 C 
HETATM   31  C   UNL     1       7.918  23.293  56.277  1.00  0.00     0.025 C 
ENDBRANCH  21  24
ENDBRANCH   4  20
BRANCH   6  32
HETATM   32  C   UNL     1       4.145  28.706  50.915  1.00  0.00     0.159 C 
BRANCH  32  33
HETATM   33  C   UNL     1       4.788  28.000  49.714  1.00  0.00     0.139 C 
HETATM   34  O   UNL     1       5.281  28.930  48.729  1.00  0.00    -0.384 OA
HETATM   35  C   UNL     1       5.152  28.318  47.437  1.00  0.00     0.168 C 
HETATM   36  C   UNL     1       4.684  26.893  47.660  1.00  0.00     0.029 C 
HETATM   37  C   UNL     1       3.919  27.012  48.955  1.00  0.00     0.035 C 
ENDBRANCH  32  33
ENDBRANCH   6  32
TORSDOF 8
ENDMDL
MODEL 5
REMARK VINA RESULT:      -9.8      4.322      8.651
REMARK  8 active torsions:
REMARK  status: ('A' for Active; 'I' for Inactive)
REMARK       I    between atoms: N_2  and  C_3 
REMARK    1  A    between atoms: N_2  and  C_29 
REMARK    2  A    between atoms: C_3  and  C_4 
REMARK    3  A    between atoms: C_7  and  C_8 
REMARK       I    between atoms: C_8  and  N_9 
REMARK    4  A    between atoms: N_9  and  C_10 
REMARK    5  A    between atoms: N_20  and  C_21 
REMARK    6  A    between atoms: C_21  and  C_22 
REMARK    7  A    between atoms: C_29  and  C_30 
REMARK    8  A    between atoms: C_30  and  C_31 
ROOT
HETATM    1  C   UNL     1       7.429  27.432  55.000  1.00  0.00     0.098 C 
HETATM    2  C   UNL     1       6.838  27.407  53.641  1.00  0.00     0.206 C 
HETATM    3  O   UNL     1       6.843  28.402  52.918  1.00  0.00    -0.286 OA
HETATM    4  C   UNL     1       6.232  26.124  53.175  1.00  0.00     0.098 C 
HETATM    5  C   UNL     1       6.541  25.022  53.882  1.00  0.00     0.111 C 
HETATM    6  N   UNL     1       7.333  25.013  55.026  1.00  0.00    -0.362 N 
HETATM    7  C   UNL     1       7.695  26.242  55.565  1.00  0.00     0.111 C 
ENDROOT
BRANCH   1   8
HETATM    8  C   UNL     1       7.827  28.639  55.761  1.00  0.00     0.258 C 
HETATM    9  N   UNL     1       7.023  29.081  56.807  1.00  0.00    -0.352 N 
HETATM   10  C   UNL     1       7.524  30.162  57.644  1.00  0.00     0.152 C 
HETATM   11  O   UNL     1       8.931  29.137  55.522  1.00  0.00    -0.267 OA
BRANCH   9  12
HETATM   12  C   UNL     1       5.673  28.601  57.147  1.00  0.00     0.131 C 
BRANCH  12  13
HETATM   13  C   UNL     1       4.601  29.693  57.131  1.00  0.00     0.079 C 
BRANCH  13  14
HETATM   14  C   UNL     1       4.218  30.042  55.713  1.00  0.00     0.035 A 
HETATM   15  N   UNL     1       4.208  31.358  55.387  1.00  0.00    -0.266 NA
HETATM   16  C   UNL     1       3.878  31.685  54.117  1.00  0.00     0.117 A 
HETATM   17  C   UNL     1       3.542  30.760  53.147  1.00  0.00     0.019 A 
HETATM   18  C   UNL     1       3.540  29.416  53.499  1.00  0.00     0.003 A 
HETATM   19  C   UNL     1       3.882  29.047  54.799  1.00  0.00     0.027 A 
ENDBRANCH  13  14
ENDBRANCH  12  13
ENDBRANCH   9  12
ENDBRANCH   1   8
BRANCH   4  20
HETATM   20  C   UNL     1       5.316  26.011  52.003  1.00  0.00     0.257 C 
HETATM   21  N   UNL     1       5.245  27.139  51.223  1.00  0.00    -0.352 N 
HETATM   22  H   UNL     1       5.881  27.906  51.442  1.00  0.00     0.163 HD
HETATM   23  O   UNL     1       4.655  25.000  51.799  1.00  0.00    -0.267 OA
BRANCH  21  24
HETATM   24  C   UNL     1       4.345  27.340  50.084  1.00  0.00     0.084 C 
HETATM   25  C   UNL     1       3.962  28.817  49.946  1.00  0.00     0.025 C 
HETATM   26  C   UNL     1       2.826  29.157  48.978  1.00  0.00     0.002 C 
HETATM   27  C   UNL     1       1.607  28.234  49.045  1.00  0.00     0.000 C 
HETATM   28  C   UNL     1       1.523  27.199  47.920  1.00  0.00     0.000 C 
HETATM   29  C   UNL     1       2.573  26.085  47.915  1.00  0.00     0.000 C 
HETATM   30  C   UNL     1       3.996  26.552  47.609  1.00  0.00     0.002 C 
HETATM   31  C   UNL     1       4.917  26.680  48.823  1.00  0.00     0.025 C 
ENDBRANCH  21  24
ENDBRANCH   4  20
BRANCH   6  32
HETATM   32  C   UNL     1       7.792  23.742  55.633  1.00  0.00     0.159 C 
BRANCH  32  33
HETATM   33  C   UNL     1       7.636  22.514  54.726  1.00  0.00     0.139 C 
HETATM   34  O   UNL     1       7.643  21.279  55.468  1.00  0.00    -0.384 OA
HETATM   35  C   UNL     1       8.235  20.266  54.641  1.00  0.00     0.168 C 
HETATM   36  C   UNL     1       8.478  20.885  53.278  1.00  0.00     0.029 C 
HETATM   37  C   UNL     1       8.667  22.342  53.624  1.00  0.00     0.035 C 
ENDBRANCH  32  33
ENDBRANCH   6  32
TORSDOF 8
ENDMDL
MODEL 6
REMARK VINA RESULT:      -9.6      5.146      8.540
REMARK  8 active torsions:
REMARK  status: ('A' for Active; 'I' for Inactive)
REMARK       I    between atoms: N_2  and  C_3 
REMARK    1  A    between atoms: N_2  and  C_29 
REMARK    2  A    between atoms: C_3  and  C_4 
REMARK    3  A    between atoms: C_7  and  C_8 
REMARK       I    between atoms: C_8  and  N_9 
REMARK    4  A    between atoms: N_9  and  C_10 
REMARK    5  A    between atoms: N_20  and  C_21 
REMARK    6  A    between atoms: C_21  and  C_22 
REMARK    7  A    between atoms: C_29  and  C_30 
REMARK    8  A    between atoms: C_30  and  C_31 
ROOT
HETATM    1  C   UNL     1       5.141  28.756  51.165  1.00  0.00     0.098 C 
HETATM    2  C   UNL     1       5.876  27.820  52.049  1.00  0.00     0.206 C 
HETATM    3  O   UNL     1       6.323  28.178  53.137  1.00  0.00    -0.286 OA
HETATM    4  C   UNL     1       6.056  26.417  51.571  1.00  0.00     0.098 C 
HETATM    5  C   UNL     1       5.284  26.029  50.539  1.00  0.00     0.111 C 
HETATM    6  N   UNL     1       4.382  26.854  49.874  1.00  0.00    -0.362 N 
HETATM    7  C   UNL     1       4.399  28.208  50.188  1.00  0.00     0.111 C 
ENDROOT
BRANCH   1   8
HETATM    8  C   UNL     1       5.084  30.230  51.302  1.00  0.00     0.258 C 
HETATM    9  N   UNL     1       4.306  30.790  52.311  1.00  0.00    -0.352 N 
HETATM   10  C   UNL     1       4.405  32.227  52.530  1.00  0.00     0.152 C 
HETATM   11  O   UNL     1       5.834  30.908  50.594  1.00  0.00    -0.267 OA
BRANCH   9  12
HETATM   12  C   UNL     1       3.339  30.090  53.173  1.00  0.00     0.131 C 
BRANCH  12  13
HETATM   13  C   UNL     1       3.334  30.575  54.624  1.00  0.00     0.079 C 
BRANCH  13  14
HETATM   14  C   UNL     1       4.351  29.817  55.442  1.00  0.00     0.035 A 
HETATM   15  N   UNL     1       5.486  30.478  55.774  1.00  0.00    -0.266 NA
HETATM   16  C   UNL     1       6.402  29.816  56.516  1.00  0.00     0.117 A 
HETATM   17  C   UNL     1       6.249  28.509  56.941  1.00  0.00     0.019 A 
HETATM   18  C   UNL     1       5.087  27.837  56.579  1.00  0.00     0.003 A 
HETATM   19  C   UNL     1       4.122  28.496  55.819  1.00  0.00     0.027 A 
ENDBRANCH  13  14
ENDBRANCH  12  13
ENDBRANCH   9  12
ENDBRANCH   1   8
BRANCH   4  20
HETATM   20  C   UNL     1       7.034  25.455  52.157  1.00  0.00     0.257 C 
HETATM   21  N   UNL     1       6.480  24.508  52.982  1.00  0.00    -0.352 N 
HETATM   22  H   UNL     1       5.462  24.476  53.048  1.00  0.00     0.163 HD
HETATM   23  O   UNL     1       8.238  25.549  51.942  1.00  0.00    -0.267 OA
BRANCH  21  24
HETATM   24  C   UNL     1       7.217  23.520  53.772  1.00  0.00     0.084 C 
HETATM   25  C   UNL     1       7.941  22.522  52.862  1.00  0.00     0.025 C 
HETATM   26  C   UNL     1       8.535  21.275  53.523  1.00  0.00     0.002 C 
HETATM   27  C   UNL     1       7.639  20.589  54.557  1.00  0.00     0.000 C 
HETATM   28  C   UNL     1       8.011  20.872  56.014  1.00  0.00     0.000 C 
HETATM   29  C   UNL     1       7.793  22.297  56.528  1.00  0.00     0.000 C 
HETATM   30  C   UNL     1       8.720  23.345  55.913  1.00  0.00     0.002 C 
HETATM   31  C   UNL     1       8.091  24.215  54.824  1.00  0.00     0.025 C 
ENDBRANCH  21  24
ENDBRANCH   4  20
BRANCH   6  32
HETATM   32  C   UNL     1       3.427  26.306  48.884  1.00  0.00     0.159 C 
BRANCH  32  33
HETATM   33  C   UNL     1       2.374  27.310  48.395  1.00  0.00     0.139 C 
HETATM   34  O   UNL     1       1.106  26.684  48.116  1.00  0.00    -0.384 OA
HETATM   35  C   UNL     1       0.484  27.403  47.039  1.00  0.00     0.168 C 
HETATM   36  C   UNL     1       1.356  28.607  46.740  1.00  0.00     0.029 C 
HETATM   37  C   UNL     1       2.721  28.117  47.157  1.00  0.00     0.035 C 
ENDBRANCH  32  33
ENDBRANCH   6  32
TORSDOF 8
ENDMDL
MODEL 7
REMARK VINA RESULT:      -9.6      1.498      2.293
REMARK  8 active torsions:
REMARK  status: ('A' for Active; 'I' for Inactive)
REMARK       I    between atoms: N_2  and  C_3 
REMARK    1  A    between atoms: N_2  and  C_29 
REMARK    2  A    between atoms: C_3  and  C_4 
REMARK    3  A    between atoms: C_7  and  C_8 
REMARK       I    between atoms: C_8  and  N_9 
REMARK    4  A    between atoms: N_9  and  C_10 
REMARK    5  A    between atoms: N_20  and  C_21 
REMARK    6  A    between atoms: C_21  and  C_22 
REMARK    7  A    between atoms: C_29  and  C_30 
REMARK    8  A    between atoms: C_30  and  C_31 
ROOT
HETATM    1  C   UNL     1       7.265  30.922  58.671  1.00  0.00     0.098 C 
HETATM    2  C   UNL     1       7.176  29.527  58.178  1.00  0.00     0.206 C 
HETATM    3  O   UNL     1       8.012  28.680  58.485  1.00  0.00    -0.286 OA
HETATM    4  C   UNL     1       6.027  29.182  57.288  1.00  0.00     0.098 C 
HETATM    5  C   UNL     1       5.007  30.059  57.256  1.00  0.00     0.111 C 
HETATM    6  N   UNL     1       4.981  31.266  57.948  1.00  0.00    -0.362 N 
HETATM    7  C   UNL     1       6.151  31.667  58.583  1.00  0.00     0.111 C 
ENDROOT
BRANCH   1   8
HETATM    8  C   UNL     1       8.440  31.548  59.322  1.00  0.00     0.258 C 
HETATM    9  N   UNL     1       8.495  31.610  60.711  1.00  0.00    -0.352 N 
HETATM   10  C   UNL     1       9.733  32.072  61.325  1.00  0.00     0.152 C 
HETATM   11  O   UNL     1       9.391  31.878  58.609  1.00  0.00    -0.267 OA
BRANCH   9  12
HETATM   12  C   UNL     1       7.409  31.298  61.654  1.00  0.00     0.131 C 
BRANCH  12  13
HETATM   13  C   UNL     1       6.358  32.402  61.782  1.00  0.00     0.079 C 
BRANCH  13  14
HETATM   14  C   UNL     1       6.285  32.905  63.203  1.00  0.00     0.035 A 
HETATM   15  N   UNL     1       5.051  33.007  63.755  1.00  0.00    -0.266 NA
HETATM   16  C   UNL     1       4.970  33.445  65.032  1.00  0.00     0.117 A 
HETATM   17  C   UNL     1       6.066  33.803  65.793  1.00  0.00     0.019 A 
HETATM   18  C   UNL     1       7.325  33.710  65.209  1.00  0.00     0.003 A 
HETATM   19  C   UNL     1       7.440  33.255  63.897  1.00  0.00     0.027 A 
ENDBRANCH  13  14
ENDBRANCH  12  13
ENDBRANCH   9  12
ENDBRANCH   1   8
BRANCH   4  20
HETATM   20  C   UNL     1       5.963  27.951  56.447  1.00  0.00     0.257 C 
HETATM   21  N   UNL     1       7.170  27.324  56.259  1.00  0.00    -0.352 N 
HETATM   22  H   UNL     1       7.974  27.682  56.775  1.00  0.00     0.163 HD
HETATM   23  O   UNL     1       4.914  27.574  55.938  1.00  0.00    -0.267 OA
BRANCH  21  24
HETATM   24  C   UNL     1       7.411  26.170  55.391  1.00  0.00     0.084 C 
HETATM   25  C   UNL     1       7.831  26.621  53.987  1.00  0.00     0.025 C 
HETATM   26  C   UNL     1       7.863  25.554  52.890  1.00  0.00     0.002 C 
HETATM   27  C   UNL     1       6.669  24.596  52.871  1.00  0.00     0.000 C 
HETATM   28  C   UNL     1       6.947  23.213  53.465  1.00  0.00     0.000 C 
HETATM   29  C   UNL     1       7.195  23.137  54.974  1.00  0.00     0.000 C 
HETATM   30  C   UNL     1       8.498  23.785  55.439  1.00  0.00     0.002 C 
HETATM   31  C   UNL     1       8.349  25.168  56.076  1.00  0.00     0.025 C 
ENDBRANCH  21  24
ENDBRANCH   4  20
BRANCH   6  32
HETATM   32  C   UNL     1       3.747  32.083  58.022  1.00  0.00     0.159 C 
BRANCH  32  33
HETATM   33  C   UNL     1       3.362  32.771  56.706  1.00  0.00     0.139 C 
HETATM   34  O   UNL     1       2.381  32.023  55.961  1.00  0.00    -0.384 OA
HETATM   35  C   UNL     1       2.620  32.245  54.562  1.00  0.00     0.168 C 
HETATM   36  C   UNL     1       3.716  33.288  54.455  1.00  0.00     0.029 C 
HETATM   37  C   UNL     1       4.489  33.064  55.731  1.00  0.00     0.035 C 
ENDBRANCH  32  33
ENDBRANCH   6  32
TORSDOF 8
ENDMDL
MODEL 8
REMARK VINA RESULT:      -9.1      7.513     10.406
REMARK  8 active torsions:
REMARK  status: ('A' for Active; 'I' for Inactive)
REMARK       I    between atoms: N_2  and  C_3 
REMARK    1  A    between atoms: N_2  and  C_29 
REMARK    2  A    between atoms: C_3  and  C_4 
REMARK    3  A    between atoms: C_7  and  C_8 
REMARK       I    between atoms: C_8  and  N_9 
REMARK    4  A    between atoms: N_9  and  C_10 
REMARK    5  A    between atoms: N_20  and  C_21 
REMARK    6  A    between atoms: C_21  and  C_22 
REMARK    7  A    between atoms: C_29  and  C_30 
REMARK    8  A    between atoms: C_30  and  C_31 
ROOT
HETATM    1  C   UNL     1       4.499  28.328  51.963  1.00  0.00     0.098 C 
HETATM    2  C   UNL     1       5.254  27.272  52.678  1.00  0.00     0.206 C 
HETATM    3  O   UNL     1       5.427  27.314  53.894  1.00  0.00    -0.286 OA
HETATM    4  C   UNL     1       5.801  26.145  51.864  1.00  0.00     0.098 C 
HETATM    5  C   UNL     1       5.310  26.009  50.619  1.00  0.00     0.111 C 
HETATM    6  N   UNL     1       4.380  26.866  50.038  1.00  0.00    -0.362 N 
HETATM    7  C   UNL     1       4.061  28.029  50.729  1.00  0.00     0.111 C 
ENDROOT
BRANCH   1   8
HETATM    8  C   UNL     1       4.113  29.651  52.508  1.00  0.00     0.258 C 
HETATM    9  N   UNL     1       4.365  30.796  51.759  1.00  0.00    -0.352 N 
HETATM   10  C   UNL     1       3.822  32.060  52.240  1.00  0.00     0.152 C 
HETATM   11  O   UNL     1       3.462  29.679  53.556  1.00  0.00    -0.267 OA
BRANCH   9  12
HETATM   12  C   UNL     1       5.173  30.889  50.532  1.00  0.00     0.131 C 
BRANCH  12  13
HETATM   13  C   UNL     1       4.391  31.363  49.305  1.00  0.00     0.079 C 
BRANCH  13  14
HETATM   14  C   UNL     1       5.270  32.192  48.401  1.00  0.00     0.035 A 
HETATM   15  N   UNL     1       6.213  32.961  48.999  1.00  0.00    -0.266 NA
HETATM   16  C   UNL     1       7.016  33.701  48.202  1.00  0.00     0.117 A 
HETATM   17  C   UNL     1       6.920  33.724  46.823  1.00  0.00     0.019 A 
HETATM   18  C   UNL     1       5.938  32.945  46.223  1.00  0.00     0.003 A 
HETATM   19  C   UNL     1       5.100  32.167  47.019  1.00  0.00     0.027 A 
ENDBRANCH  13  14
ENDBRANCH  12  13
ENDBRANCH   9  12
ENDBRANCH   1   8
BRANCH   4  20
HETATM   20  C   UNL     1       6.846  25.197  52.349  1.00  0.00     0.257 C 
HETATM   21  N   UNL     1       6.417  24.319  53.314  1.00  0.00    -0.352 N 
HETATM   22  H   UNL     1       5.423  24.318  53.545  1.00  0.00     0.163 HD
HETATM   23  O   UNL     1       7.999  25.245  51.937  1.00  0.00    -0.267 OA
BRANCH  21  24
HETATM   24  C   UNL     1       7.258  23.364  54.040  1.00  0.00     0.084 C 
HETATM   25  C   UNL     1       7.876  22.341  53.080  1.00  0.00     0.025 C 
HETATM   26  C   UNL     1       8.562  21.123  53.704  1.00  0.00     0.002 C 
HETATM   27  C   UNL     1       7.807  20.466  54.862  1.00  0.00     0.000 C 
HETATM   28  C   UNL     1       8.352  20.800  56.253  1.00  0.00     0.000 C 
HETATM   29  C   UNL     1       8.182  22.241  56.743  1.00  0.00     0.000 C 
HETATM   30  C   UNL     1       9.014  23.274  55.984  1.00  0.00     0.002 C 
HETATM   31  C   UNL     1       8.246  24.102  54.953  1.00  0.00     0.025 C 
ENDBRANCH  21  24
ENDBRANCH   4  20
BRANCH   6  32
HETATM   32  C   UNL     1       3.739  26.540  48.743  1.00  0.00     0.159 C 
BRANCH  32  33
HETATM   33  C   UNL     1       2.599  27.486  48.343  1.00  0.00     0.139 C 
HETATM   34  O   UNL     1       1.405  26.777  47.961  1.00  0.00    -0.384 OA
HETATM   35  C   UNL     1       0.731  27.550  46.956  1.00  0.00     0.168 C 
HETATM   36  C   UNL     1       1.483  28.860  46.820  1.00  0.00     0.029 C 
HETATM   37  C   UNL     1       2.883  28.461  47.214  1.00  0.00     0.035 C 
ENDBRANCH  32  33
ENDBRANCH   6  32
TORSDOF 8
ENDMDL
MODEL 9
REMARK VINA RESULT:      -9.1      4.605      9.384
REMARK  8 active torsions:
REMARK  status: ('A' for Active; 'I' for Inactive)
REMARK       I    between atoms: N_2  and  C_3 
REMARK    1  A    between atoms: N_2  and  C_29 
REMARK    2  A    between atoms: C_3  and  C_4 
REMARK    3  A    between atoms: C_7  and  C_8 
REMARK       I    between atoms: C_8  and  N_9 
REMARK    4  A    between atoms: N_9  and  C_10 
REMARK    5  A    between atoms: N_20  and  C_21 
REMARK    6  A    between atoms: C_21  and  C_22 
REMARK    7  A    between atoms: C_29  and  C_30 
REMARK    8  A    between atoms: C_30  and  C_31 
ROOT
HETATM    1  C   UNL     1       4.944  29.087  52.206  1.00  0.00     0.098 C 
HETATM    2  C   UNL     1       5.601  27.760  52.275  1.00  0.00     0.206 C 
HETATM    3  O   UNL     1       6.303  27.340  51.358  1.00  0.00    -0.286 OA
HETATM    4  C   UNL     1       5.380  26.944  53.507  1.00  0.00     0.098 C 
HETATM    5  C   UNL     1       4.872  27.590  54.572  1.00  0.00     0.111 C 
HETATM    6  N   UNL     1       4.501  28.931  54.580  1.00  0.00    -0.362 N 
HETATM    7  C   UNL     1       4.503  29.605  53.365  1.00  0.00     0.111 C 
ENDROOT
BRANCH   1   8
HETATM    8  C   UNL     1       4.797  29.930  50.997  1.00  0.00     0.258 C 
HETATM    9  N   UNL     1       3.559  30.010  50.368  1.00  0.00    -0.352 N 
HETATM   10  C   UNL     1       3.402  30.977  49.290  1.00  0.00     0.152 C 
HETATM   11  O   UNL     1       5.753  30.637  50.663  1.00  0.00    -0.267 OA
BRANCH   9  12
HETATM   12  C   UNL     1       2.373  29.182  50.643  1.00  0.00     0.131 C 
BRANCH  12  13
HETATM   13  C   UNL     1       1.565  28.817  49.396  1.00  0.00     0.079 C 
BRANCH  13  14
HETATM   14  C   UNL     1       2.179  27.631  48.692  1.00  0.00     0.035 A 
HETATM   15  N   UNL     1       3.320  27.127  49.222  1.00  0.00    -0.266 NA
HETATM   16  C   UNL     1       3.875  26.057  48.609  1.00  0.00     0.117 A 
HETATM   17  C   UNL     1       3.354  25.464  47.475  1.00  0.00     0.019 A 
HETATM   18  C   UNL     1       2.193  26.002  46.931  1.00  0.00     0.003 A 
HETATM   19  C   UNL     1       1.594  27.100  47.545  1.00  0.00     0.027 A 
ENDBRANCH  13  14
ENDBRANCH  12  13
ENDBRANCH   9  12
ENDBRANCH   1   8
BRANCH   4  20
HETATM   20  C   UNL     1       5.676  25.485  53.606  1.00  0.00     0.257 C 
HETATM   21  N   UNL     1       6.871  25.185  54.211  1.00  0.00    -0.352 N 
HETATM   22  H   UNL     1       7.400  25.954  54.623  1.00  0.00     0.163 HD
HETATM   23  O   UNL     1       4.920  24.643  53.136  1.00  0.00    -0.267 OA
BRANCH  21  24
HETATM   24  C   UNL     1       7.457  23.848  54.336  1.00  0.00     0.084 C 
HETATM   25  C   UNL     1       8.225  23.468  53.066  1.00  0.00     0.025 C 
HETATM   26  C   UNL     1       8.671  22.009  52.928  1.00  0.00     0.002 C 
HETATM   27  C   UNL     1       7.625  20.963  53.322  1.00  0.00     0.000 C 
HETATM   28  C   UNL     1       7.840  20.328  54.698  1.00  0.00     0.000 C 
HETATM   29  C   UNL     1       7.643  21.226  55.922  1.00  0.00     0.000 C 
HETATM   30  C   UNL     1       8.691  22.328  56.079  1.00  0.00     0.002 C 
HETATM   31  C   UNL     1       8.240  23.725  55.650  1.00  0.00     0.025 C 
ENDBRANCH  21  24
ENDBRANCH   4  20
BRANCH   6  32
HETATM   32  C   UNL     1       4.138  29.620  55.841  1.00  0.00     0.159 C 
BRANCH  32  33
HETATM   33  C   UNL     1       4.247  31.149  55.782  1.00  0.00     0.139 C 
HETATM   34  O   UNL     1       5.312  31.658  56.609  1.00  0.00    -0.384 OA
HETATM   35  C   UNL     1       4.917  32.948  57.099  1.00  0.00     0.168 C 
HETATM   36  C   UNL     1       3.604  33.301  56.427  1.00  0.00     0.029 C 
HETATM   37  C   UNL     1       3.008  31.939  56.168  1.00  0.00     0.035 C 
ENDBRANCH  32  33
ENDBRANCH   6  32
TORSDOF 8
ENDMDL
MODEL 10
REMARK VINA RESULT:      -8.9      5.026      8.711
REMARK  8 active torsions:
REMARK  status: ('A' for Active; 'I' for Inactive)
REMARK       I    between atoms: N_2  and  C_3 
REMARK    1  A    between atoms: N_2  and  C_29 
REMARK    2  A    between atoms: C_3  and  C_4 
REMARK    3  A    between atoms: C_7  and  C_8 
REMARK       I    between atoms: C_8  and  N_9 
REMARK    4  A    between atoms: N_9  and  C_10 
REMARK    5  A    between atoms: N_20  and  C_21 
REMARK    6  A    between atoms: C_21  and  C_22 
REMARK    7  A    between atoms: C_29  and  C_30 
REMARK    8  A    between atoms: C_30  and  C_31 
ROOT
HETATM    1  C   UNL     1       3.877  28.556  52.320  1.00  0.00     0.098 C 
HETATM    2  C   UNL     1       4.654  27.303  52.174  1.00  0.00     0.206 C 
HETATM    3  O   UNL     1       4.969  26.864  51.069  1.00  0.00    -0.286 OA
HETATM    4  C   UNL     1       5.047  26.584  53.423  1.00  0.00     0.098 C 
HETATM    5  C   UNL     1       4.942  27.276  54.572  1.00  0.00     0.111 C 
HETATM    6  N   UNL     1       4.454  28.576  54.670  1.00  0.00    -0.362 N 
HETATM    7  C   UNL     1       3.887  29.136  53.532  1.00  0.00     0.111 C 
ENDROOT
BRANCH   1   8
HETATM    8  C   UNL     1       3.158  29.272  51.241  1.00  0.00     0.258 C 
HETATM    9  N   UNL     1       3.872  30.090  50.371  1.00  0.00    -0.352 N 
HETATM   10  C   UNL     1       3.170  30.642  49.221  1.00  0.00     0.152 C 
HETATM   11  O   UNL     1       1.962  29.015  51.071  1.00  0.00    -0.267 OA
BRANCH   9  12
HETATM   12  C   UNL     1       5.278  30.509  50.506  1.00  0.00     0.131 C 
BRANCH  12  13
HETATM   13  C   UNL     1       5.855  31.167  49.252  1.00  0.00     0.079 C 
BRANCH  13  14
HETATM   14  C   UNL     1       6.143  32.627  49.502  1.00  0.00     0.035 A 
HETATM   15  N   UNL     1       5.751  33.134  50.696  1.00  0.00    -0.266 NA
HETATM   16  C   UNL     1       6.012  34.438  50.940  1.00  0.00     0.117 A 
HETATM   17  C   UNL     1       6.641  35.277  50.039  1.00  0.00     0.019 A 
HETATM   18  C   UNL     1       7.022  34.750  48.811  1.00  0.00     0.003 A 
HETATM   19  C   UNL     1       6.772  33.407  48.534  1.00  0.00     0.027 A 
ENDBRANCH  13  14
ENDBRANCH  12  13
ENDBRANCH   9  12
ENDBRANCH   1   8
BRANCH   4  20
HETATM   20  C   UNL     1       5.524  25.171  53.459  1.00  0.00     0.257 C 
HETATM   21  N   UNL     1       6.564  24.941  54.325  1.00  0.00    -0.352 N 
HETATM   22  H   UNL     1       6.854  25.709  54.931  1.00  0.00     0.163 HD
HETATM   23  O   UNL     1       5.041  24.311  52.731  1.00  0.00    -0.267 OA
BRANCH  21  24
HETATM   24  C   UNL     1       7.294  23.680  54.473  1.00  0.00     0.084 C 
HETATM   25  C   UNL     1       8.203  23.430  53.265  1.00  0.00     0.025 C 
HETATM   26  C   UNL     1       8.830  22.039  53.138  1.00  0.00     0.002 C 
HETATM   27  C   UNL     1       7.888  20.865  53.421  1.00  0.00     0.000 C 
HETATM   28  C   UNL     1       8.065  20.220  54.798  1.00  0.00     0.000 C 
HETATM   29  C   UNL     1       7.662  21.052  56.018  1.00  0.00     0.000 C 
HETATM   30  C   UNL     1       8.554  22.265  56.285  1.00  0.00     0.002 C 
HETATM   31  C   UNL     1       7.976  23.611  55.846  1.00  0.00     0.025 C 
ENDBRANCH  21  24
ENDBRANCH   4  20
BRANCH   6  32
HETATM   32  C   UNL     1       4.556  29.341  55.935  1.00  0.00     0.159 C 
BRANCH  32  33
HETATM   33  C   UNL     1       5.958  29.353  56.558  1.00  0.00     0.139 C 
HETATM   34  O   UNL     1       6.999  29.461  55.567  1.00  0.00    -0.384 OA
HETATM   35  C   UNL     1       8.147  28.746  56.050  1.00  0.00     0.168 C 
HETATM   36  C   UNL     1       7.834  28.296  57.463  1.00  0.00     0.029 C 
HETATM   37  C   UNL     1       6.331  28.164  57.426  1.00  0.00     0.035 C 
ENDBRANCH  32  33
ENDBRANCH   6  32
TORSDOF 8
ENDMDL
