MODEL 1
REMARK VINA RESULT:      -8.1      0.000      0.000
REMARK  5 active torsions:
REMARK  status: ('A' for Active; 'I' for Inactive)
REMARK    1  A    between atoms: C_2  and  C_3 
REMARK    2  A    between atoms: C_7  and  C_8 
REMARK       I    between atoms: C_8  and  N_9 
REMARK    3  A    between atoms: N_9  and  C_10 
REMARK    4  A    between atoms: C_15  and  N_16 
REMARK       I    between atoms: N_16  and  C_17 
REMARK    5  A    between atoms: C_17  and  C_18 
ROOT
HETATM    1  C   UNL     1       7.118  28.269  56.849  1.00  0.00     0.059 A 
HETATM    2  C   UNL     1       6.148  29.077  56.231  1.00  0.00     0.060 A 
HETATM    3 CL   UNL     1       5.075  28.519  54.992  1.00  0.00    -0.082 Cl
HETATM    4  C   UNL     1       5.885  30.354  56.736  1.00  0.00     0.028 A 
HETATM    5  C   UNL     1       6.543  30.824  57.876  1.00  0.00     0.031 A 
HETATM    6  C   UNL     1       7.458  30.014  58.542  1.00  0.00     0.036 A 
HETATM    7  C   UNL     1       7.738  28.740  58.022  1.00  0.00     0.060 A 
ENDROOT
BRANCH   1   8
HETATM    8  N   UNL     1       7.493  26.968  56.431  1.00  0.00    -0.320 N 
HETATM    9  C   UNL     1       6.819  25.797  56.724  1.00  0.00     0.274 C 
HETATM   10  O   UNL     1       5.706  25.738  57.232  1.00  0.00    -0.266 OA
HETATM   11  H   UNL     1       8.143  26.907  55.661  1.00  0.00     0.169 HD
BRANCH   9  12
HETATM   12  C   UNL     1       7.498  24.598  56.294  1.00  0.00     0.120 A 
HETATM   13  N   UNL     1       7.933  23.667  57.201  1.00  0.00    -0.273 N 
HETATM   14  N   UNL     1       8.541  22.607  56.649  1.00  0.00    -0.179 NA
HETATM   15  H   UNL     1       7.838  23.714  58.212  1.00  0.00     0.189 HD
HETATM   16  C   UNL     1       8.521  22.862  55.337  1.00  0.00     0.056 A 
HETATM   17  C   UNL     1       7.882  24.099  55.065  1.00  0.00     0.065 A 
BRANCH  16  18
HETATM   18  C   UNL     1       9.115  21.924  54.333  1.00  0.00     0.056 C 
HETATM   19  C   UNL     1       8.164  21.454  53.242  1.00  0.00     0.011 C 
ENDBRANCH  16  18
ENDBRANCH   9  12
ENDBRANCH   1   8
BRANCH   6  20
HETATM   20  N   UNL     1       8.124  30.390  59.730  1.00  0.00    -0.327 N 
HETATM   21  C   UNL     1       8.961  31.478  59.916  1.00  0.00     0.221 C 
HETATM   22  O   UNL     1       9.296  32.298  59.069  1.00  0.00    -0.273 OA
HETATM   23  H   UNL     1       7.944  29.817  60.545  1.00  0.00     0.169 HD
BRANCH  21  24
HETATM   24  C   UNL     1       9.461  31.594  61.344  1.00  0.00     0.098 C 
HETATM   25  C   UNL     1       9.294  30.292  62.103  1.00  0.00     0.014 C 
ENDBRANCH  21  24
ENDBRANCH   6  20
TORSDOF 5
ENDMDL
MODEL 2
REMARK VINA RESULT:      -7.9      2.193      7.922
REMARK  5 active torsions:
REMARK  status: ('A' for Active; 'I' for Inactive)
REMARK    1  A    between atoms: C_2  and  C_3 
REMARK    2  A    between atoms: C_7  and  C_8 
REMARK       I    between atoms: C_8  and  N_9 
REMARK    3  A    between atoms: N_9  and  C_10 
REMARK    4  A    between atoms: C_15  and  N_16 
REMARK       I    between atoms: N_16  and  C_17 
REMARK    5  A    between atoms: C_17  and  C_18 
ROOT
HETATM    1  C   UNL     1       6.909  26.684  55.073  1.00  0.00     0.059 A 
HETATM    2  C   UNL     1       5.615  26.840  54.547  1.00  0.00     0.060 A 
HETATM    3 CL   UNL     1       4.756  28.343  54.531  1.00  0.00    -0.082 Cl
HETATM    4  C   UNL     1       5.024  25.792  53.835  1.00  0.00     0.028 A 
HETATM    5  C   UNL     1       5.720  24.604  53.598  1.00  0.00     0.031 A 
HETATM    6  C   UNL     1       7.027  24.454  54.051  1.00  0.00     0.036 A 
HETATM    7  C   UNL     1       7.612  25.498  54.786  1.00  0.00     0.060 A 
ENDROOT
BRANCH   1   8
HETATM    8  N   UNL     1       7.615  27.655  55.826  1.00  0.00    -0.320 N 
HETATM    9  C   UNL     1       7.815  27.631  57.193  1.00  0.00     0.274 C 
HETATM   10  O   UNL     1       7.567  26.677  57.920  1.00  0.00    -0.266 OA
HETATM   11  H   UNL     1       8.230  28.270  55.313  1.00  0.00     0.169 HD
BRANCH   9  12
HETATM   12  C   UNL     1       8.444  28.818  57.721  1.00  0.00     0.120 A 
HETATM   13  N   UNL     1       9.710  29.177  57.341  1.00  0.00    -0.273 N 
HETATM   14  N   UNL     1      10.156  30.305  57.914  1.00  0.00    -0.179 NA
HETATM   15  H   UNL     1      10.313  28.679  56.692  1.00  0.00     0.189 HD
HETATM   16  C   UNL     1       9.152  30.687  58.711  1.00  0.00     0.056 A 
HETATM   17  C   UNL     1       8.060  29.786  58.629  1.00  0.00     0.065 A 
BRANCH  16  18
HETATM   18  C   UNL     1       9.234  31.918  59.559  1.00  0.00     0.056 C 
HETATM   19  C   UNL     1       9.557  31.675  61.027  1.00  0.00     0.011 C 
ENDBRANCH  16  18
ENDBRANCH   9  12
ENDBRANCH   1   8
BRANCH   6  20
HETATM   20  N   UNL     1       7.819  23.310  53.807  1.00  0.00    -0.327 N 
HETATM   21  C   UNL     1       7.982  22.209  54.632  1.00  0.00     0.221 C 
HETATM   22  O   UNL     1       7.486  22.044  55.741  1.00  0.00    -0.273 OA
HETATM   23  H   UNL     1       8.296  23.277  52.915  1.00  0.00     0.169 HD
BRANCH  21  24
HETATM   24  C   UNL     1       8.874  21.146  54.020  1.00  0.00     0.098 C 
HETATM   25  C   UNL     1       8.209  20.472  52.835  1.00  0.00     0.014 C 
ENDBRANCH  21  24
ENDBRANCH   6  20
TORSDOF 5
ENDMDL
MODEL 3
REMARK VINA RESULT:      -7.9      2.995      8.724
REMARK  5 active torsions:
REMARK  status: ('A' for Active; 'I' for Inactive)
REMARK    1  A    between atoms: C_2  and  C_3 
REMARK    2  A    between atoms: C_7  and  C_8 
REMARK       I    between atoms: C_8  and  N_9 
REMARK    3  A    between atoms: N_9  and  C_10 
REMARK    4  A    between atoms: C_15  and  N_16 
REMARK       I    between atoms: N_16  and  C_17 
REMARK    5  A    between atoms: C_17  and  C_18 
ROOT
HETATM    1  C   UNL     1       8.361  29.907  58.578  1.00  0.00     0.059 A 
HETATM    2  C   UNL     1       9.418  30.408  57.800  1.00  0.00     0.060 A 
HETATM    3 CL   UNL     1      10.507  31.644  58.333  1.00  0.00    -0.082 Cl
HETATM    4  C   UNL     1       9.751  29.780  56.595  1.00  0.00     0.028 A 
HETATM    5  C   UNL     1       9.074  28.633  56.174  1.00  0.00     0.031 A 
HETATM    6  C   UNL     1       8.069  28.081  56.962  1.00  0.00     0.036 A 
HETATM    7  C   UNL     1       7.720  28.724  58.161  1.00  0.00     0.060 A 
ENDROOT
BRANCH   1   8
HETATM    8  N   UNL     1       7.910  30.455  59.804  1.00  0.00    -0.320 N 
HETATM    9  C   UNL     1       7.244  31.657  59.959  1.00  0.00     0.274 C 
HETATM   10  O   UNL     1       6.791  32.329  59.041  1.00  0.00    -0.266 OA
HETATM   11  H   UNL     1       7.837  29.821  60.587  1.00  0.00     0.169 HD
BRANCH   9  12
HETATM   12  C   UNL     1       7.029  32.043  61.333  1.00  0.00     0.120 A 
HETATM   13  N   UNL     1       5.818  31.844  61.942  1.00  0.00    -0.273 N 
HETATM   14  N   UNL     1       5.773  32.250  63.220  1.00  0.00    -0.179 NA
HETATM   15  H   UNL     1       4.987  31.434  61.523  1.00  0.00     0.189 HD
HETATM   16  C   UNL     1       6.992  32.750  63.448  1.00  0.00     0.056 A 
HETATM   17  C   UNL     1       7.813  32.647  62.296  1.00  0.00     0.065 A 
BRANCH  16  18
HETATM   18  C   UNL     1       7.379  33.331  64.772  1.00  0.00     0.056 C 
HETATM   19  C   UNL     1       6.222  33.834  65.624  1.00  0.00     0.011 C 
ENDBRANCH  16  18
ENDBRANCH   9  12
ENDBRANCH   1   8
BRANCH   6  20
HETATM   20  N   UNL     1       7.375  26.894  56.638  1.00  0.00    -0.327 N 
HETATM   21  C   UNL     1       7.581  25.630  57.163  1.00  0.00     0.221 C 
HETATM   22  O   UNL     1       8.428  25.308  57.991  1.00  0.00    -0.273 OA
HETATM   23  H   UNL     1       6.622  26.984  55.968  1.00  0.00     0.169 HD
BRANCH  21  24
HETATM   24  C   UNL     1       6.613  24.600  56.611  1.00  0.00     0.098 C 
HETATM   25  C   UNL     1       7.187  23.882  55.405  1.00  0.00     0.014 C 
ENDBRANCH  21  24
ENDBRANCH   6  20
TORSDOF 5
ENDMDL
MODEL 4
REMARK VINA RESULT:      -7.8      5.936      8.346
REMARK  5 active torsions:
REMARK  status: ('A' for Active; 'I' for Inactive)
REMARK    1  A    between atoms: C_2  and  C_3 
REMARK    2  A    between atoms: C_7  and  C_8 
REMARK       I    between atoms: C_8  and  N_9 
REMARK    3  A    between atoms: N_9  and  C_10 
REMARK    4  A    between atoms: C_15  and  N_16 
REMARK       I    between atoms: N_16  and  C_17 
REMARK    5  A    between atoms: C_17  and  C_18 
ROOT
HETATM    1  C   UNL     1       5.731  26.346  52.125  1.00  0.00     0.059 A 
HETATM    2  C   UNL     1       6.068  27.678  52.417  1.00  0.00     0.060 A 
HETATM    3 CL   UNL     1       7.311  28.137  53.531  1.00  0.00    -0.082 Cl
HETATM    4  C   UNL     1       5.514  28.716  51.660  1.00  0.00     0.028 A 
HETATM    5  C   UNL     1       4.663  28.444  50.586  1.00  0.00     0.031 A 
HETATM    6  C   UNL     1       4.369  27.129  50.237  1.00  0.00     0.036 A 
HETATM    7  C   UNL     1       4.907  26.088  51.012  1.00  0.00     0.060 A 
ENDROOT
BRANCH   1   8
HETATM    8  N   UNL     1       6.203  25.206  52.822  1.00  0.00    -0.320 N 
HETATM    9  C   UNL     1       7.445  24.618  52.665  1.00  0.00     0.274 C 
HETATM   10  O   UNL     1       8.376  25.106  52.037  1.00  0.00    -0.266 OA
HETATM   11  H   UNL     1       5.712  24.953  53.667  1.00  0.00     0.169 HD
BRANCH   9  12
HETATM   12  C   UNL     1       7.612  23.383  53.394  1.00  0.00     0.120 A 
HETATM   13  N   UNL     1       7.898  22.211  52.744  1.00  0.00    -0.273 N 
HETATM   14  N   UNL     1       8.029  21.151  53.556  1.00  0.00    -0.179 NA
HETATM   15  H   UNL     1       8.012  22.085  51.742  1.00  0.00     0.189 HD
HETATM   16  C   UNL     1       7.801  21.644  54.778  1.00  0.00     0.056 A 
HETATM   17  C   UNL     1       7.531  23.036  54.728  1.00  0.00     0.065 A 
BRANCH  16  18
HETATM   18  C   UNL     1       7.839  20.785  56.003  1.00  0.00     0.056 C 
HETATM   19  C   UNL     1       9.218  20.274  56.396  1.00  0.00     0.011 C 
ENDBRANCH  16  18
ENDBRANCH   9  12
ENDBRANCH   1   8
BRANCH   6  20
HETATM   20  N   UNL     1       3.564  26.766  49.135  1.00  0.00    -0.327 N 
HETATM   21  C   UNL     1       3.987  26.455  47.853  1.00  0.00     0.221 C 
HETATM   22  O   UNL     1       5.140  26.466  47.438  1.00  0.00    -0.273 OA
HETATM   23  H   UNL     1       2.570  26.697  49.309  1.00  0.00     0.169 HD
BRANCH  21  24
HETATM   24  C   UNL     1       2.841  26.066  46.937  1.00  0.00     0.098 C 
HETATM   25  C   UNL     1       1.595  26.883  47.221  1.00  0.00     0.014 C 
ENDBRANCH  21  24
ENDBRANCH   6  20
TORSDOF 5
ENDMDL
MODEL 5
REMARK VINA RESULT:      -7.7      6.515      9.264
REMARK  5 active torsions:
REMARK  status: ('A' for Active; 'I' for Inactive)
REMARK    1  A    between atoms: C_2  and  C_3 
REMARK    2  A    between atoms: C_7  and  C_8 
REMARK       I    between atoms: C_8  and  N_9 
REMARK    3  A    between atoms: N_9  and  C_10 
REMARK    4  A    between atoms: C_15  and  N_16 
REMARK       I    between atoms: N_16  and  C_17 
REMARK    5  A    between atoms: C_17  and  C_18 
ROOT
HETATM    1  C   UNL     1       5.189  25.683  52.069  1.00  0.00     0.059 A 
HETATM    2  C   UNL     1       5.058  26.565  53.155  1.00  0.00     0.060 A 
HETATM    3 CL   UNL     1       3.844  27.795  53.258  1.00  0.00    -0.082 Cl
HETATM    4  C   UNL     1       5.817  26.360  54.312  1.00  0.00     0.028 A 
HETATM    5  C   UNL     1       6.674  25.261  54.422  1.00  0.00     0.031 A 
HETATM    6  C   UNL     1       6.768  24.338  53.385  1.00  0.00     0.036 A 
HETATM    7  C   UNL     1       6.023  24.557  52.215  1.00  0.00     0.060 A 
ENDROOT
BRANCH   1   8
HETATM    8  N   UNL     1       4.497  25.784  50.837  1.00  0.00    -0.320 N 
HETATM    9  C   UNL     1       4.632  26.804  49.914  1.00  0.00     0.274 C 
HETATM   10  O   UNL     1       5.501  27.667  49.946  1.00  0.00    -0.266 OA
HETATM   11  H   UNL     1       4.068  24.941  50.486  1.00  0.00     0.169 HD
BRANCH   9  12
HETATM   12  C   UNL     1       3.701  26.734  48.813  1.00  0.00     0.120 A 
HETATM   13  N   UNL     1       3.896  25.860  47.776  1.00  0.00    -0.273 N 
HETATM   14  N   UNL     1       2.945  25.909  46.831  1.00  0.00    -0.179 NA
HETATM   15  H   UNL     1       4.669  25.208  47.668  1.00  0.00     0.189 HD
HETATM   16  C   UNL     1       2.109  26.862  47.256  1.00  0.00     0.056 A 
HETATM   17  C   UNL     1       2.542  27.412  48.490  1.00  0.00     0.065 A 
BRANCH  16  18
HETATM   18  C   UNL     1       0.889  27.255  46.482  1.00  0.00     0.056 C 
HETATM   19  C   UNL     1       0.385  28.668  46.737  1.00  0.00     0.011 C 
ENDBRANCH  16  18
ENDBRANCH   9  12
ENDBRANCH   1   8
BRANCH   6  20
HETATM   20  N   UNL     1       7.566  23.173  53.437  1.00  0.00    -0.327 N 
HETATM   21  C   UNL     1       7.739  22.321  54.515  1.00  0.00     0.221 C 
HETATM   22  O   UNL     1       7.248  22.442  55.632  1.00  0.00    -0.273 OA
HETATM   23  H   UNL     1       8.040  22.916  52.581  1.00  0.00     0.169 HD
BRANCH  21  24
HETATM   24  C   UNL     1       8.635  21.140  54.190  1.00  0.00     0.098 C 
HETATM   25  C   UNL     1       8.304  20.543  52.835  1.00  0.00     0.014 C 
ENDBRANCH  21  24
ENDBRANCH   6  20
TORSDOF 5
ENDMDL
MODEL 6
REMARK VINA RESULT:      -7.6      6.471      9.598
REMARK  5 active torsions:
REMARK  status: ('A' for Active; 'I' for Inactive)
REMARK    1  A    between atoms: C_2  and  C_3 
REMARK    2  A    between atoms: C_7  and  C_8 
REMARK       I    between atoms: C_8  and  N_9 
REMARK    3  A    between atoms: N_9  and  C_10 
REMARK    4  A    between atoms: C_15  and  N_16 
REMARK       I    between atoms: N_16  and  C_17 
REMARK    5  A    between atoms: C_17  and  C_18 
ROOT
HETATM    1  C   UNL     1       5.703  33.787  64.435  1.00  0.00     0.059 A 
HETATM    2  C   UNL     1       4.343  34.134  64.375  1.00  0.00     0.060 A 
HETATM    3 CL   UNL     1       3.304  33.739  63.047  1.00  0.00    -0.082 Cl
HETATM    4  C   UNL     1       3.714  34.675  65.501  1.00  0.00     0.028 A 
HETATM    5  C   UNL     1       4.408  34.833  66.703  1.00  0.00     0.031 A 
HETATM    6  C   UNL     1       5.738  34.433  66.804  1.00  0.00     0.036 A 
HETATM    7  C   UNL     1       6.375  33.911  65.666  1.00  0.00     0.060 A 
ENDROOT
BRANCH   1   8
HETATM    8  N   UNL     1       6.463  33.249  63.367  1.00  0.00    -0.320 N 
HETATM    9  C   UNL     1       6.414  31.945  62.913  1.00  0.00     0.274 C 
HETATM   10  O   UNL     1       5.575  31.118  63.250  1.00  0.00    -0.266 OA
HETATM   11  H   UNL     1       6.881  33.910  62.728  1.00  0.00     0.169 HD
BRANCH   9  12
HETATM   12  C   UNL     1       7.398  31.629  61.906  1.00  0.00     0.120 A 
HETATM   13  N   UNL     1       8.051  30.425  61.908  1.00  0.00    -0.273 N 
HETATM   14  N   UNL     1       8.933  30.277  60.908  1.00  0.00    -0.179 NA
HETATM   15  H   UNL     1       7.930  29.669  62.577  1.00  0.00     0.189 HD
HETATM   16  C   UNL     1       8.868  31.434  60.240  1.00  0.00     0.056 A 
HETATM   17  C   UNL     1       7.925  32.314  60.829  1.00  0.00     0.065 A 
BRANCH  16  18
HETATM   18  C   UNL     1       9.711  31.704  59.033  1.00  0.00     0.056 C 
HETATM   19  C   UNL     1       9.957  30.504  58.130  1.00  0.00     0.011 C 
ENDBRANCH  16  18
ENDBRANCH   9  12
ENDBRANCH   1   8
BRANCH   6  20
HETATM   20  N   UNL     1       6.494  34.507  67.994  1.00  0.00    -0.327 N 
HETATM   21  C   UNL     1       6.155  34.002  69.239  1.00  0.00     0.221 C 
HETATM   22  O   UNL     1       5.116  33.421  69.536  1.00  0.00    -0.273 OA
HETATM   23  H   UNL     1       7.400  34.952  67.923  1.00  0.00     0.169 HD
BRANCH  21  24
HETATM   24  C   UNL     1       7.237  34.228  70.278  1.00  0.00     0.098 C 
HETATM   25  C   UNL     1       8.459  34.896  69.677  1.00  0.00     0.014 C 
ENDBRANCH  21  24
ENDBRANCH   6  20
TORSDOF 5
ENDMDL
MODEL 7
REMARK VINA RESULT:      -7.5      2.496      3.367
REMARK  5 active torsions:
REMARK  status: ('A' for Active; 'I' for Inactive)
REMARK    1  A    between atoms: C_2  and  C_3 
REMARK    2  A    between atoms: C_7  and  C_8 
REMARK       I    between atoms: C_8  and  N_9 
REMARK    3  A    between atoms: N_9  and  C_10 
REMARK    4  A    between atoms: C_15  and  N_16 
REMARK       I    between atoms: N_16  and  C_17 
REMARK    5  A    between atoms: C_17  and  C_18 
ROOT
HETATM    1  C   UNL     1       8.346  29.350  57.497  1.00  0.00     0.059 A 
HETATM    2  C   UNL     1       9.641  29.868  57.672  1.00  0.00     0.060 A 
HETATM    3 CL   UNL     1      10.999  29.419  56.698  1.00  0.00    -0.082 Cl
HETATM    4  C   UNL     1       9.848  30.933  58.555  1.00  0.00     0.028 A 
HETATM    5  C   UNL     1       8.778  31.521  59.234  1.00  0.00     0.031 A 
HETATM    6  C   UNL     1       7.479  31.068  59.023  1.00  0.00     0.036 A 
HETATM    7  C   UNL     1       7.273  29.984  58.154  1.00  0.00     0.060 A 
ENDROOT
BRANCH   1   8
HETATM    8  N   UNL     1       8.000  28.267  56.651  1.00  0.00    -0.320 N 
HETATM    9  C   UNL     1       7.878  26.945  57.036  1.00  0.00     0.274 C 
HETATM   10  O   UNL     1       7.873  26.552  58.197  1.00  0.00    -0.266 OA
HETATM   11  H   UNL     1       7.566  28.499  55.770  1.00  0.00     0.169 HD
BRANCH   9  12
HETATM   12  C   UNL     1       7.656  26.028  55.945  1.00  0.00     0.120 A 
HETATM   13  N   UNL     1       7.131  26.457  54.755  1.00  0.00    -0.273 N 
HETATM   14  N   UNL     1       6.989  25.489  53.837  1.00  0.00    -0.179 NA
HETATM   15  H   UNL     1       6.851  27.406  54.521  1.00  0.00     0.189 HD
HETATM   16  C   UNL     1       7.418  24.384  54.456  1.00  0.00     0.056 A 
HETATM   17  C   UNL     1       7.842  24.669  55.779  1.00  0.00     0.065 A 
BRANCH  16  18
HETATM   18  C   UNL     1       7.423  23.046  53.784  1.00  0.00     0.056 C 
HETATM   19  C   UNL     1       8.727  22.269  53.896  1.00  0.00     0.011 C 
ENDBRANCH  16  18
ENDBRANCH   9  12
ENDBRANCH   1   8
BRANCH   6  20
HETATM   20  N   UNL     1       6.337  31.641  59.625  1.00  0.00    -0.327 N 
HETATM   21  C   UNL     1       5.518  32.628  59.102  1.00  0.00     0.221 C 
HETATM   22  O   UNL     1       5.655  33.202  58.028  1.00  0.00    -0.273 OA
HETATM   23  H   UNL     1       6.070  31.268  60.527  1.00  0.00     0.169 HD
BRANCH  21  24
HETATM   24  C   UNL     1       4.353  32.966  60.014  1.00  0.00     0.098 C 
HETATM   25  C   UNL     1       3.330  31.846  60.053  1.00  0.00     0.014 C 
ENDBRANCH  21  24
ENDBRANCH   6  20
TORSDOF 5
ENDMDL
MODEL 8
REMARK VINA RESULT:      -7.2      4.321      8.005
REMARK  5 active torsions:
REMARK  status: ('A' for Active; 'I' for Inactive)
REMARK    1  A    between atoms: C_2  and  C_3 
REMARK    2  A    between atoms: C_7  and  C_8 
REMARK       I    between atoms: C_8  and  N_9 
REMARK    3  A    between atoms: N_9  and  C_10 
REMARK    4  A    between atoms: C_15  and  N_16 
REMARK       I    between atoms: N_16  and  C_17 
REMARK    5  A    between atoms: C_17  and  C_18 
ROOT
HETATM    1  C   UNL     1       6.864  26.251  54.654  1.00  0.00     0.059 A 
HETATM    2  C   UNL     1       6.891  26.648  56.002  1.00  0.00     0.060 A 
HETATM    3 CL   UNL     1       6.405  28.214  56.556  1.00  0.00    -0.082 Cl
HETATM    4  C   UNL     1       7.150  25.702  56.999  1.00  0.00     0.028 A 
HETATM    5  C   UNL     1       7.341  24.356  56.677  1.00  0.00     0.031 A 
HETATM    6  C   UNL     1       7.252  23.930  55.355  1.00  0.00     0.036 A 
HETATM    7  C   UNL     1       7.014  24.884  54.352  1.00  0.00     0.060 A 
ENDROOT
BRANCH   1   8
HETATM    8  N   UNL     1       6.632  27.107  53.548  1.00  0.00    -0.320 N 
HETATM    9  C   UNL     1       5.394  27.481  53.060  1.00  0.00     0.274 C 
HETATM   10  O   UNL     1       4.327  27.273  53.624  1.00  0.00    -0.266 OA
HETATM   11  H   UNL     1       7.403  27.686  53.251  1.00  0.00     0.169 HD
BRANCH   9  12
HETATM   12  C   UNL     1       5.446  28.245  51.836  1.00  0.00     0.120 A 
HETATM   13  N   UNL     1       5.732  29.584  51.849  1.00  0.00    -0.273 N 
HETATM   14  N   UNL     1       5.748  30.154  50.634  1.00  0.00    -0.179 NA
HETATM   15  H   UNL     1       5.922  30.157  52.667  1.00  0.00     0.189 HD
HETATM   16  C   UNL     1       5.442  29.155  49.799  1.00  0.00     0.056 A 
HETATM   17  C   UNL     1       5.239  27.941  50.505  1.00  0.00     0.065 A 
BRANCH  16  18
HETATM   18  C   UNL     1       5.339  29.357  48.320  1.00  0.00     0.056 C 
HETATM   19  C   UNL     1       5.143  28.087  47.503  1.00  0.00     0.011 C 
ENDBRANCH  16  18
ENDBRANCH   9  12
ENDBRANCH   1   8
BRANCH   6  20
HETATM   20  N   UNL     1       7.376  22.582  54.951  1.00  0.00    -0.327 N 
HETATM   21  C   UNL     1       8.540  21.839  54.851  1.00  0.00     0.221 C 
HETATM   22  O   UNL     1       9.682  22.230  55.071  1.00  0.00    -0.273 OA
HETATM   23  H   UNL     1       6.514  22.096  54.740  1.00  0.00     0.169 HD
BRANCH  21  24
HETATM   24  C   UNL     1       8.284  20.404  54.428  1.00  0.00     0.098 C 
HETATM   25  C   UNL     1       8.394  20.235  52.925  1.00  0.00     0.014 C 
ENDBRANCH  21  24
ENDBRANCH   6  20
TORSDOF 5
ENDMDL
MODEL 9
REMARK VINA RESULT:      -7.2      5.033      8.139
REMARK  5 active torsions:
REMARK  status: ('A' for Active; 'I' for Inactive)
REMARK    1  A    between atoms: C_2  and  C_3 
REMARK    2  A    between atoms: C_7  and  C_8 
REMARK       I    between atoms: C_8  and  N_9 
REMARK    3  A    between atoms: N_9  and  C_10 
REMARK    4  A    between atoms: C_15  and  N_16 
REMARK       I    between atoms: N_16  and  C_17 
REMARK    5  A    between atoms: C_17  and  C_18 
ROOT
HETATM    1  C   UNL     1       6.910  26.037  53.778  1.00  0.00     0.059 A 
HETATM    2  C   UNL     1       7.184  26.850  54.891  1.00  0.00     0.060 A 
HETATM    3 CL   UNL     1       6.797  28.536  54.972  1.00  0.00    -0.082 Cl
HETATM    4  C   UNL     1       7.632  26.269  56.082  1.00  0.00     0.028 A 
HETATM    5  C   UNL     1       7.770  24.884  56.196  1.00  0.00     0.031 A 
HETATM    6  C   UNL     1       7.440  24.055  55.127  1.00  0.00     0.036 A 
HETATM    7  C   UNL     1       7.012  24.640  53.925  1.00  0.00     0.060 A 
ENDROOT
BRANCH   1   8
HETATM    8  N   UNL     1       6.469  26.495  52.511  1.00  0.00    -0.320 N 
HETATM    9  C   UNL     1       5.172  26.838  52.181  1.00  0.00     0.274 C 
HETATM   10  O   UNL     1       4.255  26.967  52.983  1.00  0.00    -0.266 OA
HETATM   11  H   UNL     1       7.178  26.839  51.880  1.00  0.00     0.169 HD
BRANCH   9  12
HETATM   12  C   UNL     1       4.975  27.134  50.782  1.00  0.00     0.120 A 
HETATM   13  N   UNL     1       4.306  26.265  49.961  1.00  0.00    -0.273 N 
HETATM   14  N   UNL     1       4.200  26.681  48.690  1.00  0.00    -0.179 NA
HETATM   15  H   UNL     1       3.903  25.369  50.224  1.00  0.00     0.189 HD
HETATM   16  C   UNL     1       4.839  27.856  48.675  1.00  0.00     0.056 A 
HETATM   17  C   UNL     1       5.346  28.180  49.960  1.00  0.00     0.065 A 
BRANCH  16  18
HETATM   18  C   UNL     1       4.971  28.675  47.430  1.00  0.00     0.056 C 
HETATM   19  C   UNL     1       3.862  29.692  47.201  1.00  0.00     0.011 C 
ENDBRANCH  16  18
ENDBRANCH   9  12
ENDBRANCH   1   8
BRANCH   6  20
HETATM   20  N   UNL     1       7.498  22.644  55.178  1.00  0.00    -0.327 N 
HETATM   21  C   UNL     1       8.306  21.809  54.425  1.00  0.00     0.221 C 
HETATM   22  O   UNL     1       9.101  22.146  53.555  1.00  0.00    -0.273 OA
HETATM   23  H   UNL     1       6.903  22.196  55.863  1.00  0.00     0.169 HD
BRANCH  21  24
HETATM   24  C   UNL     1       8.130  20.345  54.784  1.00  0.00     0.098 C 
HETATM   25  C   UNL     1       8.287  20.112  56.274  1.00  0.00     0.014 C 
ENDBRANCH  21  24
ENDBRANCH   6  20
TORSDOF 5
ENDMDL
MODEL 10
REMARK VINA RESULT:      -7.1      4.295      6.607
REMARK  5 active torsions:
REMARK  status: ('A' for Active; 'I' for Inactive)
REMARK    1  A    between atoms: C_2  and  C_3 
REMARK    2  A    between atoms: C_7  and  C_8 
REMARK       I    between atoms: C_8  and  N_9 
REMARK    3  A    between atoms: N_9  and  C_10 
REMARK    4  A    between atoms: C_15  and  N_16 
REMARK       I    between atoms: N_16  and  C_17 
REMARK    5  A    between atoms: C_17  and  C_18 
ROOT
HETATM    1  C   UNL     1       7.317  31.507  61.558  1.00  0.00     0.059 A 
HETATM    2  C   UNL     1       8.408  31.978  62.309  1.00  0.00     0.060 A 
HETATM    3 CL   UNL     1      10.055  31.874  61.786  1.00  0.00    -0.082 Cl
HETATM    4  C   UNL     1       8.181  32.733  63.464  1.00  0.00     0.028 A 
HETATM    5  C   UNL     1       6.883  33.065  63.860  1.00  0.00     0.031 A 
HETATM    6  C   UNL     1       5.791  32.666  63.094  1.00  0.00     0.036 A 
HETATM    7  C   UNL     1       6.018  31.889  61.947  1.00  0.00     0.060 A 
ENDROOT
BRANCH   1   8
HETATM    8  N   UNL     1       7.405  30.720  60.383  1.00  0.00    -0.320 N 
HETATM    9  C   UNL     1       7.353  31.193  59.085  1.00  0.00     0.274 C 
HETATM   10  O   UNL     1       7.406  32.375  58.769  1.00  0.00    -0.266 OA
HETATM   11  H   UNL     1       7.784  29.790  60.486  1.00  0.00     0.169 HD
BRANCH   9  12
HETATM   12  C   UNL     1       7.321  30.160  58.078  1.00  0.00     0.120 A 
HETATM   13  N   UNL     1       8.056  29.012  58.218  1.00  0.00    -0.273 N 
HETATM   14  N   UNL     1       7.919  28.146  57.203  1.00  0.00    -0.179 NA
HETATM   15  H   UNL     1       8.672  28.776  58.992  1.00  0.00     0.189 HD
HETATM   16  C   UNL     1       7.079  28.757  56.361  1.00  0.00     0.056 A 
HETATM   17  C   UNL     1       6.680  30.022  56.863  1.00  0.00     0.065 A 
BRANCH  16  18
HETATM   18  C   UNL     1       6.654  28.134  55.068  1.00  0.00     0.056 C 
HETATM   19  C   UNL     1       7.750  28.000  54.020  1.00  0.00     0.011 C 
ENDBRANCH  16  18
ENDBRANCH   9  12
ENDBRANCH   1   8
BRANCH   6  20
HETATM   20  N   UNL     1       4.453  33.006  63.393  1.00  0.00    -0.327 N 
HETATM   21  C   UNL     1       3.740  34.098  62.927  1.00  0.00     0.221 C 
HETATM   22  O   UNL     1       4.155  34.985  62.190  1.00  0.00    -0.273 OA
HETATM   23  H   UNL     1       3.950  32.362  63.989  1.00  0.00     0.169 HD
BRANCH  21  24
HETATM   24  C   UNL     1       2.306  34.115  63.423  1.00  0.00     0.098 C 
HETATM   25  C   UNL     1       1.342  34.542  62.333  1.00  0.00     0.014 C 
ENDBRANCH  21  24
ENDBRANCH   6  20
TORSDOF 5
ENDMDL
