MODEL 1
REMARK VINA RESULT:      -9.4      0.000      0.000
REMARK  6 active torsions:
REMARK  status: ('A' for Active; 'I' for Inactive)
REMARK       I    between atoms: C_2  and  N_3 
REMARK    1  A    between atoms: N_3  and  C_4 
REMARK    2  A    between atoms: C_4  and  C_5 
REMARK    3  A    between atoms: C_4  and  C_11 
REMARK    4  A    between atoms: C_11  and  C_12 
REMARK       I    between atoms: C_12  and  N_13 
REMARK    5  A    between atoms: N_13  and  C_14 
REMARK    6  A    between atoms: C_16  and  C_17 
ROOT
HETATM    1  C   UNL     1       7.569  26.098  57.257  1.00  0.00     0.224 C 
HETATM    2  N   UNL     1       7.485  27.418  56.887  1.00  0.00    -0.327 N 
HETATM    3  O   UNL     1       8.286  25.648  58.151  1.00  0.00    -0.273 OA
HETATM    4  H   UNL     1       6.755  27.666  56.214  1.00  0.00     0.169 HD
ENDROOT
BRANCH   1   5
HETATM    5  C   UNL     1       6.744  25.138  56.415  1.00  0.00     0.133 C 
BRANCH   5   6
HETATM    6  C   UNL     1       7.212  24.791  54.988  1.00  0.00     0.126 C 
BRANCH   6   7
HETATM    7  N   UNL     1       6.458  25.513  53.954  1.00  0.00    -0.352 N 
HETATM    8  C   UNL     1       6.808  26.727  53.422  1.00  0.00     0.214 C 
HETATM    9  C   UNL     1       5.920  27.211  52.310  1.00  0.00     0.117 C 
HETATM   10  O   UNL     1       7.770  27.381  53.811  1.00  0.00    -0.274 OA
HETATM   11  H   UNL     1       5.605  25.075  53.631  1.00  0.00     0.163 HD
ENDBRANCH   6   7
BRANCH   6  12
HETATM   12  C   UNL     1       7.518  23.335  54.671  1.00  0.00    -0.035 A 
HETATM   13  C   UNL     1       7.605  22.341  55.659  1.00  0.00     0.009 A 
HETATM   14  C   UNL     1       7.855  21.007  55.323  1.00  0.00     0.001 A 
HETATM   15  C   UNL     1       8.017  20.640  53.992  1.00  0.00     0.000 A 
HETATM   16  C   UNL     1       7.925  21.605  52.994  1.00  0.00     0.001 A 
HETATM   17  C   UNL     1       7.672  22.938  53.330  1.00  0.00     0.009 A 
ENDBRANCH   6  12
ENDBRANCH   5   6
ENDBRANCH   1   5
BRANCH   2  18
HETATM   18  C   UNL     1       8.274  28.493  57.340  1.00  0.00     0.035 A 
HETATM   19  C   UNL     1       7.964  29.260  58.467  1.00  0.00     0.042 A 
HETATM   20  C   UNL     1       8.836  30.267  58.917  1.00  0.00    -0.021 A 
HETATM   21  C   UNL     1      10.008  30.519  58.193  1.00  0.00     0.012 A 
HETATM   22  C   UNL     1      10.319  29.765  57.061  1.00  0.00     0.003 A 
HETATM   23  C   UNL     1       9.462  28.747  56.648  1.00  0.00     0.029 A 
BRANCH  20  24
HETATM   24  C   UNL     1       8.563  31.007  60.141  1.00  0.00     0.010 A 
HETATM   25  C   UNL     1       9.070  30.841  61.453  1.00  0.00     0.152 A 
HETATM   26  N   UNL     1       8.561  31.717  62.323  1.00  0.00    -0.187 NA
HETATM   27  N   UNL     1       7.719  32.445  61.573  1.00  0.00    -0.289 N 
HETATM   28  H   UNL     1       7.193  33.188  62.021  1.00  0.00     0.188 HD
HETATM   29  C   UNL     1       7.687  32.064  60.264  1.00  0.00     0.123 A 
ENDBRANCH  20  24
ENDBRANCH   2  18
TORSDOF 6
ENDMDL
MODEL 2
REMARK VINA RESULT:      -8.9      4.235      8.810
REMARK  6 active torsions:
REMARK  status: ('A' for Active; 'I' for Inactive)
REMARK       I    between atoms: C_2  and  N_3 
REMARK    1  A    between atoms: N_3  and  C_4 
REMARK    2  A    between atoms: C_4  and  C_5 
REMARK    3  A    between atoms: C_4  and  C_11 
REMARK    4  A    between atoms: C_11  and  C_12 
REMARK       I    between atoms: C_12  and  N_13 
REMARK    5  A    between atoms: N_13  and  C_14 
REMARK    6  A    between atoms: C_16  and  C_17 
ROOT
HETATM    1  C   UNL     1       5.940  25.240  52.175  1.00  0.00     0.224 C 
HETATM    2  N   UNL     1       6.170  26.083  51.116  1.00  0.00    -0.327 N 
HETATM    3  O   UNL     1       4.864  25.095  52.757  1.00  0.00    -0.273 OA
HETATM    4  H   UNL     1       7.077  26.007  50.651  1.00  0.00     0.169 HD
ENDROOT
BRANCH   1   5
HETATM    5  C   UNL     1       7.164  24.497  52.685  1.00  0.00     0.133 C 
BRANCH   5   6
HETATM    6  C   UNL     1       7.145  23.894  54.104  1.00  0.00     0.126 C 
BRANCH   6   7
HETATM    7  N   UNL     1       7.525  24.867  55.136  1.00  0.00    -0.352 N 
HETATM    8  C   UNL     1       6.678  25.396  56.076  1.00  0.00     0.214 C 
HETATM    9  C   UNL     1       7.334  26.302  57.081  1.00  0.00     0.117 C 
HETATM   10  O   UNL     1       5.476  25.159  56.108  1.00  0.00    -0.274 OA
HETATM   11  H   UNL     1       8.490  25.176  55.131  1.00  0.00     0.163 HD
ENDBRANCH   6   7
BRANCH   6  12
HETATM   12  C   UNL     1       7.707  22.493  54.292  1.00  0.00    -0.035 A 
HETATM   13  C   UNL     1       7.764  21.855  55.541  1.00  0.00     0.009 A 
HETATM   14  C   UNL     1       8.257  20.552  55.666  1.00  0.00     0.001 A 
HETATM   15  C   UNL     1       8.696  19.860  54.543  1.00  0.00     0.000 A 
HETATM   16  C   UNL     1       8.640  20.467  53.293  1.00  0.00     0.001 A 
HETATM   17  C   UNL     1       8.144  21.768  53.167  1.00  0.00     0.009 A 
ENDBRANCH   6  12
ENDBRANCH   5   6
ENDBRANCH   1   5
BRANCH   2  18
HETATM   18  C   UNL     1       5.291  27.037  50.567  1.00  0.00     0.035 A 
HETATM   19  C   UNL     1       4.379  26.754  49.546  1.00  0.00     0.042 A 
HETATM   20  C   UNL     1       3.471  27.729  49.097  1.00  0.00    -0.021 A 
HETATM   21  C   UNL     1       3.519  29.009  49.664  1.00  0.00     0.012 A 
HETATM   22  C   UNL     1       4.435  29.303  50.675  1.00  0.00     0.003 A 
HETATM   23  C   UNL     1       5.305  28.316  51.134  1.00  0.00     0.029 A 
BRANCH  20  24
HETATM   24  C   UNL     1       2.459  27.413  48.101  1.00  0.00     0.010 A 
HETATM   25  C   UNL     1       1.121  27.859  47.968  1.00  0.00     0.152 A 
HETATM   26  N   UNL     1       0.494  27.324  46.918  1.00  0.00    -0.187 NA
HETATM   27  N   UNL     1       1.427  26.525  46.374  1.00  0.00    -0.289 N 
HETATM   28  H   UNL     1       1.182  25.991  45.547  1.00  0.00     0.188 HD
HETATM   29  C   UNL     1       2.617  26.547  47.040  1.00  0.00     0.123 A 
ENDBRANCH  20  24
ENDBRANCH   2  18
TORSDOF 6
ENDMDL
MODEL 3
REMARK VINA RESULT:      -8.8      1.691      2.152
REMARK  6 active torsions:
REMARK  status: ('A' for Active; 'I' for Inactive)
REMARK       I    between atoms: C_2  and  N_3 
REMARK    1  A    between atoms: N_3  and  C_4 
REMARK    2  A    between atoms: C_4  and  C_5 
REMARK    3  A    between atoms: C_4  and  C_11 
REMARK    4  A    between atoms: C_11  and  C_12 
REMARK       I    between atoms: C_12  and  N_13 
REMARK    5  A    between atoms: N_13  and  C_14 
REMARK    6  A    between atoms: C_16  and  C_17 
ROOT
HETATM    1  C   UNL     1       7.213  25.631  56.659  1.00  0.00     0.224 C 
HETATM    2  N   UNL     1       7.541  26.925  56.339  1.00  0.00    -0.327 N 
HETATM    3  O   UNL     1       6.300  25.285  57.410  1.00  0.00    -0.273 OA
HETATM    4  H   UNL     1       8.239  27.059  55.604  1.00  0.00     0.169 HD
ENDROOT
BRANCH   1   5
HETATM    5  C   UNL     1       8.129  24.569  56.069  1.00  0.00     0.133 C 
BRANCH   5   6
HETATM    6  C   UNL     1       7.754  23.908  54.729  1.00  0.00     0.126 C 
BRANCH   6   7
HETATM    7  N   UNL     1       6.399  24.260  54.284  1.00  0.00    -0.352 N 
HETATM    8  C   UNL     1       6.093  24.900  53.111  1.00  0.00     0.214 C 
HETATM    9  C   UNL     1       4.622  25.063  52.843  1.00  0.00     0.117 C 
HETATM   10  O   UNL     1       6.941  25.314  52.328  1.00  0.00    -0.274 OA
HETATM   11  H   UNL     1       5.642  24.020  54.912  1.00  0.00     0.163 HD
ENDBRANCH   6   7
BRANCH   6  12
HETATM   12  C   UNL     1       8.151  22.455  54.514  1.00  0.00    -0.035 A 
HETATM   13  C   UNL     1       8.499  21.595  55.568  1.00  0.00     0.009 A 
HETATM   14  C   UNL     1       8.826  20.256  55.331  1.00  0.00     0.001 A 
HETATM   15  C   UNL     1       8.805  19.750  54.036  1.00  0.00     0.000 A 
HETATM   16  C   UNL     1       8.453  20.579  52.977  1.00  0.00     0.001 A 
HETATM   17  C   UNL     1       8.123  21.917  53.214  1.00  0.00     0.009 A 
ENDBRANCH   6  12
ENDBRANCH   5   6
ENDBRANCH   1   5
BRANCH   2  18
HETATM   18  C   UNL     1       7.010  28.109  56.888  1.00  0.00     0.035 A 
HETATM   19  C   UNL     1       7.733  28.970  57.719  1.00  0.00     0.042 A 
HETATM   20  C   UNL     1       7.175  30.179  58.167  1.00  0.00    -0.021 A 
HETATM   21  C   UNL     1       5.860  30.494  57.799  1.00  0.00     0.012 A 
HETATM   22  C   UNL     1       5.129  29.635  56.979  1.00  0.00     0.003 A 
HETATM   23  C   UNL     1       5.709  28.456  56.513  1.00  0.00     0.029 A 
BRANCH  20  24
HETATM   24  C   UNL     1       7.954  31.122  58.957  1.00  0.00     0.010 A 
HETATM   25  C   UNL     1       9.315  31.503  58.862  1.00  0.00     0.152 A 
HETATM   26  N   UNL     1       9.672  32.395  59.789  1.00  0.00    -0.187 NA
HETATM   27  N   UNL     1       8.542  32.586  60.488  1.00  0.00    -0.289 N 
HETATM   28  H   UNL     1       8.561  33.232  61.270  1.00  0.00     0.188 HD
HETATM   29  C   UNL     1       7.487  31.853  60.028  1.00  0.00     0.123 A 
ENDBRANCH  20  24
ENDBRANCH   2  18
TORSDOF 6
ENDMDL
MODEL 4
REMARK VINA RESULT:      -8.6      2.720      8.342
REMARK  6 active torsions:
REMARK  status: ('A' for Active; 'I' for Inactive)
REMARK       I    between atoms: C_2  and  N_3 
REMARK    1  A    between atoms: N_3  and  C_4 
REMARK    2  A    between atoms: C_4  and  C_5 
REMARK    3  A    between atoms: C_4  and  C_11 
REMARK    4  A    between atoms: C_11  and  C_12 
REMARK       I    between atoms: C_12  and  N_13 
REMARK    5  A    between atoms: N_13  and  C_14 
REMARK    6  A    between atoms: C_16  and  C_17 
ROOT
HETATM    1  C   UNL     1       6.282  27.037  55.452  1.00  0.00     0.224 C 
HETATM    2  N   UNL     1       7.397  26.654  54.749  1.00  0.00    -0.327 N 
HETATM    3  O   UNL     1       5.330  26.310  55.741  1.00  0.00    -0.273 OA
HETATM    4  H   UNL     1       8.164  27.329  54.692  1.00  0.00     0.169 HD
ENDROOT
BRANCH   1   5
HETATM    5  C   UNL     1       6.226  28.511  55.821  1.00  0.00     0.133 C 
BRANCH   5   6
HETATM    6  C   UNL     1       6.721  28.961  57.209  1.00  0.00     0.126 C 
BRANCH   6   7
HETATM    7  N   UNL     1       5.704  29.712  57.956  1.00  0.00    -0.352 N 
HETATM    8  C   UNL     1       5.101  30.867  57.531  1.00  0.00     0.214 C 
HETATM    9  C   UNL     1       4.023  31.391  58.438  1.00  0.00     0.117 C 
HETATM   10  O   UNL     1       5.406  31.443  56.492  1.00  0.00    -0.274 OA
HETATM   11  H   UNL     1       5.449  29.344  58.864  1.00  0.00     0.163 HD
ENDBRANCH   6   7
BRANCH   6  12
HETATM   12  C   UNL     1       8.139  29.501  57.320  1.00  0.00    -0.035 A 
HETATM   13  C   UNL     1       9.094  29.353  56.301  1.00  0.00     0.009 A 
HETATM   14  C   UNL     1      10.378  29.894  56.428  1.00  0.00     0.001 A 
HETATM   15  C   UNL     1      10.729  30.599  57.574  1.00  0.00     0.000 A 
HETATM   16  C   UNL     1       9.797  30.768  58.593  1.00  0.00     0.001 A 
HETATM   17  C   UNL     1       8.513  30.231  58.464  1.00  0.00     0.009 A 
ENDBRANCH   6  12
ENDBRANCH   5   6
ENDBRANCH   1   5
BRANCH   2  18
HETATM   18  C   UNL     1       7.631  25.423  54.106  1.00  0.00     0.035 A 
HETATM   19  C   UNL     1       8.001  24.255  54.780  1.00  0.00     0.042 A 
HETATM   20  C   UNL     1       8.139  23.037  54.092  1.00  0.00    -0.021 A 
HETATM   21  C   UNL     1       7.939  23.017  52.706  1.00  0.00     0.012 A 
HETATM   22  C   UNL     1       7.582  24.181  52.025  1.00  0.00     0.003 A 
HETATM   23  C   UNL     1       7.413  25.374  52.726  1.00  0.00     0.029 A 
BRANCH  20  24
HETATM   24  C   UNL     1       8.432  21.800  54.802  1.00  0.00     0.010 A 
HETATM   25  C   UNL     1       8.570  21.540  56.187  1.00  0.00     0.152 A 
HETATM   26  N   UNL     1       8.863  20.264  56.451  1.00  0.00    -0.187 NA
HETATM   27  N   UNL     1       8.921  19.701  55.234  1.00  0.00    -0.289 N 
HETATM   28  H   UNL     1       9.142  18.713  55.170  1.00  0.00     0.188 HD
HETATM   29  C   UNL     1       8.667  20.574  54.217  1.00  0.00     0.123 A 
ENDBRANCH  20  24
ENDBRANCH   2  18
TORSDOF 6
ENDMDL
MODEL 5
REMARK VINA RESULT:      -8.4      5.276      8.989
REMARK  6 active torsions:
REMARK  status: ('A' for Active; 'I' for Inactive)
REMARK       I    between atoms: C_2  and  N_3 
REMARK    1  A    between atoms: N_3  and  C_4 
REMARK    2  A    between atoms: C_4  and  C_5 
REMARK    3  A    between atoms: C_4  and  C_11 
REMARK    4  A    between atoms: C_11  and  C_12 
REMARK       I    between atoms: C_12  and  N_13 
REMARK    5  A    between atoms: N_13  and  C_14 
REMARK    6  A    between atoms: C_16  and  C_17 
ROOT
HETATM    1  C   UNL     1       5.515  25.746  51.852  1.00  0.00     0.224 C 
HETATM    2  N   UNL     1       6.478  25.914  52.815  1.00  0.00    -0.327 N 
HETATM    3  O   UNL     1       4.646  24.873  51.850  1.00  0.00    -0.273 OA
HETATM    4  H   UNL     1       7.054  26.757  52.754  1.00  0.00     0.169 HD
ENDROOT
BRANCH   1   5
HETATM    5  C   UNL     1       5.614  26.695  50.668  1.00  0.00     0.133 C 
BRANCH   5   6
HETATM    6  C   UNL     1       4.344  27.404  50.160  1.00  0.00     0.126 C 
BRANCH   6   7
HETATM    7  N   UNL     1       3.549  26.562  49.256  1.00  0.00    -0.352 N 
HETATM    8  C   UNL     1       3.950  26.133  48.017  1.00  0.00     0.214 C 
HETATM    9  C   UNL     1       2.991  25.203  47.328  1.00  0.00     0.117 C 
HETATM   10  O   UNL     1       5.007  26.472  47.497  1.00  0.00    -0.274 OA
HETATM   11  H   UNL     1       2.627  26.299  49.580  1.00  0.00     0.163 HD
ENDBRANCH   6   7
BRANCH   6  12
HETATM   12  C   UNL     1       4.456  28.866  49.756  1.00  0.00    -0.035 A 
HETATM   13  C   UNL     1       5.666  29.577  49.788  1.00  0.00     0.009 A 
HETATM   14  C   UNL     1       5.734  30.911  49.375  1.00  0.00     0.001 A 
HETATM   15  C   UNL     1       4.593  31.559  48.916  1.00  0.00     0.000 A 
HETATM   16  C   UNL     1       3.384  30.873  48.864  1.00  0.00     0.001 A 
HETATM   17  C   UNL     1       3.317  29.539  49.273  1.00  0.00     0.009 A 
ENDBRANCH   6  12
ENDBRANCH   5   6
ENDBRANCH   1   5
BRANCH   2  18
HETATM   18  C   UNL     1       6.760  25.073  53.909  1.00  0.00     0.035 A 
HETATM   19  C   UNL     1       7.189  23.748  53.777  1.00  0.00     0.042 A 
HETATM   20  C   UNL     1       7.535  22.985  54.906  1.00  0.00    -0.021 A 
HETATM   21  C   UNL     1       7.406  23.561  56.176  1.00  0.00     0.012 A 
HETATM   22  C   UNL     1       6.968  24.878  56.316  1.00  0.00     0.003 A 
HETATM   23  C   UNL     1       6.663  25.634  55.186  1.00  0.00     0.029 A 
BRANCH  20  24
HETATM   24  C   UNL     1       8.068  21.638  54.769  1.00  0.00     0.010 A 
HETATM   25  C   UNL     1       8.387  20.883  53.614  1.00  0.00     0.152 A 
HETATM   26  N   UNL     1       8.844  19.661  53.900  1.00  0.00    -0.187 NA
HETATM   27  N   UNL     1       8.814  19.624  55.241  1.00  0.00    -0.289 N 
HETATM   28  H   UNL     1       9.115  18.775  55.708  1.00  0.00     0.188 HD
HETATM   29  C   UNL     1       8.364  20.781  55.808  1.00  0.00     0.123 A 
ENDBRANCH  20  24
ENDBRANCH   2  18
TORSDOF 6
ENDMDL
MODEL 6
REMARK VINA RESULT:      -8.3      2.881      3.764
REMARK  6 active torsions:
REMARK  status: ('A' for Active; 'I' for Inactive)
REMARK       I    between atoms: C_2  and  N_3 
REMARK    1  A    between atoms: N_3  and  C_4 
REMARK    2  A    between atoms: C_4  and  C_5 
REMARK    3  A    between atoms: C_4  and  C_11 
REMARK    4  A    between atoms: C_11  and  C_12 
REMARK       I    between atoms: C_12  and  N_13 
REMARK    5  A    between atoms: N_13  and  C_14 
REMARK    6  A    between atoms: C_16  and  C_17 
ROOT
HETATM    1  C   UNL     1       6.292  25.486  56.684  1.00  0.00     0.224 C 
HETATM    2  N   UNL     1       7.067  26.585  56.410  1.00  0.00    -0.327 N 
HETATM    3  O   UNL     1       5.191  25.502  57.236  1.00  0.00    -0.273 OA
HETATM    4  H   UNL     1       7.899  26.434  55.835  1.00  0.00     0.169 HD
ENDROOT
BRANCH   1   5
HETATM    5  C   UNL     1       6.919  24.148  56.324  1.00  0.00     0.133 C 
BRANCH   5   6
HETATM    6  C   UNL     1       7.188  23.814  54.844  1.00  0.00     0.126 C 
BRANCH   6   7
HETATM    7  N   UNL     1       6.146  24.333  53.949  1.00  0.00    -0.352 N 
HETATM    8  C   UNL     1       6.257  25.458  53.174  1.00  0.00     0.214 C 
HETATM    9  C   UNL     1       5.083  25.725  52.272  1.00  0.00     0.117 C 
HETATM   10  O   UNL     1       7.232  26.201  53.201  1.00  0.00    -0.274 OA
HETATM   11  H   UNL     1       5.275  23.817  53.925  1.00  0.00     0.163 HD
ENDBRANCH   6   7
BRANCH   6  12
HETATM   12  C   UNL     1       7.700  22.421  54.508  1.00  0.00    -0.035 A 
HETATM   13  C   UNL     1       7.937  21.991  53.193  1.00  0.00     0.009 A 
HETATM   14  C   UNL     1       8.440  20.713  52.929  1.00  0.00     0.001 A 
HETATM   15  C   UNL     1       8.722  19.843  53.976  1.00  0.00     0.000 A 
HETATM   16  C   UNL     1       8.506  20.249  55.288  1.00  0.00     0.001 A 
HETATM   17  C   UNL     1       8.006  21.528  55.553  1.00  0.00     0.009 A 
ENDBRANCH   6  12
ENDBRANCH   5   6
ENDBRANCH   1   5
BRANCH   2  18
HETATM   18  C   UNL     1       6.845  27.918  56.808  1.00  0.00     0.035 A 
HETATM   19  C   UNL     1       5.812  28.714  56.306  1.00  0.00     0.042 A 
HETATM   20  C   UNL     1       5.591  30.010  56.804  1.00  0.00    -0.021 A 
HETATM   21  C   UNL     1       6.452  30.511  57.790  1.00  0.00     0.012 A 
HETATM   22  C   UNL     1       7.492  29.726  58.287  1.00  0.00     0.003 A 
HETATM   23  C   UNL     1       7.676  28.430  57.809  1.00  0.00     0.029 A 
BRANCH  20  24
HETATM   24  C   UNL     1       4.462  30.809  56.351  1.00  0.00     0.010 A 
HETATM   25  C   UNL     1       3.084  30.724  56.666  1.00  0.00     0.152 A 
HETATM   26  N   UNL     1       2.346  31.635  56.028  1.00  0.00    -0.187 NA
HETATM   27  N   UNL     1       3.248  32.306  55.294  1.00  0.00    -0.289 N 
HETATM   28  H   UNL     1       2.921  33.062  54.701  1.00  0.00     0.188 HD
HETATM   29  C   UNL     1       4.525  31.855  55.455  1.00  0.00     0.123 A 
ENDBRANCH  20  24
ENDBRANCH   2  18
TORSDOF 6
ENDMDL
MODEL 7
REMARK VINA RESULT:      -8.3      3.972      7.989
REMARK  6 active torsions:
REMARK  status: ('A' for Active; 'I' for Inactive)
REMARK       I    between atoms: C_2  and  N_3 
REMARK    1  A    between atoms: N_3  and  C_4 
REMARK    2  A    between atoms: C_4  and  C_5 
REMARK    3  A    between atoms: C_4  and  C_11 
REMARK    4  A    between atoms: C_11  and  C_12 
REMARK       I    between atoms: C_12  and  N_13 
REMARK    5  A    between atoms: N_13  and  C_14 
REMARK    6  A    between atoms: C_16  and  C_17 
ROOT
HETATM    1  C   UNL     1       6.271  26.126  51.952  1.00  0.00     0.224 C 
HETATM    2  N   UNL     1       5.878  25.999  50.643  1.00  0.00    -0.327 N 
HETATM    3  O   UNL     1       5.932  27.027  52.719  1.00  0.00    -0.273 OA
HETATM    4  H   UNL     1       6.135  25.133  50.163  1.00  0.00     0.169 HD
ENDROOT
BRANCH   1   5
HETATM    5  C   UNL     1       7.268  25.082  52.431  1.00  0.00     0.133 C 
BRANCH   5   6
HETATM    6  C   UNL     1       7.126  24.497  53.849  1.00  0.00     0.126 C 
BRANCH   6   7
HETATM    7  N   UNL     1       7.571  25.430  54.893  1.00  0.00    -0.352 N 
HETATM    8  C   UNL     1       6.777  25.947  55.883  1.00  0.00     0.214 C 
HETATM    9  C   UNL     1       7.494  26.808  56.886  1.00  0.00     0.117 C 
HETATM   10  O   UNL     1       5.572  25.734  55.961  1.00  0.00    -0.274 OA
HETATM   11  H   UNL     1       8.541  25.719  54.855  1.00  0.00     0.163 HD
ENDBRANCH   6   7
BRANCH   6  12
HETATM   12  C   UNL     1       7.520  23.044  54.065  1.00  0.00    -0.035 A 
HETATM   13  C   UNL     1       7.525  22.433  55.330  1.00  0.00     0.009 A 
HETATM   14  C   UNL     1       7.862  21.085  55.481  1.00  0.00     0.001 A 
HETATM   15  C   UNL     1       8.194  20.318  54.370  1.00  0.00     0.000 A 
HETATM   16  C   UNL     1       8.186  20.897  53.105  1.00  0.00     0.001 A 
HETATM   17  C   UNL     1       7.846  22.244  52.953  1.00  0.00     0.009 A 
ENDBRANCH   6  12
ENDBRANCH   5   6
ENDBRANCH   1   5
BRANCH   2  18
HETATM   18  C   UNL     1       5.135  26.914  49.872  1.00  0.00     0.035 A 
HETATM   19  C   UNL     1       5.447  28.273  49.769  1.00  0.00     0.042 A 
HETATM   20  C   UNL     1       4.715  29.119  48.918  1.00  0.00    -0.021 A 
HETATM   21  C   UNL     1       3.637  28.587  48.199  1.00  0.00     0.012 A 
HETATM   22  C   UNL     1       3.312  27.235  48.307  1.00  0.00     0.003 A 
HETATM   23  C   UNL     1       4.069  26.400  49.127  1.00  0.00     0.029 A 
BRANCH  20  24
HETATM   24  C   UNL     1       5.093  30.513  48.736  1.00  0.00     0.010 A 
HETATM   25  C   UNL     1       4.782  31.427  47.700  1.00  0.00     0.152 A 
HETATM   26  N   UNL     1       5.336  32.629  47.881  1.00  0.00    -0.187 NA
HETATM   27  N   UNL     1       6.011  32.489  49.033  1.00  0.00    -0.289 N 
HETATM   28  H   UNL     1       6.534  33.284  49.386  1.00  0.00     0.188 HD
HETATM   29  C   UNL     1       5.894  31.247  49.585  1.00  0.00     0.123 A 
ENDBRANCH  20  24
ENDBRANCH   2  18
TORSDOF 6
ENDMDL
MODEL 8
REMARK VINA RESULT:      -8.2      3.797      9.984
REMARK  6 active torsions:
REMARK  status: ('A' for Active; 'I' for Inactive)
REMARK       I    between atoms: C_2  and  N_3 
REMARK    1  A    between atoms: N_3  and  C_4 
REMARK    2  A    between atoms: C_4  and  C_5 
REMARK    3  A    between atoms: C_4  and  C_11 
REMARK    4  A    between atoms: C_11  and  C_12 
REMARK       I    between atoms: C_12  and  N_13 
REMARK    5  A    between atoms: N_13  and  C_14 
REMARK    6  A    between atoms: C_16  and  C_17 
ROOT
HETATM    1  C   UNL     1       7.416  31.736  60.134  1.00  0.00     0.224 C 
HETATM    2  N   UNL     1       7.904  30.465  59.959  1.00  0.00    -0.327 N 
HETATM    3  O   UNL     1       7.095  32.513  59.234  1.00  0.00    -0.273 OA
HETATM    4  H   UNL     1       8.007  29.888  60.797  1.00  0.00     0.169 HD
ENDROOT
BRANCH   1   5
HETATM    5  C   UNL     1       7.351  32.209  61.578  1.00  0.00     0.133 C 
BRANCH   5   6
HETATM    6  C   UNL     1       5.988  32.597  62.185  1.00  0.00     0.126 C 
BRANCH   6   7
HETATM    7  N   UNL     1       5.127  33.311  61.232  1.00  0.00    -0.352 N 
HETATM    8  C   UNL     1       3.912  32.867  60.778  1.00  0.00     0.214 C 
HETATM    9  C   UNL     1       3.183  33.826  59.879  1.00  0.00     0.117 C 
HETATM   10  O   UNL     1       3.441  31.774  61.074  1.00  0.00    -0.274 OA
HETATM   11  H   UNL     1       5.480  34.191  60.878  1.00  0.00     0.163 HD
ENDBRANCH   6   7
BRANCH   6  12
HETATM   12  C   UNL     1       5.968  33.134  63.608  1.00  0.00    -0.035 A 
HETATM   13  C   UNL     1       4.779  33.393  64.310  1.00  0.00     0.009 A 
HETATM   14  C   UNL     1       4.804  33.855  65.630  1.00  0.00     0.001 A 
HETATM   15  C   UNL     1       6.018  34.060  66.276  1.00  0.00     0.000 A 
HETATM   16  C   UNL     1       7.209  33.800  65.605  1.00  0.00     0.001 A 
HETATM   17  C   UNL     1       7.184  33.336  64.288  1.00  0.00     0.009 A 
ENDBRANCH   6  12
ENDBRANCH   5   6
ENDBRANCH   1   5
BRANCH   2  18
HETATM   18  C   UNL     1       8.263  29.838  58.750  1.00  0.00     0.035 A 
HETATM   19  C   UNL     1       7.432  28.952  58.060  1.00  0.00     0.042 A 
HETATM   20  C   UNL     1       7.815  28.423  56.815  1.00  0.00    -0.021 A 
HETATM   21  C   UNL     1       9.067  28.769  56.290  1.00  0.00     0.012 A 
HETATM   22  C   UNL     1       9.908  29.643  56.979  1.00  0.00     0.003 A 
HETATM   23  C   UNL     1       9.499  30.187  58.195  1.00  0.00     0.029 A 
BRANCH  20  24
HETATM   24  C   UNL     1       6.915  27.573  56.049  1.00  0.00     0.010 A 
HETATM   25  C   UNL     1       7.169  26.701  54.963  1.00  0.00     0.152 A 
HETATM   26  N   UNL     1       6.067  26.099  54.509  1.00  0.00    -0.187 NA
HETATM   27  N   UNL     1       5.098  26.588  55.299  1.00  0.00    -0.289 N 
HETATM   28  H   UNL     1       4.144  26.279  55.142  1.00  0.00     0.188 HD
HETATM   29  C   UNL     1       5.553  27.468  56.237  1.00  0.00     0.123 A 
ENDBRANCH  20  24
ENDBRANCH   2  18
TORSDOF 6
ENDMDL
MODEL 9
REMARK VINA RESULT:      -8.2      3.532      4.327
REMARK  6 active torsions:
REMARK  status: ('A' for Active; 'I' for Inactive)
REMARK       I    between atoms: C_2  and  N_3 
REMARK    1  A    between atoms: N_3  and  C_4 
REMARK    2  A    between atoms: C_4  and  C_5 
REMARK    3  A    between atoms: C_4  and  C_11 
REMARK    4  A    between atoms: C_11  and  C_12 
REMARK       I    between atoms: C_12  and  N_13 
REMARK    5  A    between atoms: N_13  and  C_14 
REMARK    6  A    between atoms: C_16  and  C_17 
ROOT
HETATM    1  C   UNL     1       6.284  26.632  55.477  1.00  0.00     0.224 C 
HETATM    2  N   UNL     1       4.953  26.955  55.373  1.00  0.00    -0.327 N 
HETATM    3  O   UNL     1       7.215  27.436  55.541  1.00  0.00    -0.273 OA
HETATM    4  H   UNL     1       4.282  26.188  55.458  1.00  0.00     0.169 HD
ENDROOT
BRANCH   1   5
HETATM    5  C   UNL     1       6.592  25.144  55.431  1.00  0.00     0.133 C 
BRANCH   5   6
HETATM    6  C   UNL     1       7.370  24.570  54.230  1.00  0.00     0.126 C 
BRANCH   6   7
HETATM    7  N   UNL     1       6.969  25.177  52.954  1.00  0.00    -0.352 N 
HETATM    8  C   UNL     1       5.690  25.207  52.460  1.00  0.00     0.214 C 
HETATM    9  C   UNL     1       5.525  25.971  51.175  1.00  0.00     0.117 C 
HETATM   10  O   UNL     1       4.742  24.660  53.012  1.00  0.00    -0.274 OA
HETATM   11  H   UNL     1       7.709  25.586  52.398  1.00  0.00     0.163 HD
ENDBRANCH   6   7
BRANCH   6  12
HETATM   12  C   UNL     1       7.614  23.069  54.189  1.00  0.00    -0.035 A 
HETATM   13  C   UNL     1       7.924  22.378  53.007  1.00  0.00     0.009 A 
HETATM   14  C   UNL     1       8.174  21.002  53.016  1.00  0.00     0.001 A 
HETATM   15  C   UNL     1       8.126  20.292  54.211  1.00  0.00     0.000 A 
HETATM   16  C   UNL     1       7.831  20.956  55.397  1.00  0.00     0.001 A 
HETATM   17  C   UNL     1       7.584  22.332  55.387  1.00  0.00     0.009 A 
ENDBRANCH   6  12
ENDBRANCH   5   6
ENDBRANCH   1   5
BRANCH   2  18
HETATM   18  C   UNL     1       4.387  28.231  55.187  1.00  0.00     0.035 A 
HETATM   19  C   UNL     1       4.185  29.148  56.223  1.00  0.00     0.042 A 
HETATM   20  C   UNL     1       3.692  30.438  55.959  1.00  0.00    -0.021 A 
HETATM   21  C   UNL     1       3.368  30.781  54.640  1.00  0.00     0.012 A 
HETATM   22  C   UNL     1       3.556  29.867  53.603  1.00  0.00     0.003 A 
HETATM   23  C   UNL     1       4.079  28.605  53.875  1.00  0.00     0.029 A 
BRANCH  20  24
HETATM   24  C   UNL     1       3.567  31.427  57.020  1.00  0.00     0.010 A 
HETATM   25  C   UNL     1       3.302  32.817  56.961  1.00  0.00     0.152 A 
HETATM   26  N   UNL     1       3.281  33.395  58.164  1.00  0.00    -0.187 NA
HETATM   27  N   UNL     1       3.537  32.378  59.002  1.00  0.00    -0.289 N 
HETATM   28  H   UNL     1       3.581  32.572  59.997  1.00  0.00     0.188 HD
HETATM   29  C   UNL     1       3.711  31.182  58.369  1.00  0.00     0.123 A 
ENDBRANCH  20  24
ENDBRANCH   2  18
TORSDOF 6
ENDMDL
MODEL 10
REMARK VINA RESULT:      -8.0      3.036      7.882
REMARK  6 active torsions:
REMARK  status: ('A' for Active; 'I' for Inactive)
REMARK       I    between atoms: C_2  and  N_3 
REMARK    1  A    between atoms: N_3  and  C_4 
REMARK    2  A    between atoms: C_4  and  C_5 
REMARK    3  A    between atoms: C_4  and  C_11 
REMARK    4  A    between atoms: C_11  and  C_12 
REMARK       I    between atoms: C_12  and  N_13 
REMARK    5  A    between atoms: N_13  and  C_14 
REMARK    6  A    between atoms: C_16  and  C_17 
ROOT
HETATM    1  C   UNL     1       5.130  27.647  55.318  1.00  0.00     0.224 C 
HETATM    2  N   UNL     1       4.538  27.164  54.178  1.00  0.00    -0.327 N 
HETATM    3  O   UNL     1       5.413  28.826  55.537  1.00  0.00    -0.273 OA
HETATM    4  H   UNL     1       4.246  26.184  54.186  1.00  0.00     0.169 HD
ENDROOT
BRANCH   1   5
HETATM    5  C   UNL     1       5.520  26.591  56.340  1.00  0.00     0.133 C 
BRANCH   5   6
HETATM    6  C   UNL     1       6.992  26.146  56.443  1.00  0.00     0.126 C 
BRANCH   6   7
HETATM    7  N   UNL     1       7.933  27.255  56.238  1.00  0.00    -0.352 N 
HETATM    8  C   UNL     1       8.405  28.085  57.221  1.00  0.00     0.214 C 
HETATM    9  C   UNL     1       9.433  29.085  56.768  1.00  0.00     0.117 C 
HETATM   10  O   UNL     1       8.030  28.030  58.387  1.00  0.00    -0.274 OA
HETATM   11  H   UNL     1       8.236  27.418  55.285  1.00  0.00     0.163 HD
ENDBRANCH   6   7
BRANCH   6  12
HETATM   12  C   UNL     1       7.387  24.829  55.793  1.00  0.00    -0.035 A 
HETATM   13  C   UNL     1       6.935  24.438  54.523  1.00  0.00     0.009 A 
HETATM   14  C   UNL     1       7.349  23.233  53.946  1.00  0.00     0.001 A 
HETATM   15  C   UNL     1       8.230  22.399  54.626  1.00  0.00     0.000 A 
HETATM   16  C   UNL     1       8.701  22.770  55.881  1.00  0.00     0.001 A 
HETATM   17  C   UNL     1       8.290  23.975  56.456  1.00  0.00     0.009 A 
ENDBRANCH   6  12
ENDBRANCH   5   6
ENDBRANCH   1   5
BRANCH   2  18
HETATM   18  C   UNL     1       4.255  27.865  52.990  1.00  0.00     0.035 A 
HETATM   19  C   UNL     1       4.738  27.488  51.733  1.00  0.00     0.042 A 
HETATM   20  C   UNL     1       4.352  28.181  50.573  1.00  0.00    -0.021 A 
HETATM   21  C   UNL     1       3.501  29.287  50.698  1.00  0.00     0.012 A 
HETATM   22  C   UNL     1       3.024  29.677  51.950  1.00  0.00     0.003 A 
HETATM   23  C   UNL     1       3.387  28.958  53.087  1.00  0.00     0.029 A 
BRANCH  20  24
HETATM   24  C   UNL     1       4.778  27.737  49.254  1.00  0.00     0.010 A 
HETATM   25  C   UNL     1       5.371  28.452  48.185  1.00  0.00     0.152 A 
HETATM   26  N   UNL     1       5.605  27.690  47.114  1.00  0.00    -0.187 NA
HETATM   27  N   UNL     1       5.156  26.482  47.489  1.00  0.00    -0.289 N 
HETATM   28  H   UNL     1       5.219  25.716  46.826  1.00  0.00     0.188 HD
HETATM   29  C   UNL     1       4.658  26.456  48.759  1.00  0.00     0.123 A 
ENDBRANCH  20  24
ENDBRANCH   2  18
TORSDOF 6
ENDMDL
