MODEL 1
REMARK VINA RESULT:     -10.6      0.000      0.000
REMARK  6 active torsions:
REMARK  status: ('A' for Active; 'I' for Inactive)
REMARK    1  A    between atoms: C_2  and  O_3 
REMARK    2  A    between atoms: C_2  and  C_4 
REMARK    3  A    between atoms: C_6  and  N_7 
REMARK       I    between atoms: N_7  and  C_8 
REMARK    4  A    between atoms: C_8  and  C_9 
REMARK    5  A    between atoms: C_12  and  C_13 
REMARK    6  A    between atoms: C_18  and  C_19 
ROOT
HETATM    1  C   UNL     1       6.786  26.346  56.120  1.00  0.00     0.096 A 
HETATM    2  C   UNL     1       7.168  25.589  55.029  1.00  0.00     0.138 A 
HETATM    3  N   UNL     1       6.001  25.186  54.422  1.00  0.00    -0.240 N 
HETATM    4  C   UNL     1       5.936  24.340  53.244  1.00  0.00     0.221 C 
HETATM    5  C   UNL     1       7.334  24.191  52.606  1.00  0.00     0.066 C 
HETATM    6  C   UNL     1       8.423  23.998  53.675  1.00  0.00     0.118 C 
HETATM    7  N   UNL     1       8.379  25.186  54.547  1.00  0.00    -0.365 N 
HETATM    8  N   UNL     1       4.901  25.494  55.127  1.00  0.00    -0.181 NA
HETATM    9  C   UNL     1       5.377  26.211  56.148  1.00  0.00     0.160 A 
HETATM   10  H   UNL     1       9.194  25.247  55.160  1.00  0.00     0.161 HD
ENDROOT
BRANCH   1  11
HETATM   11  C   UNL     1       7.612  27.066  57.072  1.00  0.00     0.261 C 
HETATM   12  N   UNL     1       7.984  28.319  56.621  1.00  0.00    -0.323 N 
HETATM   13  H   UNL     1       7.541  28.618  55.759  1.00  0.00     0.169 HD
HETATM   14  O   UNL     1       7.873  26.581  58.167  1.00  0.00    -0.267 OA
BRANCH  12  15
HETATM   15  C   UNL     1       8.785  29.268  57.281  1.00  0.00     0.035 A 
HETATM   16  C   UNL     1       8.364  30.000  58.394  1.00  0.00     0.039 A 
HETATM   17  C   UNL     1       9.216  30.930  59.020  1.00  0.00    -0.028 A 
HETATM   18  C   UNL     1      10.506  31.113  58.505  1.00  0.00     0.010 A 
HETATM   19  C   UNL     1      10.936  30.388  57.396  1.00  0.00     0.003 A 
HETATM   20  C   UNL     1      10.081  29.463  56.793  1.00  0.00     0.029 A 
BRANCH  17  21
HETATM   21  C   UNL     1       8.737  31.668  60.251  1.00  0.00     0.147 C 
HETATM   22  C   UNL     1       9.490  31.210  61.495  1.00  0.00     0.044 C 
BRANCH  21  23
HETATM   23  O   UNL     1       8.921  33.073  60.091  1.00  0.00    -0.391 OA
HETATM   24  H   UNL     1       8.114  33.503  60.423  1.00  0.00     0.210 HD
ENDBRANCH  21  23
ENDBRANCH  17  21
ENDBRANCH  12  15
ENDBRANCH   1  11
BRANCH   4  25
HETATM   25  C   UNL     1       4.976  24.898  52.218  1.00  0.00     0.409 C 
HETATM   26  F   UNL     1       4.140  23.980  51.695  1.00  0.00    -0.169 F 
HETATM   27  F   UNL     1       4.234  25.918  52.710  1.00  0.00    -0.169 F 
HETATM   28  F   UNL     1       5.679  25.408  51.168  1.00  0.00    -0.169 F 
ENDBRANCH   4  25
BRANCH   6  29
HETATM   29  C   UNL     1       8.335  22.678  54.441  1.00  0.00    -0.035 A 
HETATM   30  C   UNL     1       8.132  21.469  53.747  1.00  0.00     0.009 A 
HETATM   31  C   UNL     1       8.046  20.248  54.422  1.00  0.00     0.001 A 
HETATM   32  C   UNL     1       8.187  20.203  55.804  1.00  0.00     0.000 A 
HETATM   33  C   UNL     1       8.422  21.378  56.510  1.00  0.00     0.001 A 
HETATM   34  C   UNL     1       8.500  22.600  55.835  1.00  0.00     0.009 A 
ENDBRANCH   6  29
TORSDOF 6
ENDMDL
MODEL 2
REMARK VINA RESULT:     -10.2      4.480      8.143
REMARK  6 active torsions:
REMARK  status: ('A' for Active; 'I' for Inactive)
REMARK    1  A    between atoms: C_2  and  O_3 
REMARK    2  A    between atoms: C_2  and  C_4 
REMARK    3  A    between atoms: C_6  and  N_7 
REMARK       I    between atoms: N_7  and  C_8 
REMARK    4  A    between atoms: C_8  and  C_9 
REMARK    5  A    between atoms: C_12  and  C_13 
REMARK    6  A    between atoms: C_18  and  C_19 
ROOT
HETATM    1  C   UNL     1       5.886  27.601  53.430  1.00  0.00     0.096 A 
HETATM    2  C   UNL     1       5.988  26.695  54.468  1.00  0.00     0.138 A 
HETATM    3  N   UNL     1       7.069  27.100  55.217  1.00  0.00    -0.240 N 
HETATM    4  C   UNL     1       7.557  26.409  56.398  1.00  0.00     0.221 C 
HETATM    5  C   UNL     1       6.543  25.340  56.858  1.00  0.00     0.066 C 
HETATM    6  C   UNL     1       5.954  24.571  55.663  1.00  0.00     0.118 C 
HETATM    7  N   UNL     1       5.295  25.567  54.798  1.00  0.00    -0.365 N 
HETATM    8  N   UNL     1       7.763  28.101  54.653  1.00  0.00    -0.181 NA
HETATM    9  C   UNL     1       7.035  28.415  53.577  1.00  0.00     0.160 A 
HETATM   10  H   UNL     1       4.702  25.132  54.089  1.00  0.00     0.161 HD
ENDROOT
BRANCH   1  11
HETATM   11  C   UNL     1       4.888  27.685  52.380  1.00  0.00     0.261 C 
HETATM   12  N   UNL     1       5.430  27.583  51.113  1.00  0.00    -0.323 N 
HETATM   13  H   UNL     1       6.416  27.344  51.081  1.00  0.00     0.169 HD
HETATM   14  O   UNL     1       3.697  27.781  52.654  1.00  0.00    -0.267 OA
BRANCH  12  15
HETATM   15  C   UNL     1       4.754  27.635  49.881  1.00  0.00     0.035 A 
HETATM   16  C   UNL     1       4.430  26.505  49.125  1.00  0.00     0.039 A 
HETATM   17  C   UNL     1       3.742  26.619  47.902  1.00  0.00    -0.028 A 
HETATM   18  C   UNL     1       3.383  27.894  47.448  1.00  0.00     0.010 A 
HETATM   19  C   UNL     1       3.702  29.028  48.194  1.00  0.00     0.003 A 
HETATM   20  C   UNL     1       4.376  28.897  49.409  1.00  0.00     0.029 A 
BRANCH  17  21
HETATM   21  C   UNL     1       3.369  25.368  47.138  1.00  0.00     0.147 C 
HETATM   22  C   UNL     1       2.830  24.291  48.074  1.00  0.00     0.044 C 
BRANCH  21  23
HETATM   23  O   UNL     1       2.380  25.662  46.153  1.00  0.00    -0.391 OA
HETATM   24  H   UNL     1       1.564  25.886  46.632  1.00  0.00     0.210 HD
ENDBRANCH  21  23
ENDBRANCH  17  21
ENDBRANCH  12  15
ENDBRANCH   1  11
BRANCH   4  25
HETATM   25  C   UNL     1       7.815  27.375  57.532  1.00  0.00     0.409 C 
HETATM   26  F   UNL     1       9.032  27.951  57.494  1.00  0.00    -0.169 F 
HETATM   27  F   UNL     1       6.883  28.355  57.595  1.00  0.00    -0.169 F 
HETATM   28  F   UNL     1       7.750  26.709  58.719  1.00  0.00    -0.169 F 
ENDBRANCH   4  25
BRANCH   6  29
HETATM   29  C   UNL     1       6.957  23.688  54.919  1.00  0.00    -0.035 A 
HETATM   30  C   UNL     1       7.800  22.817  55.636  1.00  0.00     0.009 A 
HETATM   31  C   UNL     1       8.727  22.000  54.982  1.00  0.00     0.001 A 
HETATM   32  C   UNL     1       8.813  22.015  53.595  1.00  0.00     0.000 A 
HETATM   33  C   UNL     1       7.968  22.841  52.861  1.00  0.00     0.001 A 
HETATM   34  C   UNL     1       7.047  23.664  53.516  1.00  0.00     0.009 A 
ENDBRANCH   6  29
TORSDOF 6
ENDMDL
MODEL 3
REMARK VINA RESULT:      -9.9      4.730      8.008
REMARK  6 active torsions:
REMARK  status: ('A' for Active; 'I' for Inactive)
REMARK    1  A    between atoms: C_2  and  O_3 
REMARK    2  A    between atoms: C_2  and  C_4 
REMARK    3  A    between atoms: C_6  and  N_7 
REMARK       I    between atoms: N_7  and  C_8 
REMARK    4  A    between atoms: C_8  and  C_9 
REMARK    5  A    between atoms: C_12  and  C_13 
REMARK    6  A    between atoms: C_18  and  C_19 
ROOT
HETATM    1  C   UNL     1       5.836  27.541  53.287  1.00  0.00     0.096 A 
HETATM    2  C   UNL     1       5.975  26.689  54.365  1.00  0.00     0.138 A 
HETATM    3  N   UNL     1       7.083  27.129  55.053  1.00  0.00    -0.240 N 
HETATM    4  C   UNL     1       7.612  26.499  56.249  1.00  0.00     0.221 C 
HETATM    5  C   UNL     1       6.615  25.456  56.799  1.00  0.00     0.066 C 
HETATM    6  C   UNL     1       5.984  24.629  55.667  1.00  0.00     0.118 C 
HETATM    7  N   UNL     1       5.294  25.581  54.776  1.00  0.00    -0.365 N 
HETATM    8  N   UNL     1       7.755  28.099  54.414  1.00  0.00    -0.181 NA
HETATM    9  C   UNL     1       6.989  28.359  53.351  1.00  0.00     0.160 A 
HETATM   10  H   UNL     1       4.676  25.111  54.112  1.00  0.00     0.161 HD
ENDROOT
BRANCH   1  11
HETATM   11  C   UNL     1       4.800  27.573  52.270  1.00  0.00     0.261 C 
HETATM   12  N   UNL     1       5.302  27.460  50.987  1.00  0.00    -0.323 N 
HETATM   13  H   UNL     1       6.293  27.249  50.927  1.00  0.00     0.169 HD
HETATM   14  O   UNL     1       3.617  27.641  52.583  1.00  0.00    -0.267 OA
BRANCH  12  15
HETATM   15  C   UNL     1       4.583  27.465  49.778  1.00  0.00     0.035 A 
HETATM   16  C   UNL     1       4.147  28.629  49.140  1.00  0.00     0.039 A 
HETATM   17  C   UNL     1       3.439  28.571  47.924  1.00  0.00    -0.028 A 
HETATM   18  C   UNL     1       3.176  27.318  47.357  1.00  0.00     0.010 A 
HETATM   19  C   UNL     1       3.608  26.151  47.985  1.00  0.00     0.003 A 
HETATM   20  C   UNL     1       4.316  26.226  49.186  1.00  0.00     0.029 A 
BRANCH  17  21
HETATM   21  C   UNL     1       3.025  29.856  47.242  1.00  0.00     0.147 C 
HETATM   22  C   UNL     1       4.223  30.555  46.607  1.00  0.00     0.044 C 
BRANCH  21  23
HETATM   23  O   UNL     1       2.054  29.592  46.230  1.00  0.00    -0.391 OA
HETATM   24  H   UNL     1       2.225  30.217  45.506  1.00  0.00     0.210 HD
ENDBRANCH  21  23
ENDBRANCH  17  21
ENDBRANCH  12  15
ENDBRANCH   1  11
BRANCH   4  25
HETATM   25  C   UNL     1       7.911  27.520  57.323  1.00  0.00     0.409 C 
HETATM   26  F   UNL     1       9.177  27.979  57.303  1.00  0.00    -0.169 F 
HETATM   27  F   UNL     1       7.073  28.582  57.270  1.00  0.00    -0.169 F 
HETATM   28  F   UNL     1       7.734  26.954  58.549  1.00  0.00    -0.169 F 
ENDBRANCH   4  25
BRANCH   6  29
HETATM   29  C   UNL     1       6.958  23.707  54.934  1.00  0.00    -0.035 A 
HETATM   30  C   UNL     1       7.810  22.855  55.663  1.00  0.00     0.009 A 
HETATM   31  C   UNL     1       8.712  22.003  55.018  1.00  0.00     0.001 A 
HETATM   32  C   UNL     1       8.765  21.964  53.630  1.00  0.00     0.000 A 
HETATM   33  C   UNL     1       7.911  22.770  52.886  1.00  0.00     0.001 A 
HETATM   34  C   UNL     1       7.014  23.628  53.531  1.00  0.00     0.009 A 
ENDBRANCH   6  29
TORSDOF 6
ENDMDL
MODEL 4
REMARK VINA RESULT:      -9.7      4.895      8.172
REMARK  6 active torsions:
REMARK  status: ('A' for Active; 'I' for Inactive)
REMARK    1  A    between atoms: C_2  and  O_3 
REMARK    2  A    between atoms: C_2  and  C_4 
REMARK    3  A    between atoms: C_6  and  N_7 
REMARK       I    between atoms: N_7  and  C_8 
REMARK    4  A    between atoms: C_8  and  C_9 
REMARK    5  A    between atoms: C_12  and  C_13 
REMARK    6  A    between atoms: C_18  and  C_19 
ROOT
HETATM    1  C   UNL     1       5.400  26.758  52.546  1.00  0.00     0.096 A 
HETATM    2  C   UNL     1       5.293  27.585  51.444  1.00  0.00     0.138 A 
HETATM    3  N   UNL     1       4.288  28.477  51.739  1.00  0.00    -0.240 N 
HETATM    4  C   UNL     1       3.821  29.516  50.838  1.00  0.00     0.221 C 
HETATM    5  C   UNL     1       4.781  29.667  49.639  1.00  0.00     0.066 C 
HETATM    6  C   UNL     1       5.245  28.297  49.114  1.00  0.00     0.118 C 
HETATM    7  N   UNL     1       5.923  27.619  50.234  1.00  0.00    -0.365 N 
HETATM    8  N   UNL     1       3.636  28.188  52.876  1.00  0.00    -0.181 NA
HETATM    9  C   UNL     1       4.322  27.155  53.372  1.00  0.00     0.160 A 
HETATM   10  H   UNL     1       6.442  26.793  49.930  1.00  0.00     0.161 HD
ENDROOT
BRANCH   1  11
HETATM   11  C   UNL     1       6.341  25.682  52.797  1.00  0.00     0.261 C 
HETATM   12  N   UNL     1       6.338  25.262  54.115  1.00  0.00    -0.323 N 
HETATM   13  H   UNL     1       5.608  25.663  54.696  1.00  0.00     0.169 HD
HETATM   14  O   UNL     1       7.002  25.201  51.884  1.00  0.00    -0.267 OA
BRANCH  12  15
HETATM   15  C   UNL     1       7.127  24.255  54.698  1.00  0.00     0.035 A 
HETATM   16  C   UNL     1       7.166  22.936  54.239  1.00  0.00     0.039 A 
HETATM   17  C   UNL     1       7.986  21.973  54.860  1.00  0.00    -0.028 A 
HETATM   18  C   UNL     1       8.768  22.360  55.955  1.00  0.00     0.010 A 
HETATM   19  C   UNL     1       8.736  23.673  56.420  1.00  0.00     0.003 A 
HETATM   20  C   UNL     1       7.926  24.618  55.788  1.00  0.00     0.029 A 
BRANCH  17  21
HETATM   21  C   UNL     1       8.035  20.567  54.303  1.00  0.00     0.147 C 
HETATM   22  C   UNL     1       8.361  20.575  52.813  1.00  0.00     0.044 C 
BRANCH  21  23
HETATM   23  O   UNL     1       9.020  19.795  54.988  1.00  0.00    -0.391 OA
HETATM   24  H   UNL     1       9.886  20.080  54.651  1.00  0.00     0.210 HD
ENDBRANCH  21  23
ENDBRANCH  17  21
ENDBRANCH  12  15
ENDBRANCH   1  11
BRANCH   4  25
HETATM   25  C   UNL     1       3.697  30.845  51.549  1.00  0.00     0.409 C 
HETATM   26  F   UNL     1       2.475  31.076  52.067  1.00  0.00    -0.169 F 
HETATM   27  F   UNL     1       4.611  30.987  52.537  1.00  0.00    -0.169 F 
HETATM   28  F   UNL     1       3.929  31.855  50.666  1.00  0.00    -0.169 F 
ENDBRANCH   4  25
BRANCH   6  29
HETATM   29  C   UNL     1       4.142  27.456  48.471  1.00  0.00    -0.035 A 
HETATM   30  C   UNL     1       3.115  28.079  47.736  1.00  0.00     0.009 A 
HETATM   31  C   UNL     1       2.093  27.335  47.139  1.00  0.00     0.001 A 
HETATM   32  C   UNL     1       2.089  25.949  47.240  1.00  0.00     0.000 A 
HETATM   33  C   UNL     1       3.111  25.306  47.931  1.00  0.00     0.001 A 
HETATM   34  C   UNL     1       4.128  26.051  48.535  1.00  0.00     0.009 A 
ENDBRANCH   6  29
TORSDOF 6
ENDMDL
MODEL 5
REMARK VINA RESULT:      -9.7      3.332      7.750
REMARK  6 active torsions:
REMARK  status: ('A' for Active; 'I' for Inactive)
REMARK    1  A    between atoms: C_2  and  O_3 
REMARK    2  A    between atoms: C_2  and  C_4 
REMARK    3  A    between atoms: C_6  and  N_7 
REMARK       I    between atoms: N_7  and  C_8 
REMARK    4  A    between atoms: C_8  and  C_9 
REMARK    5  A    between atoms: C_12  and  C_13 
REMARK    6  A    between atoms: C_18  and  C_19 
ROOT
HETATM    1  C   UNL     1       5.254  27.196  53.922  1.00  0.00     0.096 A 
HETATM    2  C   UNL     1       5.077  27.927  55.081  1.00  0.00     0.138 A 
HETATM    3  N   UNL     1       4.888  29.229  54.679  1.00  0.00    -0.240 N 
HETATM    4  C   UNL     1       4.690  30.348  55.583  1.00  0.00     0.221 C 
HETATM    5  C   UNL     1       4.438  29.846  57.021  1.00  0.00     0.066 C 
HETATM    6  C   UNL     1       5.372  28.677  57.380  1.00  0.00     0.118 C 
HETATM    7  N   UNL     1       5.106  27.603  56.406  1.00  0.00    -0.365 N 
HETATM    8  N   UNL     1       5.086  29.415  53.365  1.00  0.00    -0.181 NA
HETATM    9  C   UNL     1       5.293  28.178  52.904  1.00  0.00     0.160 A 
HETATM   10  H   UNL     1       5.527  26.715  56.683  1.00  0.00     0.161 HD
ENDROOT
BRANCH   1  11
HETATM   11  C   UNL     1       5.431  25.764  53.758  1.00  0.00     0.261 C 
HETATM   12  N   UNL     1       6.660  25.319  54.207  1.00  0.00    -0.323 N 
HETATM   13  H   UNL     1       7.219  26.011  54.696  1.00  0.00     0.169 HD
HETATM   14  O   UNL     1       4.526  25.068  53.312  1.00  0.00    -0.267 OA
BRANCH  12  15
HETATM   15  C   UNL     1       7.159  24.004  54.189  1.00  0.00     0.035 A 
HETATM   16  C   UNL     1       7.390  23.246  55.339  1.00  0.00     0.039 A 
HETATM   17  C   UNL     1       7.881  21.929  55.256  1.00  0.00    -0.028 A 
HETATM   18  C   UNL     1       8.138  21.384  53.992  1.00  0.00     0.010 A 
HETATM   19  C   UNL     1       7.911  22.133  52.838  1.00  0.00     0.003 A 
HETATM   20  C   UNL     1       7.415  23.434  52.937  1.00  0.00     0.029 A 
BRANCH  17  21
HETATM   21  C   UNL     1       8.074  21.125  56.523  1.00  0.00     0.147 C 
HETATM   22  C   UNL     1       9.284  20.203  56.413  1.00  0.00     0.044 C 
BRANCH  21  23
HETATM   23  O   UNL     1       8.254  21.993  57.640  1.00  0.00    -0.391 OA
HETATM   24  H   UNL     1       9.117  22.426  57.525  1.00  0.00     0.210 HD
ENDBRANCH  21  23
ENDBRANCH  17  21
ENDBRANCH  12  15
ENDBRANCH   1  11
BRANCH   4  25
HETATM   25  C   UNL     1       3.528  31.211  55.145  1.00  0.00     0.409 C 
HETATM   26  F   UNL     1       3.890  32.428  54.697  1.00  0.00    -0.169 F 
HETATM   27  F   UNL     1       2.775  30.613  54.192  1.00  0.00    -0.169 F 
HETATM   28  F   UNL     1       2.701  31.430  56.205  1.00  0.00    -0.169 F 
ENDBRANCH   4  25
BRANCH   6  29
HETATM   29  C   UNL     1       6.851  29.053  57.482  1.00  0.00    -0.035 A 
HETATM   30  C   UNL     1       7.239  30.211  58.183  1.00  0.00     0.009 A 
HETATM   31  C   UNL     1       8.584  30.579  58.291  1.00  0.00     0.001 A 
HETATM   32  C   UNL     1       9.573  29.785  57.722  1.00  0.00     0.000 A 
HETATM   33  C   UNL     1       9.218  28.618  57.053  1.00  0.00     0.001 A 
HETATM   34  C   UNL     1       7.873  28.254  56.940  1.00  0.00     0.009 A 
ENDBRANCH   6  29
TORSDOF 6
ENDMDL
MODEL 6
REMARK VINA RESULT:      -9.6      3.092      4.226
REMARK  6 active torsions:
REMARK  status: ('A' for Active; 'I' for Inactive)
REMARK    1  A    between atoms: C_2  and  O_3 
REMARK    2  A    between atoms: C_2  and  C_4 
REMARK    3  A    between atoms: C_6  and  N_7 
REMARK       I    between atoms: N_7  and  C_8 
REMARK    4  A    between atoms: C_8  and  C_9 
REMARK    5  A    between atoms: C_12  and  C_13 
REMARK    6  A    between atoms: C_18  and  C_19 
ROOT
HETATM    1  C   UNL     1       5.424  30.450  56.891  1.00  0.00     0.096 A 
HETATM    2  C   UNL     1       6.014  29.703  55.890  1.00  0.00     0.138 A 
HETATM    3  N   UNL     1       4.980  29.102  55.209  1.00  0.00    -0.240 N 
HETATM    4  C   UNL     1       5.151  28.197  54.087  1.00  0.00     0.221 C 
HETATM    5  C   UNL     1       6.611  28.222  53.587  1.00  0.00     0.066 C 
HETATM    6  C   UNL     1       7.607  28.246  54.758  1.00  0.00     0.118 C 
HETATM    7  N   UNL     1       7.311  29.458  55.544  1.00  0.00    -0.365 N 
HETATM    8  N   UNL     1       3.784  29.281  55.792  1.00  0.00    -0.181 NA
HETATM    9  C   UNL     1       4.053  30.112  56.803  1.00  0.00     0.160 A 
HETATM   10  H   UNL     1       8.046  29.670  56.222  1.00  0.00     0.161 HD
ENDROOT
BRANCH   1  11
HETATM   11  C   UNL     1       6.044  31.332  57.864  1.00  0.00     0.261 C 
HETATM   12  N   UNL     1       6.681  30.647  58.881  1.00  0.00    -0.323 N 
HETATM   13  H   UNL     1       6.741  29.641  58.755  1.00  0.00     0.169 HD
HETATM   14  O   UNL     1       6.016  32.548  57.714  1.00  0.00    -0.267 OA
BRANCH  12  15
HETATM   15  C   UNL     1       7.368  31.186  59.984  1.00  0.00     0.035 A 
HETATM   16  C   UNL     1       6.752  31.931  60.992  1.00  0.00     0.039 A 
HETATM   17  C   UNL     1       7.491  32.437  62.079  1.00  0.00    -0.028 A 
HETATM   18  C   UNL     1       8.867  32.181  62.135  1.00  0.00     0.010 A 
HETATM   19  C   UNL     1       9.490  31.438  61.134  1.00  0.00     0.003 A 
HETATM   20  C   UNL     1       8.742  30.936  60.069  1.00  0.00     0.029 A 
BRANCH  17  21
HETATM   21  C   UNL     1       6.778  33.200  63.174  1.00  0.00     0.147 C 
HETATM   22  C   UNL     1       7.654  33.330  64.415  1.00  0.00     0.044 C 
BRANCH  21  23
HETATM   23  O   UNL     1       6.422  34.505  62.721  1.00  0.00    -0.391 OA
HETATM   24  H   UNL     1       6.831  34.621  61.847  1.00  0.00     0.210 HD
ENDBRANCH  21  23
ENDBRANCH  17  21
ENDBRANCH  12  15
ENDBRANCH   1  11
BRANCH   4  25
HETATM   25  C   UNL     1       4.225  28.554  52.946  1.00  0.00     0.409 C 
HETATM   26  F   UNL     1       2.983  28.046  53.070  1.00  0.00    -0.169 F 
HETATM   27  F   UNL     1       4.121  29.892  52.769  1.00  0.00    -0.169 F 
HETATM   28  F   UNL     1       4.724  28.051  51.783  1.00  0.00    -0.169 F 
ENDBRANCH   4  25
BRANCH   6  29
HETATM   29  C   UNL     1       7.633  26.969  55.598  1.00  0.00    -0.035 A 
HETATM   30  C   UNL     1       7.413  25.718  54.988  1.00  0.00     0.009 A 
HETATM   31  C   UNL     1       7.429  24.534  55.732  1.00  0.00     0.001 A 
HETATM   32  C   UNL     1       7.692  24.570  57.096  1.00  0.00     0.000 A 
HETATM   33  C   UNL     1       7.947  25.789  57.716  1.00  0.00     0.001 A 
HETATM   34  C   UNL     1       7.922  26.973  56.974  1.00  0.00     0.009 A 
ENDBRANCH   6  29
TORSDOF 6
ENDMDL
MODEL 7
REMARK VINA RESULT:      -9.5      3.677      6.453
REMARK  6 active torsions:
REMARK  status: ('A' for Active; 'I' for Inactive)
REMARK    1  A    between atoms: C_2  and  O_3 
REMARK    2  A    between atoms: C_2  and  C_4 
REMARK    3  A    between atoms: C_6  and  N_7 
REMARK       I    between atoms: N_7  and  C_8 
REMARK    4  A    between atoms: C_8  and  C_9 
REMARK    5  A    between atoms: C_12  and  C_13 
REMARK    6  A    between atoms: C_18  and  C_19 
ROOT
HETATM    1  C   UNL     1       7.436  30.005  58.150  1.00  0.00     0.096 A 
HETATM    2  C   UNL     1       6.516  29.102  57.652  1.00  0.00     0.138 A 
HETATM    3  N   UNL     1       7.243  28.189  56.923  1.00  0.00    -0.240 N 
HETATM    4  C   UNL     1       6.666  27.072  56.196  1.00  0.00     0.221 C 
HETATM    5  C   UNL     1       5.183  26.883  56.579  1.00  0.00     0.066 C 
HETATM    6  C   UNL     1       4.454  28.233  56.688  1.00  0.00     0.118 C 
HETATM    7  N   UNL     1       5.157  29.015  57.722  1.00  0.00    -0.365 N 
HETATM    8  N   UNL     1       8.535  28.525  56.785  1.00  0.00    -0.181 NA
HETATM    9  C   UNL     1       8.654  29.618  57.543  1.00  0.00     0.160 A 
HETATM   10  H   UNL     1       4.628  29.840  58.011  1.00  0.00     0.161 HD
ENDROOT
BRANCH   1  11
HETATM   11  C   UNL     1       7.223  31.136  59.035  1.00  0.00     0.261 C 
HETATM   12  N   UNL     1       7.363  30.808  60.371  1.00  0.00    -0.323 N 
HETATM   13  H   UNL     1       7.709  29.871  60.553  1.00  0.00     0.169 HD
HETATM   14  O   UNL     1       7.000  32.253  58.582  1.00  0.00    -0.267 OA
BRANCH  12  15
HETATM   15  C   UNL     1       7.215  31.653  61.485  1.00  0.00     0.035 A 
HETATM   16  C   UNL     1       6.011  32.269  61.838  1.00  0.00     0.039 A 
HETATM   17  C   UNL     1       5.923  33.098  62.973  1.00  0.00    -0.028 A 
HETATM   18  C   UNL     1       7.069  33.300  63.751  1.00  0.00     0.010 A 
HETATM   19  C   UNL     1       8.275  32.690  63.407  1.00  0.00     0.003 A 
HETATM   20  C   UNL     1       8.344  31.864  62.284  1.00  0.00     0.029 A 
BRANCH  17  21
HETATM   21  C   UNL     1       4.589  33.707  63.347  1.00  0.00     0.147 C 
HETATM   22  C   UNL     1       3.505  33.318  62.348  1.00  0.00     0.044 C 
BRANCH  21  23
HETATM   23  O   UNL     1       4.194  33.278  64.649  1.00  0.00    -0.391 OA
HETATM   24  H   UNL     1       3.581  33.949  64.993  1.00  0.00     0.210 HD
ENDBRANCH  21  23
ENDBRANCH  17  21
ENDBRANCH  12  15
ENDBRANCH   1  11
BRANCH   4  25
HETATM   25  C   UNL     1       7.420  25.790  56.469  1.00  0.00     0.409 C 
HETATM   26  F   UNL     1       8.438  25.930  57.341  1.00  0.00    -0.169 F 
HETATM   27  F   UNL     1       6.610  24.803  56.916  1.00  0.00    -0.169 F 
HETATM   28  F   UNL     1       7.975  25.335  55.312  1.00  0.00    -0.169 F 
ENDBRANCH   4  25
BRANCH   6  29
HETATM   29  C   UNL     1       4.296  28.980  55.364  1.00  0.00    -0.035 A 
HETATM   30  C   UNL     1       4.170  28.263  54.158  1.00  0.00     0.009 A 
HETATM   31  C   UNL     1       4.027  28.920  52.932  1.00  0.00     0.001 A 
HETATM   32  C   UNL     1       3.979  30.308  52.886  1.00  0.00     0.000 A 
HETATM   33  C   UNL     1       4.067  31.040  54.066  1.00  0.00     0.001 A 
HETATM   34  C   UNL     1       4.218  30.382  55.291  1.00  0.00     0.009 A 
ENDBRANCH   6  29
TORSDOF 6
ENDMDL
MODEL 8
REMARK VINA RESULT:      -8.9      5.889     10.479
REMARK  6 active torsions:
REMARK  status: ('A' for Active; 'I' for Inactive)
REMARK    1  A    between atoms: C_2  and  O_3 
REMARK    2  A    between atoms: C_2  and  C_4 
REMARK    3  A    between atoms: C_6  and  N_7 
REMARK       I    between atoms: N_7  and  C_8 
REMARK    4  A    between atoms: C_8  and  C_9 
REMARK    5  A    between atoms: C_12  and  C_13 
REMARK    6  A    between atoms: C_18  and  C_19 
ROOT
HETATM    1  C   UNL     1       4.759  32.605  58.541  1.00  0.00     0.096 A 
HETATM    2  C   UNL     1       4.291  32.601  59.841  1.00  0.00     0.138 A 
HETATM    3  N   UNL     1       3.987  33.910  60.136  1.00  0.00    -0.240 N 
HETATM    4  C   UNL     1       3.486  34.369  61.419  1.00  0.00     0.221 C 
HETATM    5  C   UNL     1       3.075  33.170  62.301  1.00  0.00     0.066 C 
HETATM    6  C   UNL     1       4.094  32.022  62.200  1.00  0.00     0.118 C 
HETATM    7  N   UNL     1       4.147  31.623  60.781  1.00  0.00    -0.365 N 
HETATM    8  N   UNL     1       4.371  34.774  59.183  1.00  0.00    -0.181 NA
HETATM    9  C   UNL     1       4.824  33.980  58.209  1.00  0.00     0.160 A 
HETATM   10  H   UNL     1       4.639  30.738  60.645  1.00  0.00     0.161 HD
ENDROOT
BRANCH   1  11
HETATM   11  C   UNL     1       5.162  31.487  57.707  1.00  0.00     0.261 C 
HETATM   12  N   UNL     1       6.066  30.649  58.332  1.00  0.00    -0.323 N 
HETATM   13  H   UNL     1       6.234  30.847  59.314  1.00  0.00     0.169 HD
HETATM   14  O   UNL     1       4.674  31.328  56.594  1.00  0.00    -0.267 OA
BRANCH  12  15
HETATM   15  C   UNL     1       6.665  29.488  57.812  1.00  0.00     0.035 A 
HETATM   16  C   UNL     1       5.946  28.377  57.365  1.00  0.00     0.039 A 
HETATM   17  C   UNL     1       6.602  27.246  56.843  1.00  0.00    -0.028 A 
HETATM   18  C   UNL     1       8.001  27.249  56.778  1.00  0.00     0.010 A 
HETATM   19  C   UNL     1       8.728  28.353  57.221  1.00  0.00     0.003 A 
HETATM   20  C   UNL     1       8.062  29.470  57.727  1.00  0.00     0.029 A 
BRANCH  17  21
HETATM   21  C   UNL     1       5.784  26.082  56.327  1.00  0.00     0.147 C 
HETATM   22  C   UNL     1       6.480  24.754  56.603  1.00  0.00     0.044 C 
BRANCH  21  23
HETATM   23  O   UNL     1       4.498  26.067  56.944  1.00  0.00    -0.391 OA
HETATM   24  H   UNL     1       4.604  25.635  57.808  1.00  0.00     0.210 HD
ENDBRANCH  21  23
ENDBRANCH  17  21
ENDBRANCH  12  15
ENDBRANCH   1  11
BRANCH   4  25
HETATM   25  C   UNL     1       2.301  35.293  61.249  1.00  0.00     0.409 C 
HETATM   26  F   UNL     1       2.628  36.599  61.207  1.00  0.00    -0.169 F 
HETATM   27  F   UNL     1       1.576  35.001  60.144  1.00  0.00    -0.169 F 
HETATM   28  F   UNL     1       1.458  35.149  62.309  1.00  0.00    -0.169 F 
ENDBRANCH   4  25
BRANCH   6  29
HETATM   29  C   UNL     1       5.467  32.335  62.795  1.00  0.00    -0.035 A 
HETATM   30  C   UNL     1       6.638  31.971  62.102  1.00  0.00     0.009 A 
HETATM   31  C   UNL     1       7.906  32.243  62.624  1.00  0.00     0.001 A 
HETATM   32  C   UNL     1       8.033  32.910  63.837  1.00  0.00     0.000 A 
HETATM   33  C   UNL     1       6.893  33.311  64.525  1.00  0.00     0.001 A 
HETATM   34  C   UNL     1       5.625  33.031  64.007  1.00  0.00     0.009 A 
ENDBRANCH   6  29
TORSDOF 6
ENDMDL
MODEL 9
REMARK VINA RESULT:      -8.9      5.603      9.299
REMARK  6 active torsions:
REMARK  status: ('A' for Active; 'I' for Inactive)
REMARK    1  A    between atoms: C_2  and  O_3 
REMARK    2  A    between atoms: C_2  and  C_4 
REMARK    3  A    between atoms: C_6  and  N_7 
REMARK       I    between atoms: N_7  and  C_8 
REMARK    4  A    between atoms: C_8  and  C_9 
REMARK    5  A    between atoms: C_12  and  C_13 
REMARK    6  A    between atoms: C_18  and  C_19 
ROOT
HETATM    1  C   UNL     1       4.605  27.043  50.304  1.00  0.00     0.096 A 
HETATM    2  C   UNL     1       3.742  28.095  50.065  1.00  0.00     0.138 A 
HETATM    3  N   UNL     1       3.221  27.877  48.810  1.00  0.00    -0.240 N 
HETATM    4  C   UNL     1       2.283  28.763  48.144  1.00  0.00     0.221 C 
HETATM    5  C   UNL     1       1.737  29.817  49.131  1.00  0.00     0.066 C 
HETATM    6  C   UNL     1       2.849  30.362  50.044  1.00  0.00     0.118 C 
HETATM    7  N   UNL     1       3.404  29.209  50.776  1.00  0.00    -0.365 N 
HETATM    8  N   UNL     1       3.801  26.854  48.163  1.00  0.00    -0.181 NA
HETATM    9  C   UNL     1       4.629  26.339  49.077  1.00  0.00     0.160 A 
HETATM   10  H   UNL     1       4.004  29.495  51.552  1.00  0.00     0.161 HD
ENDROOT
BRANCH   1  11
HETATM   11  C   UNL     1       5.374  26.740  51.498  1.00  0.00     0.261 C 
HETATM   12  N   UNL     1       5.399  25.390  51.793  1.00  0.00    -0.323 N 
HETATM   13  H   UNL     1       4.992  24.784  51.087  1.00  0.00     0.169 HD
HETATM   14  O   UNL     1       5.961  27.627  52.106  1.00  0.00    -0.267 OA
BRANCH  12  15
HETATM   15  C   UNL     1       6.037  24.758  52.876  1.00  0.00     0.035 A 
HETATM   16  C   UNL     1       7.014  23.770  52.731  1.00  0.00     0.039 A 
HETATM   17  C   UNL     1       7.625  23.180  53.854  1.00  0.00    -0.028 A 
HETATM   18  C   UNL     1       7.235  23.601  55.132  1.00  0.00     0.010 A 
HETATM   19  C   UNL     1       6.261  24.586  55.287  1.00  0.00     0.003 A 
HETATM   20  C   UNL     1       5.672  25.167  54.163  1.00  0.00     0.029 A 
BRANCH  17  21
HETATM   21  C   UNL     1       8.713  22.147  53.653  1.00  0.00     0.147 C 
HETATM   22  C   UNL     1       9.330  21.731  54.984  1.00  0.00     0.044 C 
BRANCH  21  23
HETATM   23  O   UNL     1       8.187  20.990  53.006  1.00  0.00    -0.391 OA
HETATM   24  H   UNL     1       8.815  20.749  52.305  1.00  0.00     0.210 HD
ENDBRANCH  21  23
ENDBRANCH  17  21
ENDBRANCH  12  15
ENDBRANCH   1  11
BRANCH   4  25
HETATM   25  C   UNL     1       1.128  27.992  47.546  1.00  0.00     0.409 C 
HETATM   26  F   UNL     1       1.428  27.366  46.391  1.00  0.00    -0.169 F 
HETATM   27  F   UNL     1       0.621  27.078  48.406  1.00  0.00    -0.169 F 
HETATM   28  F   UNL     1       0.111  28.851  47.257  1.00  0.00    -0.169 F 
ENDBRANCH   4  25
BRANCH   6  29
HETATM   29  C   UNL     1       3.911  31.194  49.324  1.00  0.00    -0.035 A 
HETATM   30  C   UNL     1       5.225  31.250  49.827  1.00  0.00     0.009 A 
HETATM   31  C   UNL     1       6.216  32.004  49.191  1.00  0.00     0.001 A 
HETATM   32  C   UNL     1       5.923  32.697  48.022  1.00  0.00     0.000 A 
HETATM   33  C   UNL     1       4.641  32.631  47.486  1.00  0.00     0.001 A 
HETATM   34  C   UNL     1       3.649  31.883  48.127  1.00  0.00     0.009 A 
ENDBRANCH   6  29
TORSDOF 6
ENDMDL
MODEL 10
REMARK VINA RESULT:      -8.7      5.767      9.073
REMARK  6 active torsions:
REMARK  status: ('A' for Active; 'I' for Inactive)
REMARK    1  A    between atoms: C_2  and  O_3 
REMARK    2  A    between atoms: C_2  and  C_4 
REMARK    3  A    between atoms: C_6  and  N_7 
REMARK       I    between atoms: N_7  and  C_8 
REMARK    4  A    between atoms: C_8  and  C_9 
REMARK    5  A    between atoms: C_12  and  C_13 
REMARK    6  A    between atoms: C_18  and  C_19 
ROOT
HETATM    1  C   UNL     1       4.458  27.153  49.915  1.00  0.00     0.096 A 
HETATM    2  C   UNL     1       3.552  28.152  49.613  1.00  0.00     0.138 A 
HETATM    3  N   UNL     1       3.008  27.812  48.396  1.00  0.00    -0.240 N 
HETATM    4  C   UNL     1       2.023  28.607  47.684  1.00  0.00     0.221 C 
HETATM    5  C   UNL     1       1.465  29.721  48.595  1.00  0.00     0.066 C 
HETATM    6  C   UNL     1       2.580  30.379  49.427  1.00  0.00     0.118 C 
HETATM    7  N   UNL     1       3.193  29.310  50.238  1.00  0.00    -0.365 N 
HETATM    8  N   UNL     1       3.607  26.757  47.821  1.00  0.00    -0.181 NA
HETATM    9  C   UNL     1       4.475  26.349  48.750  1.00  0.00     0.160 A 
HETATM   10  H   UNL     1       3.802  29.680  50.970  1.00  0.00     0.161 HD
ENDROOT
BRANCH   1  11
HETATM   11  C   UNL     1       5.266  26.977  51.107  1.00  0.00     0.261 C 
HETATM   12  N   UNL     1       5.462  25.648  51.434  1.00  0.00    -0.323 N 
HETATM   13  H   UNL     1       5.129  24.980  50.747  1.00  0.00     0.169 HD
HETATM   14  O   UNL     1       5.743  27.945  51.689  1.00  0.00    -0.267 OA
BRANCH  12  15
HETATM   15  C   UNL     1       6.181  25.127  52.525  1.00  0.00     0.035 A 
HETATM   16  C   UNL     1       5.772  25.252  53.855  1.00  0.00     0.039 A 
HETATM   17  C   UNL     1       6.530  24.698  54.905  1.00  0.00    -0.028 A 
HETATM   18  C   UNL     1       7.712  24.014  54.594  1.00  0.00     0.010 A 
HETATM   19  C   UNL     1       8.128  23.884  53.270  1.00  0.00     0.003 A 
HETATM   20  C   UNL     1       7.361  24.431  52.241  1.00  0.00     0.029 A 
BRANCH  17  21
HETATM   21  C   UNL     1       6.028  24.815  56.327  1.00  0.00     0.147 C 
HETATM   22  C   UNL     1       7.076  25.455  57.231  1.00  0.00     0.044 C 
BRANCH  21  23
HETATM   23  O   UNL     1       4.838  25.601  56.372  1.00  0.00    -0.391 OA
HETATM   24  H   UNL     1       4.166  25.126  55.854  1.00  0.00     0.210 HD
ENDBRANCH  21  23
ENDBRANCH  17  21
ENDBRANCH  12  15
ENDBRANCH   1  11
BRANCH   4  25
HETATM   25  C   UNL     1       0.881  27.751  47.186  1.00  0.00     0.409 C 
HETATM   26  F   UNL     1      -0.213  28.452  46.830  1.00  0.00    -0.169 F 
HETATM   27  F   UNL     1       1.242  26.969  46.142  1.00  0.00    -0.169 F 
HETATM   28  F   UNL     1       0.482  26.906  48.176  1.00  0.00    -0.169 F 
ENDBRANCH   4  25
BRANCH   6  29
HETATM   29  C   UNL     1       3.593  31.181  48.612  1.00  0.00    -0.035 A 
HETATM   30  C   UNL     1       3.249  31.665  47.335  1.00  0.00     0.009 A 
HETATM   31  C   UNL     1       4.156  32.400  46.566  1.00  0.00     0.001 A 
HETATM   32  C   UNL     1       5.420  32.691  47.067  1.00  0.00     0.000 A 
HETATM   33  C   UNL     1       5.773  32.254  48.339  1.00  0.00     0.001 A 
HETATM   34  C   UNL     1       4.868  31.512  49.104  1.00  0.00     0.009 A 
ENDBRANCH   6  29
TORSDOF 6
ENDMDL
