MODEL 1
REMARK VINA RESULT:      -9.0      0.000      0.000
REMARK  6 active torsions:
REMARK  status: ('A' for Active; 'I' for Inactive)
REMARK    1  A    between atoms: C_2  and  O_3 
REMARK    2  A    between atoms: O_3  and  C_4 
REMARK    3  A    between atoms: C_7  and  N_8 
REMARK    4  A    between atoms: N_8  and  C_9 
REMARK    5  A    between atoms: C_9  and  C_10 
REMARK    6  A    between atoms: C_18  and  O_19 
ROOT
HETATM    1  C   UNL     1       7.407  25.910  56.051  1.00  0.00     0.024 A 
HETATM    2  C   UNL     1       7.848  25.530  57.430  1.00  0.00     0.253 A 
HETATM    3  O   UNL     1       7.949  26.364  58.326  1.00  0.00    -0.268 OA
HETATM    4  N   UNL     1       8.137  24.210  57.658  1.00  0.00    -0.322 N 
HETATM    5  C   UNL     1       8.035  23.214  56.684  1.00  0.00     0.045 A 
HETATM    6  C   UNL     1       7.637  23.564  55.392  1.00  0.00    -0.006 A 
HETATM    7  C   UNL     1       8.323  21.889  57.003  1.00  0.00     0.033 A 
HETATM    8  C   UNL     1       8.196  20.896  56.025  1.00  0.00     0.039 A 
HETATM    9  C   UNL     1       7.786  21.231  54.732  1.00  0.00     0.069 A 
HETATM   10  C   UNL     1       7.519  22.568  54.418  1.00  0.00     0.050 A 
HETATM   11  C   UNL     1       7.337  24.964  55.096  1.00  0.00     0.027 A 
HETATM   12  H   UNL     1       8.429  23.980  58.598  1.00  0.00     0.169 HD
ENDROOT
BRANCH   1  13
HETATM   13  C   UNL     1       7.084  27.376  55.898  1.00  0.00     0.136 C 
BRANCH  13  14
HETATM   14  N   UNL     1       8.294  28.158  55.640  1.00  0.00    -0.289 NA
HETATM   15  H   UNL     1       8.325  28.516  54.688  1.00  0.00     0.128 HD
BRANCH  14  16
HETATM   16  C   UNL     1       8.684  29.163  56.532  1.00  0.00     0.008 A 
HETATM   17  C   UNL     1      10.016  29.600  56.484  1.00  0.00     0.026 A 
HETATM   18  C   UNL     1      10.509  30.564  57.373  1.00  0.00     0.038 A 
HETATM   19  C   UNL     1       9.675  31.104  58.346  1.00  0.00     0.068 A 
HETATM   20  C   UNL     1       8.357  30.656  58.427  1.00  0.00     0.038 A 
HETATM   21  C   UNL     1       7.872  29.682  57.543  1.00  0.00     0.026 A 
BRANCH  19  22
HETATM   22  O   UNL     1      10.019  32.056  59.265  1.00  0.00    -0.352 OA
BRANCH  22  23
HETATM   23  C   UNL     1       9.069  32.337  60.291  1.00  0.00     0.171 C 
HETATM   24  C   UNL     1       9.649  31.862  61.611  1.00  0.00     0.034 C 
ENDBRANCH  22  23
ENDBRANCH  19  22
ENDBRANCH  14  16
ENDBRANCH  13  14
ENDBRANCH   1  13
BRANCH   9  25
HETATM   25  O   UNL     1       7.615  20.358  53.694  1.00  0.00    -0.356 OA
HETATM   26  C   UNL     1       8.593  20.386  52.661  1.00  0.00     0.210 C 
ENDBRANCH   9  25
TORSDOF 6
ENDMDL
MODEL 2
REMARK VINA RESULT:      -8.6      1.646      2.297
REMARK  6 active torsions:
REMARK  status: ('A' for Active; 'I' for Inactive)
REMARK    1  A    between atoms: C_2  and  O_3 
REMARK    2  A    between atoms: O_3  and  C_4 
REMARK    3  A    between atoms: C_7  and  N_8 
REMARK    4  A    between atoms: N_8  and  C_9 
REMARK    5  A    between atoms: C_9  and  C_10 
REMARK    6  A    between atoms: C_18  and  O_19 
ROOT
HETATM    1  C   UNL     1       7.376  26.227  55.456  1.00  0.00     0.024 A 
HETATM    2  C   UNL     1       7.525  26.544  54.000  1.00  0.00     0.253 A 
HETATM    3  O   UNL     1       7.504  27.701  53.588  1.00  0.00    -0.268 OA
HETATM    4  N   UNL     1       7.689  25.492  53.138  1.00  0.00    -0.322 N 
HETATM    5  C   UNL     1       7.729  24.155  53.545  1.00  0.00     0.045 A 
HETATM    6  C   UNL     1       7.577  23.852  54.900  1.00  0.00    -0.006 A 
HETATM    7  C   UNL     1       7.925  23.143  52.609  1.00  0.00     0.033 A 
HETATM    8  C   UNL     1       7.985  21.810  53.030  1.00  0.00     0.039 A 
HETATM    9  C   UNL     1       7.847  21.494  54.384  1.00  0.00     0.069 A 
HETATM   10  C   UNL     1       7.632  22.518  55.313  1.00  0.00     0.050 A 
HETATM   11  C   UNL     1       7.380  24.941  55.855  1.00  0.00     0.027 A 
HETATM   12  H   UNL     1       7.791  25.734  52.162  1.00  0.00     0.169 HD
ENDROOT
BRANCH   1  13
HETATM   13  C   UNL     1       7.229  27.446  56.332  1.00  0.00     0.136 C 
BRANCH  13  14
HETATM   14  N   UNL     1       8.536  27.973  56.728  1.00  0.00    -0.289 NA
HETATM   15  H   UNL     1       9.196  27.985  55.954  1.00  0.00     0.128 HD
BRANCH  14  16
HETATM   16  C   UNL     1       8.622  29.175  57.438  1.00  0.00     0.008 A 
HETATM   17  C   UNL     1       9.876  29.800  57.517  1.00  0.00     0.026 A 
HETATM   18  C   UNL     1      10.069  30.978  58.250  1.00  0.00     0.038 A 
HETATM   19  C   UNL     1       9.004  31.551  58.936  1.00  0.00     0.068 A 
HETATM   20  C   UNL     1       7.760  30.925  58.894  1.00  0.00     0.038 A 
HETATM   21  C   UNL     1       7.574  29.739  58.170  1.00  0.00     0.026 A 
BRANCH  19  22
HETATM   22  O   UNL     1       9.047  32.700  59.676  1.00  0.00    -0.352 OA
BRANCH  22  23
HETATM   23  C   UNL     1       8.362  32.690  60.926  1.00  0.00     0.171 C 
HETATM   24  C   UNL     1       9.219  31.936  61.927  1.00  0.00     0.034 C 
ENDBRANCH  22  23
ENDBRANCH  19  22
ENDBRANCH  14  16
ENDBRANCH  13  14
ENDBRANCH   1  13
BRANCH   9  25
HETATM   25  O   UNL     1       7.897  20.238  54.923  1.00  0.00    -0.356 OA
HETATM   26  C   UNL     1       8.722  20.062  56.068  1.00  0.00     0.210 C 
ENDBRANCH   9  25
TORSDOF 6
ENDMDL
MODEL 3
REMARK VINA RESULT:      -8.2      3.547      6.394
REMARK  6 active torsions:
REMARK  status: ('A' for Active; 'I' for Inactive)
REMARK    1  A    between atoms: C_2  and  O_3 
REMARK    2  A    between atoms: O_3  and  C_4 
REMARK    3  A    between atoms: C_7  and  N_8 
REMARK    4  A    between atoms: N_8  and  C_9 
REMARK    5  A    between atoms: C_9  and  C_10 
REMARK    6  A    between atoms: C_18  and  O_19 
ROOT
HETATM    1  C   UNL     1       7.505  25.469  55.815  1.00  0.00     0.024 A 
HETATM    2  C   UNL     1       7.761  25.219  57.268  1.00  0.00     0.253 A 
HETATM    3  O   UNL     1       7.665  26.116  58.102  1.00  0.00    -0.268 OA
HETATM    4  N   UNL     1       8.107  23.946  57.639  1.00  0.00    -0.322 N 
HETATM    5  C   UNL     1       8.226  22.882  56.740  1.00  0.00     0.045 A 
HETATM    6  C   UNL     1       8.002  23.112  55.381  1.00  0.00    -0.006 A 
HETATM    7  C   UNL     1       8.557  21.610  57.200  1.00  0.00     0.033 A 
HETATM    8  C   UNL     1       8.652  20.547  56.294  1.00  0.00     0.039 A 
HETATM    9  C   UNL     1       8.418  20.761  54.934  1.00  0.00     0.069 A 
HETATM   10  C   UNL     1       8.104  22.047  54.481  1.00  0.00     0.050 A 
HETATM   11  C   UNL     1       7.649  24.459  54.936  1.00  0.00     0.027 A 
HETATM   12  H   UNL     1       8.271  23.804  58.626  1.00  0.00     0.169 HD
ENDROOT
BRANCH   1  13
HETATM   13  C   UNL     1       7.104  26.889  55.503  1.00  0.00     0.136 C 
BRANCH  13  14
HETATM   14  N   UNL     1       5.761  26.943  54.923  1.00  0.00    -0.289 NA
HETATM   15  H   UNL     1       5.250  27.773  55.214  1.00  0.00     0.128 HD
BRANCH  14  16
HETATM   16  C   UNL     1       5.580  26.735  53.552  1.00  0.00     0.008 A 
HETATM   17  C   UNL     1       5.721  27.840  52.699  1.00  0.00     0.026 A 
HETATM   18  C   UNL     1       5.506  27.739  51.318  1.00  0.00     0.038 A 
HETATM   19  C   UNL     1       5.131  26.521  50.761  1.00  0.00     0.068 A 
HETATM   20  C   UNL     1       4.956  25.422  51.600  1.00  0.00     0.038 A 
HETATM   21  C   UNL     1       5.159  25.531  52.982  1.00  0.00     0.026 A 
BRANCH  19  22
HETATM   22  O   UNL     1       4.903  26.278  49.434  1.00  0.00    -0.352 OA
BRANCH  22  23
HETATM   23  C   UNL     1       3.770  26.912  48.847  1.00  0.00     0.171 C 
HETATM   24  C   UNL     1       2.966  25.854  48.112  1.00  0.00     0.034 C 
ENDBRANCH  22  23
ENDBRANCH  19  22
ENDBRANCH  14  16
ENDBRANCH  13  14
ENDBRANCH   1  13
BRANCH   9  25
HETATM   25  O   UNL     1       8.468  19.809  53.953  1.00  0.00    -0.356 OA
HETATM   26  C   UNL     1       8.463  20.271  52.607  1.00  0.00     0.210 C 
ENDBRANCH   9  25
TORSDOF 6
ENDMDL
MODEL 4
REMARK VINA RESULT:      -8.2      2.231      2.870
REMARK  6 active torsions:
REMARK  status: ('A' for Active; 'I' for Inactive)
REMARK    1  A    between atoms: C_2  and  O_3 
REMARK    2  A    between atoms: O_3  and  C_4 
REMARK    3  A    between atoms: C_7  and  N_8 
REMARK    4  A    between atoms: N_8  and  C_9 
REMARK    5  A    between atoms: C_9  and  C_10 
REMARK    6  A    between atoms: C_18  and  O_19 
ROOT
HETATM    1  C   UNL     1       5.985  26.665  54.367  1.00  0.00     0.024 A 
HETATM    2  C   UNL     1       6.286  26.580  52.903  1.00  0.00     0.253 A 
HETATM    3  O   UNL     1       6.039  27.511  52.141  1.00  0.00    -0.268 OA
HETATM    4  N   UNL     1       6.850  25.420  52.441  1.00  0.00    -0.322 N 
HETATM    5  C   UNL     1       7.160  24.329  53.258  1.00  0.00     0.045 A 
HETATM    6  C   UNL     1       6.870  24.397  54.623  1.00  0.00    -0.006 A 
HETATM    7  C   UNL     1       7.757  23.194  52.715  1.00  0.00     0.033 A 
HETATM    8  C   UNL     1       8.083  22.117  53.547  1.00  0.00     0.039 A 
HETATM    9  C   UNL     1       7.810  22.177  54.915  1.00  0.00     0.069 A 
HETATM   10  C   UNL     1       7.193  23.315  55.446  1.00  0.00     0.050 A 
HETATM   11  C   UNL     1       6.249  25.608  55.158  1.00  0.00     0.027 A 
HETATM   12  H   UNL     1       7.046  25.390  51.450  1.00  0.00     0.169 HD
ENDROOT
BRANCH   1  13
HETATM   13  C   UNL     1       5.392  27.986  54.790  1.00  0.00     0.136 C 
BRANCH  13  14
HETATM   14  N   UNL     1       6.412  29.035  54.827  1.00  0.00    -0.289 NA
HETATM   15  H   UNL     1       6.101  29.891  54.374  1.00  0.00     0.128 HD
BRANCH  14  16
HETATM   16  C   UNL     1       7.055  29.347  56.030  1.00  0.00     0.008 A 
HETATM   17  C   UNL     1       8.396  28.959  56.175  1.00  0.00     0.026 A 
HETATM   18  C   UNL     1       9.104  29.182  57.363  1.00  0.00     0.038 A 
HETATM   19  C   UNL     1       8.475  29.792  58.443  1.00  0.00     0.068 A 
HETATM   20  C   UNL     1       7.134  30.154  58.325  1.00  0.00     0.038 A 
HETATM   21  C   UNL     1       6.425  29.917  57.139  1.00  0.00     0.026 A 
BRANCH  19  22
HETATM   22  O   UNL     1       9.047  30.081  59.651  1.00  0.00    -0.352 OA
BRANCH  22  23
HETATM   23  C   UNL     1       8.391  31.054  60.461  1.00  0.00     0.171 C 
HETATM   24  C   UNL     1       9.384  31.554  61.494  1.00  0.00     0.034 C 
ENDBRANCH  22  23
ENDBRANCH  19  22
ENDBRANCH  14  16
ENDBRANCH  13  14
ENDBRANCH   1  13
BRANCH   9  25
HETATM   25  O   UNL     1       8.087  21.201  55.832  1.00  0.00    -0.356 OA
HETATM   26  C   UNL     1       8.703  20.015  55.343  1.00  0.00     0.210 C 
ENDBRANCH   9  25
TORSDOF 6
ENDMDL
MODEL 5
REMARK VINA RESULT:      -8.1      1.703      2.250
REMARK  6 active torsions:
REMARK  status: ('A' for Active; 'I' for Inactive)
REMARK    1  A    between atoms: C_2  and  O_3 
REMARK    2  A    between atoms: O_3  and  C_4 
REMARK    3  A    between atoms: C_7  and  N_8 
REMARK    4  A    between atoms: N_8  and  C_9 
REMARK    5  A    between atoms: C_9  and  C_10 
REMARK    6  A    between atoms: C_18  and  O_19 
ROOT
HETATM    1  C   UNL     1       7.752  25.514  56.086  1.00  0.00     0.024 A 
HETATM    2  C   UNL     1       8.010  25.138  57.512  1.00  0.00     0.253 A 
HETATM    3  O   UNL     1       8.022  25.980  58.407  1.00  0.00    -0.268 OA
HETATM    4  N   UNL     1       8.232  23.815  57.786  1.00  0.00    -0.322 N 
HETATM    5  C   UNL     1       8.225  22.810  56.815  1.00  0.00     0.045 A 
HETATM    6  C   UNL     1       7.998  23.155  55.481  1.00  0.00    -0.006 A 
HETATM    7  C   UNL     1       8.434  21.481  57.179  1.00  0.00     0.033 A 
HETATM    8  C   UNL     1       8.403  20.481  56.201  1.00  0.00     0.039 A 
HETATM    9  C   UNL     1       8.165  20.812  54.865  1.00  0.00     0.069 A 
HETATM   10  C   UNL     1       7.974  22.151  54.508  1.00  0.00     0.050 A 
HETATM   11  C   UNL     1       7.775  24.559  55.138  1.00  0.00     0.027 A 
HETATM   12  H   UNL     1       8.401  23.588  58.757  1.00  0.00     0.169 HD
ENDROOT
BRANCH   1  13
HETATM   13  C   UNL     1       7.491  26.985  55.882  1.00  0.00     0.136 C 
BRANCH  13  14
HETATM   14  N   UNL     1       6.345  27.433  56.676  1.00  0.00    -0.289 NA
HETATM   15  H   UNL     1       6.051  26.735  57.354  1.00  0.00     0.128 HD
BRANCH  14  16
HETATM   16  C   UNL     1       6.359  28.696  57.277  1.00  0.00     0.008 A 
HETATM   17  C   UNL     1       5.170  29.441  57.262  1.00  0.00     0.026 A 
HETATM   18  C   UNL     1       5.103  30.735  57.793  1.00  0.00     0.038 A 
HETATM   19  C   UNL     1       6.238  31.320  58.343  1.00  0.00     0.068 A 
HETATM   20  C   UNL     1       7.434  30.605  58.337  1.00  0.00     0.038 A 
HETATM   21  C   UNL     1       7.500  29.315  57.792  1.00  0.00     0.026 A 
BRANCH  19  22
HETATM   22  O   UNL     1       6.312  32.565  58.905  1.00  0.00    -0.352 OA
BRANCH  22  23
HETATM   23  C   UNL     1       6.635  32.629  60.292  1.00  0.00     0.171 C 
HETATM   24  C   UNL     1       5.338  32.591  61.080  1.00  0.00     0.034 C 
ENDBRANCH  22  23
ENDBRANCH  19  22
ENDBRANCH  14  16
ENDBRANCH  13  14
ENDBRANCH   1  13
BRANCH   9  25
HETATM   25  O   UNL     1       8.099  19.931  53.820  1.00  0.00    -0.356 OA
HETATM   26  C   UNL     1       8.292  20.464  52.516  1.00  0.00     0.210 C 
ENDBRANCH   9  25
TORSDOF 6
ENDMDL
MODEL 6
REMARK VINA RESULT:      -8.1      3.804     10.360
REMARK  6 active torsions:
REMARK  status: ('A' for Active; 'I' for Inactive)
REMARK    1  A    between atoms: C_2  and  O_3 
REMARK    2  A    between atoms: O_3  and  C_4 
REMARK    3  A    between atoms: C_7  and  N_8 
REMARK    4  A    between atoms: N_8  and  C_9 
REMARK    5  A    between atoms: C_9  and  C_10 
REMARK    6  A    between atoms: C_18  and  O_19 
ROOT
HETATM    1  C   UNL     1       8.264  31.533  60.727  1.00  0.00     0.024 A 
HETATM    2  C   UNL     1       7.224  32.311  59.982  1.00  0.00     0.253 A 
HETATM    3  O   UNL     1       7.052  32.163  58.774  1.00  0.00    -0.268 OA
HETATM    4  N   UNL     1       6.465  33.198  60.698  1.00  0.00    -0.322 N 
HETATM    5  C   UNL     1       6.606  33.406  62.073  1.00  0.00     0.045 A 
HETATM    6  C   UNL     1       7.583  32.693  62.772  1.00  0.00    -0.006 A 
HETATM    7  C   UNL     1       5.777  34.308  62.734  1.00  0.00     0.033 A 
HETATM    8  C   UNL     1       5.913  34.492  64.115  1.00  0.00     0.039 A 
HETATM    9  C   UNL     1       6.878  33.777  64.828  1.00  0.00     0.069 A 
HETATM   10  C   UNL     1       7.718  32.887  64.149  1.00  0.00     0.050 A 
HETATM   11  C   UNL     1       8.431  31.749  62.045  1.00  0.00     0.027 A 
HETATM   12  H   UNL     1       5.768  33.707  60.172  1.00  0.00     0.169 HD
ENDROOT
BRANCH   1  13
HETATM   13  C   UNL     1       9.031  30.562  59.865  1.00  0.00     0.136 C 
BRANCH  13  14
HETATM   14  N   UNL     1       8.184  29.445  59.444  1.00  0.00    -0.289 NA
HETATM   15  H   UNL     1       7.249  29.500  59.842  1.00  0.00     0.128 HD
BRANCH  14  16
HETATM   16  C   UNL     1       8.098  29.100  58.090  1.00  0.00     0.008 A 
HETATM   17  C   UNL     1       9.155  29.482  57.250  1.00  0.00     0.026 A 
HETATM   18  C   UNL     1       9.132  29.226  55.873  1.00  0.00     0.038 A 
HETATM   19  C   UNL     1       8.035  28.589  55.303  1.00  0.00     0.068 A 
HETATM   20  C   UNL     1       6.964  28.233  56.119  1.00  0.00     0.038 A 
HETATM   21  C   UNL     1       6.985  28.503  57.495  1.00  0.00     0.026 A 
BRANCH  19  22
HETATM   22  O   UNL     1       7.887  28.267  53.982  1.00  0.00    -0.352 OA
BRANCH  22  23
HETATM   23  C   UNL     1       6.947  27.242  53.668  1.00  0.00     0.171 C 
HETATM   24  C   UNL     1       7.718  26.037  53.160  1.00  0.00     0.034 C 
ENDBRANCH  22  23
ENDBRANCH  19  22
ENDBRANCH  14  16
ENDBRANCH  13  14
ENDBRANCH   1  13
BRANCH   9  25
HETATM   25  O   UNL     1       7.104  33.858  66.174  1.00  0.00    -0.356 OA
HETATM   26  C   UNL     1       6.011  34.269  66.987  1.00  0.00     0.210 C 
ENDBRANCH   9  25
TORSDOF 6
ENDMDL
MODEL 7
REMARK VINA RESULT:      -7.9      6.460      9.071
REMARK  6 active torsions:
REMARK  status: ('A' for Active; 'I' for Inactive)
REMARK    1  A    between atoms: C_2  and  O_3 
REMARK    2  A    between atoms: O_3  and  C_4 
REMARK    3  A    between atoms: C_7  and  N_8 
REMARK    4  A    between atoms: N_8  and  C_9 
REMARK    5  A    between atoms: C_9  and  C_10 
REMARK    6  A    between atoms: C_18  and  O_19 
ROOT
HETATM    1  C   UNL     1       5.958  26.320  52.349  1.00  0.00     0.024 A 
HETATM    2  C   UNL     1       6.007  26.889  53.733  1.00  0.00     0.253 A 
HETATM    3  O   UNL     1       5.456  27.951  54.011  1.00  0.00    -0.268 OA
HETATM    4  N   UNL     1       6.691  26.179  54.684  1.00  0.00    -0.322 N 
HETATM    5  C   UNL     1       7.332  24.963  54.432  1.00  0.00     0.045 A 
HETATM    6  C   UNL     1       7.302  24.433  53.140  1.00  0.00    -0.006 A 
HETATM    7  C   UNL     1       7.986  24.289  55.461  1.00  0.00     0.033 A 
HETATM    8  C   UNL     1       8.605  23.061  55.202  1.00  0.00     0.039 A 
HETATM    9  C   UNL     1       8.572  22.514  53.917  1.00  0.00     0.069 A 
HETATM   10  C   UNL     1       7.929  23.209  52.888  1.00  0.00     0.050 A 
HETATM   11  C   UNL     1       6.600  25.166  52.088  1.00  0.00     0.027 A 
HETATM   12  H   UNL     1       6.705  26.584  55.610  1.00  0.00     0.169 HD
ENDROOT
BRANCH   1  13
HETATM   13  C   UNL     1       5.162  27.153  51.376  1.00  0.00     0.136 C 
BRANCH  13  14
HETATM   14  N   UNL     1       5.386  26.714  49.998  1.00  0.00    -0.289 NA
HETATM   15  H   UNL     1       5.869  25.820  49.953  1.00  0.00     0.128 HD
BRANCH  14  16
HETATM   16  C   UNL     1       4.333  26.726  49.077  1.00  0.00     0.008 A 
HETATM   17  C   UNL     1       3.426  27.795  49.135  1.00  0.00     0.026 A 
HETATM   18  C   UNL     1       2.312  27.864  48.288  1.00  0.00     0.038 A 
HETATM   19  C   UNL     1       2.075  26.848  47.368  1.00  0.00     0.068 A 
HETATM   20  C   UNL     1       2.949  25.765  47.320  1.00  0.00     0.038 A 
HETATM   21  C   UNL     1       4.055  25.693  48.179  1.00  0.00     0.026 A 
BRANCH  19  22
HETATM   22  O   UNL     1       1.039  26.795  46.476  1.00  0.00    -0.352 OA
BRANCH  22  23
HETATM   23  C   UNL     1       0.134  27.896  46.470  1.00  0.00     0.171 C 
HETATM   24  C   UNL     1      -0.661  27.844  45.178  1.00  0.00     0.034 C 
ENDBRANCH  22  23
ENDBRANCH  19  22
ENDBRANCH  14  16
ENDBRANCH  13  14
ENDBRANCH   1  13
BRANCH   9  25
HETATM   25  O   UNL     1       9.128  21.323  53.538  1.00  0.00    -0.356 OA
HETATM   26  C   UNL     1       8.286  20.414  52.838  1.00  0.00     0.210 C 
ENDBRANCH   9  25
TORSDOF 6
ENDMDL
MODEL 8
REMARK VINA RESULT:      -7.9      5.653     11.970
REMARK  6 active torsions:
REMARK  status: ('A' for Active; 'I' for Inactive)
REMARK    1  A    between atoms: C_2  and  O_3 
REMARK    2  A    between atoms: O_3  and  C_4 
REMARK    3  A    between atoms: C_7  and  N_8 
REMARK    4  A    between atoms: N_8  and  C_9 
REMARK    5  A    between atoms: C_9  and  C_10 
REMARK    6  A    between atoms: C_18  and  O_19 
ROOT
HETATM    1  C   UNL     1       7.151  32.707  63.704  1.00  0.00     0.024 A 
HETATM    2  C   UNL     1       5.705  32.584  63.335  1.00  0.00     0.253 A 
HETATM    3  O   UNL     1       5.353  32.068  62.277  1.00  0.00    -0.268 OA
HETATM    4  N   UNL     1       4.783  33.068  64.225  1.00  0.00    -0.322 N 
HETATM    5  C   UNL     1       5.119  33.658  65.446  1.00  0.00     0.045 A 
HETATM    6  C   UNL     1       6.466  33.788  65.791  1.00  0.00    -0.006 A 
HETATM    7  C   UNL     1       4.120  34.103  66.309  1.00  0.00     0.033 A 
HETATM    8  C   UNL     1       4.468  34.672  67.538  1.00  0.00     0.039 A 
HETATM    9  C   UNL     1       5.811  34.797  67.901  1.00  0.00     0.069 A 
HETATM   10  C   UNL     1       6.807  34.364  67.018  1.00  0.00     0.050 A 
HETATM   11  C   UNL     1       7.487  33.303  64.863  1.00  0.00     0.027 A 
HETATM   12  H   UNL     1       3.814  32.969  63.953  1.00  0.00     0.169 HD
ENDROOT
BRANCH   1  13
HETATM   13  C   UNL     1       8.092  32.123  62.680  1.00  0.00     0.136 C 
BRANCH  13  14
HETATM   14  N   UNL     1       7.907  32.754  61.373  1.00  0.00    -0.289 NA
HETATM   15  H   UNL     1       8.302  33.691  61.338  1.00  0.00     0.128 HD
BRANCH  14  16
HETATM   16  C   UNL     1       8.241  32.060  60.204  1.00  0.00     0.008 A 
HETATM   17  C   UNL     1       7.199  31.470  59.474  1.00  0.00     0.026 A 
HETATM   18  C   UNL     1       7.443  30.712  58.321  1.00  0.00     0.038 A 
HETATM   19  C   UNL     1       8.748  30.517  57.881  1.00  0.00     0.068 A 
HETATM   20  C   UNL     1       9.796  31.071  58.614  1.00  0.00     0.038 A 
HETATM   21  C   UNL     1       9.548  31.818  59.774  1.00  0.00     0.026 A 
BRANCH  19  22
HETATM   22  O   UNL     1       9.128  29.815  56.771  1.00  0.00    -0.352 OA
BRANCH  22  23
HETATM   23  C   UNL     1       8.214  28.835  56.283  1.00  0.00     0.171 C 
HETATM   24  C   UNL     1       8.458  27.544  57.043  1.00  0.00     0.034 C 
ENDBRANCH  22  23
ENDBRANCH  19  22
ENDBRANCH  14  16
ENDBRANCH  13  14
ENDBRANCH   1  13
BRANCH   9  25
HETATM   25  O   UNL     1       6.280  35.323  69.073  1.00  0.00    -0.356 OA
HETATM   26  C   UNL     1       7.669  35.168  69.338  1.00  0.00     0.210 C 
ENDBRANCH   9  25
TORSDOF 6
ENDMDL
MODEL 9
REMARK VINA RESULT:      -7.9      3.904      7.090
REMARK  6 active torsions:
REMARK  status: ('A' for Active; 'I' for Inactive)
REMARK    1  A    between atoms: C_2  and  O_3 
REMARK    2  A    between atoms: O_3  and  C_4 
REMARK    3  A    between atoms: C_7  and  N_8 
REMARK    4  A    between atoms: N_8  and  C_9 
REMARK    5  A    between atoms: C_9  and  C_10 
REMARK    6  A    between atoms: C_18  and  O_19 
ROOT
HETATM    1  C   UNL     1       8.518  31.489  59.202  1.00  0.00     0.024 A 
HETATM    2  C   UNL     1       9.744  31.295  58.364  1.00  0.00     0.253 A 
HETATM    3  O   UNL     1      10.755  31.970  58.540  1.00  0.00    -0.268 OA
HETATM    4  N   UNL     1       9.699  30.332  57.391  1.00  0.00    -0.322 N 
HETATM    5  C   UNL     1       8.582  29.528  57.147  1.00  0.00     0.045 A 
HETATM    6  C   UNL     1       7.431  29.712  57.915  1.00  0.00    -0.006 A 
HETATM    7  C   UNL     1       8.625  28.552  56.154  1.00  0.00     0.033 A 
HETATM    8  C   UNL     1       7.509  27.737  55.934  1.00  0.00     0.039 A 
HETATM    9  C   UNL     1       6.355  27.903  56.704  1.00  0.00     0.069 A 
HETATM   10  C   UNL     1       6.317  28.899  57.686  1.00  0.00     0.050 A 
HETATM   11  C   UNL     1       7.426  30.741  58.954  1.00  0.00     0.027 A 
HETATM   12  H   UNL     1      10.541  30.220  56.843  1.00  0.00     0.169 HD
ENDROOT
BRANCH   1  13
HETATM   13  C   UNL     1       8.667  32.548  60.264  1.00  0.00     0.136 C 
BRANCH  13  14
HETATM   14  N   UNL     1       8.606  31.964  61.605  1.00  0.00    -0.289 NA
HETATM   15  H   UNL     1       9.495  32.030  62.094  1.00  0.00     0.128 HD
BRANCH  14  16
HETATM   16  C   UNL     1       7.564  32.308  62.473  1.00  0.00     0.008 A 
HETATM   17  C   UNL     1       7.904  32.883  63.707  1.00  0.00     0.026 A 
HETATM   18  C   UNL     1       6.932  33.211  64.661  1.00  0.00     0.038 A 
HETATM   19  C   UNL     1       5.590  32.956  64.402  1.00  0.00     0.068 A 
HETATM   20  C   UNL     1       5.240  32.356  63.194  1.00  0.00     0.038 A 
HETATM   21  C   UNL     1       6.217  32.017  62.247  1.00  0.00     0.026 A 
BRANCH  19  22
HETATM   22  O   UNL     1       4.541  33.236  65.233  1.00  0.00    -0.352 OA
BRANCH  22  23
HETATM   23  C   UNL     1       4.808  34.084  66.347  1.00  0.00     0.171 C 
HETATM   24  C   UNL     1       3.636  35.036  66.505  1.00  0.00     0.034 C 
ENDBRANCH  22  23
ENDBRANCH  19  22
ENDBRANCH  14  16
ENDBRANCH  13  14
ENDBRANCH   1  13
BRANCH   9  25
HETATM   25  O   UNL     1       5.206  27.168  56.595  1.00  0.00    -0.356 OA
HETATM   26  C   UNL     1       5.335  25.755  56.691  1.00  0.00     0.210 C 
ENDBRANCH   9  25
TORSDOF 6
ENDMDL
MODEL 10
REMARK VINA RESULT:      -7.8      2.082      9.372
REMARK  6 active torsions:
REMARK  status: ('A' for Active; 'I' for Inactive)
REMARK    1  A    between atoms: C_2  and  O_3 
REMARK    2  A    between atoms: O_3  and  C_4 
REMARK    3  A    between atoms: C_7  and  N_8 
REMARK    4  A    between atoms: N_8  and  C_9 
REMARK    5  A    between atoms: C_9  and  C_10 
REMARK    6  A    between atoms: C_18  and  O_19 
ROOT
HETATM    1  C   UNL     1       7.760  29.190  57.557  1.00  0.00     0.024 A 
HETATM    2  C   UNL     1       6.638  30.031  57.032  1.00  0.00     0.253 A 
HETATM    3  O   UNL     1       6.094  29.780  55.959  1.00  0.00    -0.268 OA
HETATM    4  N   UNL     1       6.235  31.095  57.795  1.00  0.00    -0.322 N 
HETATM    5  C   UNL     1       6.807  31.427  59.026  1.00  0.00     0.045 A 
HETATM    6  C   UNL     1       7.863  30.655  59.516  1.00  0.00    -0.006 A 
HETATM    7  C   UNL     1       6.323  32.511  59.755  1.00  0.00     0.033 A 
HETATM    8  C   UNL     1       6.889  32.821  60.996  1.00  0.00     0.039 A 
HETATM    9  C   UNL     1       7.937  32.050  61.503  1.00  0.00     0.069 A 
HETATM   10  C   UNL     1       8.428  30.975  60.754  1.00  0.00     0.050 A 
HETATM   11  C   UNL     1       8.340  29.521  58.727  1.00  0.00     0.027 A 
HETATM   12  H   UNL     1       5.474  31.643  57.419  1.00  0.00     0.169 HD
ENDROOT
BRANCH   1  13
HETATM   13  C   UNL     1       8.117  28.027  56.667  1.00  0.00     0.136 C 
BRANCH  13  14
HETATM   14  N   UNL     1       8.246  26.790  57.439  1.00  0.00    -0.289 NA
HETATM   15  H   UNL     1       7.742  26.834  58.322  1.00  0.00     0.128 HD
BRANCH  14  16
HETATM   16  C   UNL     1       8.015  25.553  56.827  1.00  0.00     0.008 A 
HETATM   17  C   UNL     1       8.669  24.430  57.356  1.00  0.00     0.026 A 
HETATM   18  C   UNL     1       8.539  23.161  56.777  1.00  0.00     0.038 A 
HETATM   19  C   UNL     1       7.756  22.992  55.640  1.00  0.00     0.068 A 
HETATM   20  C   UNL     1       7.126  24.104  55.086  1.00  0.00     0.038 A 
HETATM   21  C   UNL     1       7.269  25.375  55.660  1.00  0.00     0.026 A 
BRANCH  19  22
HETATM   22  O   UNL     1       7.533  21.814  54.983  1.00  0.00    -0.352 OA
BRANCH  22  23
HETATM   23  C   UNL     1       8.636  21.247  54.280  1.00  0.00     0.171 C 
HETATM   24  C   UNL     1       8.100  20.572  53.030  1.00  0.00     0.034 C 
ENDBRANCH  22  23
ENDBRANCH  19  22
ENDBRANCH  14  16
ENDBRANCH  13  14
ENDBRANCH   1  13
BRANCH   9  25
HETATM   25  O   UNL     1       8.567  32.241  62.702  1.00  0.00    -0.356 OA
HETATM   26  C   UNL     1       7.780  32.766  63.765  1.00  0.00     0.210 C 
ENDBRANCH   9  25
TORSDOF 6
ENDMDL
