MODEL 1
REMARK VINA RESULT:     -11.6      0.000      0.000
REMARK  4 active torsions:
REMARK  status: ('A' for Active; 'I' for Inactive)
REMARK    1  A    between atoms: C_4  and  C_5 
REMARK    2  A    between atoms: C_6  and  N_7 
REMARK    3  A    between atoms: C_9  and  C_10 
REMARK       I    between atoms: C_10  and  N_11 
REMARK    4  A    between atoms: N_11  and  C_12 
ROOT
HETATM    1  C   UNL     1       7.302  24.474  55.065  1.00  0.00     0.019 A 
HETATM    2  C   UNL     1       7.372  25.209  56.206  1.00  0.00     0.111 A 
HETATM    3  C   UNL     1       7.973  24.576  57.460  1.00  0.00     0.273 A 
HETATM    4  O   UNL     1       8.003  25.157  58.546  1.00  0.00    -0.266 OA
HETATM    5  N   UNL     1       8.477  23.313  57.360  1.00  0.00    -0.321 N 
HETATM    6  C   UNL     1       8.435  22.554  56.195  1.00  0.00     0.046 A 
HETATM    7  C   UNL     1       7.856  23.092  55.040  1.00  0.00     0.006 A 
HETATM    8  C   UNL     1       8.969  21.263  56.211  1.00  0.00     0.032 A 
HETATM    9  C   UNL     1       8.927  20.485  55.056  1.00  0.00     0.026 A 
HETATM   10  C   UNL     1       8.356  21.006  53.897  1.00  0.00     0.035 A 
HETATM   11 CL   UNL     1       8.301  20.044  52.471  1.00  0.00    -0.084 Cl
HETATM   12  C   UNL     1       7.827  22.298  53.883  1.00  0.00     0.038 A 
HETATM   13  H   UNL     1       8.871  22.935  58.209  1.00  0.00     0.169 HD
ENDROOT
BRANCH   2  14
HETATM   14  N   UNL     1       6.875  26.535  56.330  1.00  0.00    -0.375 N 
HETATM   15  C   UNL     1       7.697  27.496  57.105  1.00  0.00     0.137 C 
HETATM   16  C   UNL     1       7.220  28.940  56.930  1.00  0.00     0.096 C 
HETATM   17  C   UNL     1       5.711  29.085  57.146  1.00  0.00     0.017 C 
HETATM   18  C   UNL     1       4.953  28.075  56.292  1.00  0.00     0.021 C 
HETATM   19  C   UNL     1       5.427  26.658  56.595  1.00  0.00     0.123 C 
BRANCH  16  20
HETATM   20  C   UNL     1       8.002  29.874  57.856  1.00  0.00     0.229 C 
HETATM   21  N   UNL     1       7.445  30.011  59.116  1.00  0.00    -0.311 N 
HETATM   22  H   UNL     1       6.611  29.488  59.333  1.00  0.00     0.170 HD
HETATM   23  O   UNL     1       9.025  30.414  57.445  1.00  0.00    -0.273 OA
BRANCH  21  24
HETATM   24  C   UNL     1       7.958  30.786  60.165  1.00  0.00     0.129 A 
HETATM   25  N   UNL     1       9.082  30.430  60.809  1.00  0.00    -0.243 NA
HETATM   26  C   UNL     1       9.520  31.224  61.808  1.00  0.00     0.119 A 
HETATM   27  C   UNL     1       8.877  32.381  62.210  1.00  0.00     0.019 A 
HETATM   28  C   UNL     1       7.715  32.743  61.543  1.00  0.00     0.005 A 
HETATM   29  C   UNL     1       7.251  31.938  60.503  1.00  0.00     0.050 A 
ENDBRANCH  21  24
ENDBRANCH  16  20
ENDBRANCH   2  14
BRANCH   1  30
HETATM   30  C   UNL     1       6.661  25.100  53.880  1.00  0.00    -0.023 A 
HETATM   31  C   UNL     1       7.390  25.953  53.042  1.00  0.00     0.012 A 
HETATM   32  C   UNL     1       6.791  26.499  51.905  1.00  0.00     0.001 A 
HETATM   33  C   UNL     1       5.464  26.198  51.600  1.00  0.00     0.000 A 
HETATM   34  C   UNL     1       4.730  25.353  52.433  1.00  0.00     0.001 A 
HETATM   35  C   UNL     1       5.326  24.805  53.569  1.00  0.00     0.012 A 
ENDBRANCH   1  30
TORSDOF 4
ENDMDL
MODEL 2
REMARK VINA RESULT:      -9.9      3.410      8.875
REMARK  4 active torsions:
REMARK  status: ('A' for Active; 'I' for Inactive)
REMARK    1  A    between atoms: C_4  and  C_5 
REMARK    2  A    between atoms: C_6  and  N_7 
REMARK    3  A    between atoms: C_9  and  C_10 
REMARK       I    between atoms: C_10  and  N_11 
REMARK    4  A    between atoms: N_11  and  C_12 
ROOT
HETATM    1  C   UNL     1       6.858  30.290  57.668  1.00  0.00     0.019 A 
HETATM    2  C   UNL     1       7.731  29.400  57.127  1.00  0.00     0.111 A 
HETATM    3  C   UNL     1       9.145  29.308  57.701  1.00  0.00     0.273 A 
HETATM    4  O   UNL     1      10.009  28.577  57.216  1.00  0.00    -0.266 OA
HETATM    5  N   UNL     1       9.447  30.081  58.781  1.00  0.00    -0.321 N 
HETATM    6  C   UNL     1       8.560  30.981  59.363  1.00  0.00     0.046 A 
HETATM    7  C   UNL     1       7.271  31.116  58.836  1.00  0.00     0.006 A 
HETATM    8  C   UNL     1       8.984  31.736  60.460  1.00  0.00     0.032 A 
HETATM    9  C   UNL     1       8.110  32.648  61.048  1.00  0.00     0.026 A 
HETATM   10  C   UNL     1       6.823  32.795  60.537  1.00  0.00     0.035 A 
HETATM   11 CL   UNL     1       5.745  33.924  61.261  1.00  0.00    -0.084 Cl
HETATM   12  C   UNL     1       6.401  32.036  59.443  1.00  0.00     0.038 A 
HETATM   13  H   UNL     1      10.389  29.984  59.134  1.00  0.00     0.169 HD
ENDROOT
BRANCH   2  14
HETATM   14  N   UNL     1       7.432  28.566  56.016  1.00  0.00    -0.375 N 
HETATM   15  C   UNL     1       7.429  27.102  56.251  1.00  0.00     0.137 C 
HETATM   16  C   UNL     1       6.819  26.328  55.079  1.00  0.00     0.096 C 
HETATM   17  C   UNL     1       7.414  26.749  53.732  1.00  0.00     0.017 C 
HETATM   18  C   UNL     1       7.351  28.263  53.574  1.00  0.00     0.021 C 
HETATM   19  C   UNL     1       8.058  28.951  54.735  1.00  0.00     0.123 C 
BRANCH  16  20
HETATM   20  C   UNL     1       6.968  24.822  55.302  1.00  0.00     0.229 C 
HETATM   21  N   UNL     1       7.814  24.202  54.399  1.00  0.00    -0.311 N 
HETATM   22  H   UNL     1       8.272  24.768  53.702  1.00  0.00     0.170 HD
HETATM   23  O   UNL     1       6.360  24.285  56.224  1.00  0.00    -0.273 OA
BRANCH  21  24
HETATM   24  C   UNL     1       8.145  22.840  54.380  1.00  0.00     0.129 A 
HETATM   25  N   UNL     1       8.808  22.270  55.399  1.00  0.00    -0.243 NA
HETATM   26  C   UNL     1       9.091  20.953  55.315  1.00  0.00     0.119 A 
HETATM   27  C   UNL     1       8.744  20.157  54.238  1.00  0.00     0.019 A 
HETATM   28  C   UNL     1       8.062  20.752  53.186  1.00  0.00     0.005 A 
HETATM   29  C   UNL     1       7.753  22.110  53.259  1.00  0.00     0.050 A 
ENDBRANCH  21  24
ENDBRANCH  16  20
ENDBRANCH   2  14
BRANCH   1  30
HETATM   30  C   UNL     1       5.511  30.395  57.050  1.00  0.00    -0.023 A 
HETATM   31  C   UNL     1       4.433  29.658  57.559  1.00  0.00     0.012 A 
HETATM   32  C   UNL     1       3.162  29.800  57.001  1.00  0.00     0.001 A 
HETATM   33  C   UNL     1       2.959  30.675  55.934  1.00  0.00     0.000 A 
HETATM   34  C   UNL     1       4.027  31.407  55.419  1.00  0.00     0.001 A 
HETATM   35  C   UNL     1       5.300  31.269  55.975  1.00  0.00     0.012 A 
ENDBRANCH   1  30
TORSDOF 4
ENDMDL
MODEL 3
REMARK VINA RESULT:      -9.7      3.691      9.078
REMARK  4 active torsions:
REMARK  status: ('A' for Active; 'I' for Inactive)
REMARK    1  A    between atoms: C_4  and  C_5 
REMARK    2  A    between atoms: C_6  and  N_7 
REMARK    3  A    between atoms: C_9  and  C_10 
REMARK       I    between atoms: C_10  and  N_11 
REMARK    4  A    between atoms: N_11  and  C_12 
ROOT
HETATM    1  C   UNL     1       6.193  31.143  58.442  1.00  0.00     0.019 A 
HETATM    2  C   UNL     1       7.179  30.234  58.223  1.00  0.00     0.111 A 
HETATM    3  C   UNL     1       8.381  30.203  59.166  1.00  0.00     0.273 A 
HETATM    4  O   UNL     1       9.344  29.456  58.987  1.00  0.00    -0.266 OA
HETATM    5  N   UNL     1       8.379  31.052  60.232  1.00  0.00    -0.321 N 
HETATM    6  C   UNL     1       7.368  31.974  60.486  1.00  0.00     0.046 A 
HETATM    7  C   UNL     1       6.273  32.052  59.619  1.00  0.00     0.006 A 
HETATM    8  C   UNL     1       7.477  32.807  61.602  1.00  0.00     0.032 A 
HETATM    9  C   UNL     1       6.479  33.742  61.866  1.00  0.00     0.026 A 
HETATM   10  C   UNL     1       5.381  33.833  61.014  1.00  0.00     0.035 A 
HETATM   11 CL   UNL     1       4.148  34.990  61.337  1.00  0.00    -0.084 Cl
HETATM   12  C   UNL     1       5.272  32.996  59.901  1.00  0.00     0.038 A 
HETATM   13  H   UNL     1       9.188  30.994  60.834  1.00  0.00     0.169 HD
ENDROOT
BRANCH   2  14
HETATM   14  N   UNL     1       7.194  29.323  57.132  1.00  0.00    -0.375 N 
HETATM   15  C   UNL     1       7.011  27.886  57.449  1.00  0.00     0.137 C 
HETATM   16  C   UNL     1       6.755  27.044  56.195  1.00  0.00     0.096 C 
HETATM   17  C   UNL     1       7.780  27.321  55.091  1.00  0.00     0.017 C 
HETATM   18  C   UNL     1       7.879  28.817  54.822  1.00  0.00     0.021 C 
HETATM   19  C   UNL     1       8.223  29.568  56.102  1.00  0.00     0.123 C 
BRANCH  16  20
HETATM   20  C   UNL     1       6.717  25.557  56.553  1.00  0.00     0.229 C 
HETATM   21  N   UNL     1       7.631  24.788  55.854  1.00  0.00    -0.311 N 
HETATM   22  H   UNL     1       8.248  25.247  55.203  1.00  0.00     0.170 HD
HETATM   23  O   UNL     1       5.919  25.160  57.397  1.00  0.00    -0.273 OA
BRANCH  21  24
HETATM   24  C   UNL     1       7.824  23.406  55.994  1.00  0.00     0.129 A 
HETATM   25  N   UNL     1       8.243  22.876  57.153  1.00  0.00    -0.243 NA
HETATM   26  C   UNL     1       8.405  21.537  57.217  1.00  0.00     0.119 A 
HETATM   27  C   UNL     1       8.170  20.681  56.156  1.00  0.00     0.019 A 
HETATM   28  C   UNL     1       7.739  21.236  54.959  1.00  0.00     0.005 A 
HETATM   29  C   UNL     1       7.559  22.616  54.877  1.00  0.00     0.050 A 
ENDBRANCH  21  24
ENDBRANCH  16  20
ENDBRANCH   2  14
BRANCH   1  30
HETATM   30  C   UNL     1       5.067  31.185  57.474  1.00  0.00    -0.023 A 
HETATM   31  C   UNL     1       3.955  30.348  57.637  1.00  0.00     0.012 A 
HETATM   32  C   UNL     1       2.881  30.428  56.749  1.00  0.00     0.001 A 
HETATM   33  C   UNL     1       2.911  31.341  55.695  1.00  0.00     0.000 A 
HETATM   34  C   UNL     1       4.017  32.173  55.523  1.00  0.00     0.001 A 
HETATM   35  C   UNL     1       5.092  32.097  56.410  1.00  0.00     0.012 A 
ENDBRANCH   1  30
TORSDOF 4
ENDMDL
MODEL 4
REMARK VINA RESULT:      -9.7      3.358      5.430
REMARK  4 active torsions:
REMARK  status: ('A' for Active; 'I' for Inactive)
REMARK    1  A    between atoms: C_4  and  C_5 
REMARK    2  A    between atoms: C_6  and  N_7 
REMARK    3  A    between atoms: C_9  and  C_10 
REMARK       I    between atoms: C_10  and  N_11 
REMARK    4  A    between atoms: N_11  and  C_12 
ROOT
HETATM    1  C   UNL     1       6.835  28.587  56.999  1.00  0.00     0.019 A 
HETATM    2  C   UNL     1       5.693  29.322  56.968  1.00  0.00     0.111 A 
HETATM    3  C   UNL     1       4.370  28.623  56.653  1.00  0.00     0.273 A 
HETATM    4  O   UNL     1       3.309  29.236  56.538  1.00  0.00    -0.266 OA
HETATM    5  N   UNL     1       4.388  27.271  56.480  1.00  0.00    -0.321 N 
HETATM    6  C   UNL     1       5.544  26.499  56.531  1.00  0.00     0.046 A 
HETATM    7  C   UNL     1       6.775  27.115  56.779  1.00  0.00     0.006 A 
HETATM    8  C   UNL     1       5.446  25.120  56.323  1.00  0.00     0.032 A 
HETATM    9  C   UNL     1       6.595  24.333  56.361  1.00  0.00     0.026 A 
HETATM   10  C   UNL     1       7.828  24.931  56.608  1.00  0.00     0.035 A 
HETATM   11 CL   UNL     1       9.249  23.960  56.652  1.00  0.00    -0.084 Cl
HETATM   12  C   UNL     1       7.923  26.308  56.820  1.00  0.00     0.038 A 
HETATM   13  H   UNL     1       3.493  26.848  56.281  1.00  0.00     0.169 HD
ENDROOT
BRANCH   2  14
HETATM   14  N   UNL     1       5.645  30.728  57.167  1.00  0.00    -0.375 N 
HETATM   15  C   UNL     1       5.502  31.209  58.563  1.00  0.00     0.137 C 
HETATM   16  C   UNL     1       5.752  32.715  58.686  1.00  0.00     0.096 C 
HETATM   17  C   UNL     1       4.955  33.522  57.656  1.00  0.00     0.017 C 
HETATM   18  C   UNL     1       5.184  32.969  56.255  1.00  0.00     0.021 C 
HETATM   19  C   UNL     1       4.827  31.488  56.201  1.00  0.00     0.123 C 
BRANCH  16  20
HETATM   20  C   UNL     1       5.453  33.189  60.109  1.00  0.00     0.229 C 
HETATM   21  N   UNL     1       6.298  32.656  61.067  1.00  0.00    -0.311 N 
HETATM   22  H   UNL     1       7.036  32.038  60.767  1.00  0.00     0.170 HD
HETATM   23  O   UNL     1       4.530  33.975  60.303  1.00  0.00    -0.273 OA
BRANCH  21  24
HETATM   24  C   UNL     1       6.264  32.929  62.442  1.00  0.00     0.129 A 
HETATM   25  N   UNL     1       5.099  33.070  63.094  1.00  0.00    -0.243 NA
HETATM   26  C   UNL     1       5.141  33.330  64.419  1.00  0.00     0.119 A 
HETATM   27  C   UNL     1       6.313  33.464  65.141  1.00  0.00     0.019 A 
HETATM   28  C   UNL     1       7.513  33.320  64.460  1.00  0.00     0.005 A 
HETATM   29  C   UNL     1       7.490  33.044  63.094  1.00  0.00     0.050 A 
ENDBRANCH  21  24
ENDBRANCH  16  20
ENDBRANCH   2  14
BRANCH   1  30
HETATM   30  C   UNL     1       8.110  29.306  57.252  1.00  0.00    -0.023 A 
HETATM   31  C   UNL     1       8.419  29.782  58.533  1.00  0.00     0.012 A 
HETATM   32  C   UNL     1       9.640  30.415  58.771  1.00  0.00     0.001 A 
HETATM   33  C   UNL     1      10.557  30.578  57.733  1.00  0.00     0.000 A 
HETATM   34  C   UNL     1      10.255  30.111  56.454  1.00  0.00     0.001 A 
HETATM   35  C   UNL     1       9.036  29.477  56.213  1.00  0.00     0.012 A 
ENDBRANCH   1  30
TORSDOF 4
ENDMDL
MODEL 5
REMARK VINA RESULT:      -9.1      3.727      5.559
REMARK  4 active torsions:
REMARK  status: ('A' for Active; 'I' for Inactive)
REMARK    1  A    between atoms: C_4  and  C_5 
REMARK    2  A    between atoms: C_6  and  N_7 
REMARK    3  A    between atoms: C_9  and  C_10 
REMARK       I    between atoms: C_10  and  N_11 
REMARK    4  A    between atoms: N_11  and  C_12 
ROOT
HETATM    1  C   UNL     1       6.112  27.944  55.021  1.00  0.00     0.019 A 
HETATM    2  C   UNL     1       5.078  28.779  54.741  1.00  0.00     0.111 A 
HETATM    3  C   UNL     1       3.988  28.312  53.777  1.00  0.00     0.273 A 
HETATM    4  O   UNL     1       3.061  29.041  53.423  1.00  0.00    -0.266 OA
HETATM    5  N   UNL     1       4.069  27.043  53.287  1.00  0.00    -0.321 N 
HETATM    6  C   UNL     1       5.108  26.166  53.580  1.00  0.00     0.046 A 
HETATM    7  C   UNL     1       6.141  26.578  54.430  1.00  0.00     0.006 A 
HETATM    8  C   UNL     1       5.097  24.890  53.008  1.00  0.00     0.032 A 
HETATM    9  C   UNL     1       6.135  24.002  53.283  1.00  0.00     0.026 A 
HETATM   10  C   UNL     1       7.170  24.396  54.128  1.00  0.00     0.035 A 
HETATM   11 CL   UNL     1       8.454  23.301  54.466  1.00  0.00    -0.084 Cl
HETATM   12  C   UNL     1       7.176  25.670  54.701  1.00  0.00     0.038 A 
HETATM   13  H   UNL     1       3.326  26.772  52.660  1.00  0.00     0.169 HD
ENDROOT
BRANCH   2  14
HETATM   14  N   UNL     1       4.958  30.098  55.257  1.00  0.00    -0.375 N 
HETATM   15  C   UNL     1       4.315  30.250  56.585  1.00  0.00     0.137 C 
HETATM   16  C   UNL     1       4.500  31.657  57.161  1.00  0.00     0.096 C 
HETATM   17  C   UNL     1       4.132  32.751  56.154  1.00  0.00     0.017 C 
HETATM   18  C   UNL     1       4.858  32.522  54.833  1.00  0.00     0.021 C 
HETATM   19  C   UNL     1       4.547  31.134  54.287  1.00  0.00     0.123 C 
BRANCH  16  20
HETATM   20  C   UNL     1       3.702  31.809  58.457  1.00  0.00     0.229 C 
HETATM   21  N   UNL     1       3.727  33.087  58.985  1.00  0.00    -0.311 N 
HETATM   22  H   UNL     1       4.230  33.805  58.486  1.00  0.00     0.170 HD
HETATM   23  O   UNL     1       3.115  30.835  58.923  1.00  0.00    -0.273 OA
BRANCH  21  24
HETATM   24  C   UNL     1       3.072  33.513  60.150  1.00  0.00     0.129 A 
HETATM   25  N   UNL     1       1.896  34.158  60.091  1.00  0.00    -0.243 NA
HETATM   26  C   UNL     1       1.321  34.536  61.252  1.00  0.00     0.119 A 
HETATM   27  C   UNL     1       1.874  34.301  62.498  1.00  0.00     0.019 A 
HETATM   28  C   UNL     1       3.091  33.637  62.553  1.00  0.00     0.005 A 
HETATM   29  C   UNL     1       3.697  33.232  61.364  1.00  0.00     0.050 A 
ENDBRANCH  21  24
ENDBRANCH  16  20
ENDBRANCH   2  14
BRANCH   1  30
HETATM   30  C   UNL     1       7.183  28.450  55.918  1.00  0.00    -0.023 A 
HETATM   31  C   UNL     1       8.347  29.021  55.387  1.00  0.00     0.012 A 
HETATM   32  C   UNL     1       9.326  29.536  56.238  1.00  0.00     0.001 A 
HETATM   33  C   UNL     1       9.150  29.483  57.621  1.00  0.00     0.000 A 
HETATM   34  C   UNL     1       7.997  28.911  58.157  1.00  0.00     0.001 A 
HETATM   35  C   UNL     1       7.015  28.396  57.309  1.00  0.00     0.012 A 
ENDBRANCH   1  30
TORSDOF 4
ENDMDL
MODEL 6
REMARK VINA RESULT:      -9.1      2.634      5.118
REMARK  4 active torsions:
REMARK  status: ('A' for Active; 'I' for Inactive)
REMARK    1  A    between atoms: C_4  and  C_5 
REMARK    2  A    between atoms: C_6  and  N_7 
REMARK    3  A    between atoms: C_9  and  C_10 
REMARK       I    between atoms: C_10  and  N_11 
REMARK    4  A    between atoms: N_11  and  C_12 
ROOT
HETATM    1  C   UNL     1       7.360  24.746  55.265  1.00  0.00     0.019 A 
HETATM    2  C   UNL     1       7.500  25.504  56.385  1.00  0.00     0.111 A 
HETATM    3  C   UNL     1       8.001  24.843  57.668  1.00  0.00     0.273 A 
HETATM    4  O   UNL     1       8.085  25.450  58.736  1.00  0.00    -0.266 OA
HETATM    5  N   UNL     1       8.350  23.526  57.615  1.00  0.00    -0.321 N 
HETATM    6  C   UNL     1       8.235  22.741  56.472  1.00  0.00     0.046 A 
HETATM    7  C   UNL     1       7.743  23.308  55.292  1.00  0.00     0.006 A 
HETATM    8  C   UNL     1       8.609  21.395  56.537  1.00  0.00     0.032 A 
HETATM    9  C   UNL     1       8.491  20.592  55.405  1.00  0.00     0.026 A 
HETATM   10  C   UNL     1       8.004  21.141  54.221  1.00  0.00     0.035 A 
HETATM   11 CL   UNL     1       7.855  20.148  52.823  1.00  0.00    -0.084 Cl
HETATM   12  C   UNL     1       7.635  22.487  54.159  1.00  0.00     0.038 A 
HETATM   13  H   UNL     1       8.683  23.130  58.482  1.00  0.00     0.169 HD
ENDROOT
BRANCH   2  14
HETATM   14  N   UNL     1       7.165  26.882  56.460  1.00  0.00    -0.375 N 
HETATM   15  C   UNL     1       5.968  27.330  55.709  1.00  0.00     0.137 C 
HETATM   16  C   UNL     1       5.540  28.750  56.091  1.00  0.00     0.096 C 
HETATM   17  C   UNL     1       6.711  29.738  56.059  1.00  0.00     0.017 C 
HETATM   18  C   UNL     1       7.880  29.202  56.876  1.00  0.00     0.021 C 
HETATM   19  C   UNL     1       8.297  27.826  56.371  1.00  0.00     0.123 C 
BRANCH  16  20
HETATM   20  C   UNL     1       4.396  29.221  55.192  1.00  0.00     0.229 C 
HETATM   21  N   UNL     1       4.776  29.472  53.885  1.00  0.00    -0.311 N 
HETATM   22  H   UNL     1       5.736  29.311  53.623  1.00  0.00     0.170 HD
HETATM   23  O   UNL     1       3.268  29.338  55.662  1.00  0.00    -0.273 OA
BRANCH  21  24
HETATM   24  C   UNL     1       3.933  29.896  52.848  1.00  0.00     0.129 A 
HETATM   25  N   UNL     1       3.837  31.193  52.515  1.00  0.00    -0.243 NA
HETATM   26  C   UNL     1       3.008  31.530  51.504  1.00  0.00     0.119 A 
HETATM   27  C   UNL     1       2.249  30.617  50.794  1.00  0.00     0.019 A 
HETATM   28  C   UNL     1       2.351  29.278  51.144  1.00  0.00     0.005 A 
HETATM   29  C   UNL     1       3.208  28.910  52.181  1.00  0.00     0.050 A 
ENDBRANCH  21  24
ENDBRANCH  16  20
ENDBRANCH   2  14
BRANCH   1  30
HETATM   30  C   UNL     1       6.816  25.407  54.051  1.00  0.00    -0.023 A 
HETATM   31  C   UNL     1       7.638  26.206  53.245  1.00  0.00     0.012 A 
HETATM   32  C   UNL     1       7.130  26.784  52.081  1.00  0.00     0.001 A 
HETATM   33  C   UNL     1       5.802  26.569  51.714  1.00  0.00     0.000 A 
HETATM   34  C   UNL     1       4.976  25.779  52.514  1.00  0.00     0.001 A 
HETATM   35  C   UNL     1       5.481  25.199  53.678  1.00  0.00     0.012 A 
ENDBRANCH   1  30
TORSDOF 4
ENDMDL
MODEL 7
REMARK VINA RESULT:      -9.0      6.677     13.442
REMARK  4 active torsions:
REMARK  status: ('A' for Active; 'I' for Inactive)
REMARK    1  A    between atoms: C_4  and  C_5 
REMARK    2  A    between atoms: C_6  and  N_7 
REMARK    3  A    between atoms: C_9  and  C_10 
REMARK       I    between atoms: C_10  and  N_11 
REMARK    4  A    between atoms: N_11  and  C_12 
ROOT
HETATM    1  C   UNL     1       5.188  36.669  63.123  1.00  0.00     0.019 A 
HETATM    2  C   UNL     1       4.875  36.211  61.882  1.00  0.00     0.111 A 
HETATM    3  C   UNL     1       4.702  37.216  60.743  1.00  0.00     0.273 A 
HETATM    4  O   UNL     1       4.349  36.880  59.612  1.00  0.00    -0.266 OA
HETATM    5  N   UNL     1       4.936  38.532  61.011  1.00  0.00    -0.321 N 
HETATM    6  C   UNL     1       5.280  39.016  62.269  1.00  0.00     0.046 A 
HETATM    7  C   UNL     1       5.408  38.126  63.340  1.00  0.00     0.006 A 
HETATM    8  C   UNL     1       5.482  40.390  62.432  1.00  0.00     0.032 A 
HETATM    9  C   UNL     1       5.817  40.893  63.687  1.00  0.00     0.026 A 
HETATM   10  C   UNL     1       5.950  40.020  64.764  1.00  0.00     0.035 A 
HETATM   11 CL   UNL     1       6.362  40.642  66.316  1.00  0.00    -0.084 Cl
HETATM   12  C   UNL     1       5.752  38.648  64.597  1.00  0.00     0.038 A 
HETATM   13  H   UNL     1       4.818  39.160  60.230  1.00  0.00     0.169 HD
ENDROOT
BRANCH   2  14
HETATM   14  N   UNL     1       4.648  34.843  61.572  1.00  0.00    -0.375 N 
HETATM   15  C   UNL     1       5.526  34.227  60.547  1.00  0.00     0.137 C 
HETATM   16  C   UNL     1       5.387  32.702  60.506  1.00  0.00     0.096 C 
HETATM   17  C   UNL     1       3.925  32.253  60.436  1.00  0.00     0.017 C 
HETATM   18  C   UNL     1       3.111  32.919  61.539  1.00  0.00     0.021 C 
HETATM   19  C   UNL     1       3.234  34.436  61.452  1.00  0.00     0.123 C 
BRANCH  16  20
HETATM   20  C   UNL     1       6.198  32.127  59.343  1.00  0.00     0.229 C 
HETATM   21  N   UNL     1       7.100  31.148  59.718  1.00  0.00    -0.311 N 
HETATM   22  H   UNL     1       7.141  30.877  60.689  1.00  0.00     0.170 HD
HETATM   23  O   UNL     1       6.004  32.548  58.206  1.00  0.00    -0.273 OA
BRANCH  21  24
HETATM   24  C   UNL     1       7.955  30.441  58.861  1.00  0.00     0.129 A 
HETATM   25  N   UNL     1       7.561  29.304  58.266  1.00  0.00    -0.243 NA
HETATM   26  C   UNL     1       8.435  28.677  57.451  1.00  0.00     0.119 A 
HETATM   27  C   UNL     1       9.716  29.136  57.196  1.00  0.00     0.019 A 
HETATM   28  C   UNL     1      10.118  30.310  57.815  1.00  0.00     0.005 A 
HETATM   29  C   UNL     1       9.226  30.976  58.655  1.00  0.00     0.050 A 
ENDBRANCH  21  24
ENDBRANCH  16  20
ENDBRANCH   2  14
BRANCH   1  30
HETATM   30  C   UNL     1       5.293  35.672  64.219  1.00  0.00    -0.023 A 
HETATM   31  C   UNL     1       6.437  34.875  64.351  1.00  0.00     0.012 A 
HETATM   32  C   UNL     1       6.546  33.974  65.412  1.00  0.00     0.001 A 
HETATM   33  C   UNL     1       5.515  33.863  66.344  1.00  0.00     0.000 A 
HETATM   34  C   UNL     1       4.370  34.649  66.216  1.00  0.00     0.001 A 
HETATM   35  C   UNL     1       4.259  35.551  65.157  1.00  0.00     0.012 A 
ENDBRANCH   1  30
TORSDOF 4
ENDMDL
MODEL 8
REMARK VINA RESULT:      -8.7      4.256      8.112
REMARK  4 active torsions:
REMARK  status: ('A' for Active; 'I' for Inactive)
REMARK    1  A    between atoms: C_4  and  C_5 
REMARK    2  A    between atoms: C_6  and  N_7 
REMARK    3  A    between atoms: C_9  and  C_10 
REMARK       I    between atoms: C_10  and  N_11 
REMARK    4  A    between atoms: N_11  and  C_12 
ROOT
HETATM    1  C   UNL     1       7.167  24.609  54.817  1.00  0.00     0.019 A 
HETATM    2  C   UNL     1       7.083  24.938  53.502  1.00  0.00     0.111 A 
HETATM    3  C   UNL     1       7.677  23.989  52.461  1.00  0.00     0.273 A 
HETATM    4  O   UNL     1       7.701  24.256  51.259  1.00  0.00    -0.266 OA
HETATM    5  N   UNL     1       8.210  22.813  52.899  1.00  0.00    -0.321 N 
HETATM    6  C   UNL     1       8.284  22.449  54.239  1.00  0.00     0.046 A 
HETATM    7  C   UNL     1       7.783  23.314  55.218  1.00  0.00     0.006 A 
HETATM    8  C   UNL     1       8.866  21.223  54.575  1.00  0.00     0.032 A 
HETATM    9  C   UNL     1       8.957  20.847  55.913  1.00  0.00     0.026 A 
HETATM   10  C   UNL     1       8.463  21.696  56.901  1.00  0.00     0.035 A 
HETATM   11 CL   UNL     1       8.577  21.232  58.554  1.00  0.00    -0.084 Cl
HETATM   12  C   UNL     1       7.877  22.918  56.561  1.00  0.00     0.038 A 
HETATM   13  H   UNL     1       8.584  22.213  52.179  1.00  0.00     0.169 HD
ENDROOT
BRANCH   2  14
HETATM   14  N   UNL     1       6.512  26.146  53.018  1.00  0.00    -0.375 N 
HETATM   15  C   UNL     1       5.764  26.077  51.739  1.00  0.00     0.137 C 
HETATM   16  C   UNL     1       4.959  27.351  51.468  1.00  0.00     0.096 C 
HETATM   17  C   UNL     1       5.803  28.618  51.637  1.00  0.00     0.017 C 
HETATM   18  C   UNL     1       6.511  28.609  52.986  1.00  0.00     0.021 C 
HETATM   19  C   UNL     1       7.358  27.351  53.135  1.00  0.00     0.123 C 
BRANCH  16  20
HETATM   20  C   UNL     1       4.324  27.292  50.078  1.00  0.00     0.229 C 
HETATM   21  N   UNL     1       3.137  27.996  49.973  1.00  0.00    -0.311 N 
HETATM   22  H   UNL     1       2.802  28.498  50.781  1.00  0.00     0.170 HD
HETATM   23  O   UNL     1       4.881  26.658  49.186  1.00  0.00    -0.273 OA
BRANCH  21  24
HETATM   24  C   UNL     1       2.354  28.126  48.817  1.00  0.00     0.129 A 
HETATM   25  N   UNL     1       1.512  27.154  48.434  1.00  0.00    -0.243 NA
HETATM   26  C   UNL     1       0.786  27.348  47.312  1.00  0.00     0.119 A 
HETATM   27  C   UNL     1       0.865  28.488  46.532  1.00  0.00     0.019 A 
HETATM   28  C   UNL     1       1.739  29.488  46.931  1.00  0.00     0.005 A 
HETATM   29  C   UNL     1       2.491  29.309  48.092  1.00  0.00     0.050 A 
ENDBRANCH  21  24
ENDBRANCH  16  20
ENDBRANCH   2  14
BRANCH   1  30
HETATM   30  C   UNL     1       6.631  25.579  55.806  1.00  0.00    -0.023 A 
HETATM   31  C   UNL     1       7.488  26.456  56.481  1.00  0.00     0.012 A 
HETATM   32  C   UNL     1       6.970  27.396  57.373  1.00  0.00     0.001 A 
HETATM   33  C   UNL     1       5.595  27.465  57.596  1.00  0.00     0.000 A 
HETATM   34  C   UNL     1       4.735  26.592  56.931  1.00  0.00     0.001 A 
HETATM   35  C   UNL     1       5.250  25.652  56.038  1.00  0.00     0.012 A 
ENDBRANCH   1  30
TORSDOF 4
ENDMDL
