MODEL 1
REMARK VINA RESULT:      -8.4      0.000      0.000
REMARK  3 active torsions:
REMARK  status: ('A' for Active; 'I' for Inactive)
REMARK    1  A    between atoms: C_2  and  N_3 
REMARK       I    between atoms: N_3  and  C_4 
REMARK    2  A    between atoms: C_4  and  C_5 
REMARK    3  A    between atoms: C_5  and  C_6 
ROOT
HETATM    1  C   UNL     1       6.582  27.046  56.097  1.00  0.00     0.286 C 
HETATM    2  N   UNL     1       7.608  27.324  55.000  1.00  0.00    -0.056 N 
HETATM    3  H   UNL     1       7.933  28.290  55.137  1.00  0.00     0.278 HD
HETATM    4  H   UNL     1       8.454  26.750  55.204  1.00  0.00     0.278 HD
HETATM    5  C   UNL     1       7.172  27.174  53.573  1.00  0.00     0.209 C 
HETATM    6  C   UNL     1       5.822  27.901  53.366  1.00  0.00     0.115 C 
HETATM    7  N   UNL     1       4.840  27.576  54.396  1.00  0.00    -0.353 N 
HETATM    8  C   UNL     1       5.156  27.480  55.727  1.00  0.00     0.249 C 
HETATM    9  O   UNL     1       4.285  27.630  56.578  1.00  0.00    -0.271 OA
HETATM   10  C   UNL     1       7.154  25.702  53.162  1.00  0.00     0.035 C 
HETATM   11  C   UNL     1       6.621  25.532  51.742  1.00  0.00     0.002 C 
HETATM   12  C   UNL     1       5.237  26.159  51.598  1.00  0.00     0.002 C 
HETATM   13  C   UNL     1       5.256  27.643  51.965  1.00  0.00     0.027 C 
HETATM   14  H   UNL     1       3.883  27.901  54.256  1.00  0.00     0.163 HD
ENDROOT
BRANCH   1  15
HETATM   15  C   UNL     1       6.523  25.576  56.545  1.00  0.00     0.146 C 
BRANCH  15  16
HETATM   16  C   UNL     1       7.638  25.187  57.472  1.00  0.00     0.224 C 
HETATM   17  N   UNL     1       8.357  24.047  57.312  1.00  0.00    -0.327 N 
HETATM   18  H   UNL     1       9.043  23.941  58.055  1.00  0.00     0.169 HD
HETATM   19  O   UNL     1       7.942  25.955  58.395  1.00  0.00    -0.273 OA
BRANCH  17  20
HETATM   20  C   UNL     1       8.375  23.017  56.349  1.00  0.00     0.034 A 
HETATM   21  C   UNL     1       8.012  21.684  56.558  1.00  0.00     0.031 A 
HETATM   22  C   UNL     1       8.053  20.758  55.505  1.00  0.00     0.026 A 
HETATM   23  C   UNL     1       8.456  21.155  54.235  1.00  0.00     0.034 A 
HETATM   24  C   UNL     1       8.822  22.473  54.007  1.00  0.00     0.026 A 
HETATM   25 CL   UNL     1       8.496  20.013  52.952  1.00  0.00    -0.084 Cl
HETATM   26  C   UNL     1       8.779  23.397  55.057  1.00  0.00     0.031 A 
ENDBRANCH  17  20
ENDBRANCH  15  16
ENDBRANCH   1  15
TORSDOF 3
ENDMDL
MODEL 2
REMARK VINA RESULT:      -8.4      3.705      6.556
REMARK  3 active torsions:
REMARK  status: ('A' for Active; 'I' for Inactive)
REMARK    1  A    between atoms: C_2  and  N_3 
REMARK       I    between atoms: N_3  and  C_4 
REMARK    2  A    between atoms: C_4  and  C_5 
REMARK    3  A    between atoms: C_5  and  C_6 
ROOT
HETATM    1  C   UNL     1       6.954  25.978  55.627  1.00  0.00     0.286 C 
HETATM    2  N   UNL     1       6.188  24.815  54.998  1.00  0.00    -0.056 N 
HETATM    3  H   UNL     1       5.354  24.662  55.579  1.00  0.00     0.278 HD
HETATM    4  H   UNL     1       5.797  25.147  54.091  1.00  0.00     0.278 HD
HETATM    5  C   UNL     1       6.900  23.504  54.844  1.00  0.00     0.209 C 
HETATM    6  C   UNL     1       7.609  23.142  56.171  1.00  0.00     0.115 C 
HETATM    7  N   UNL     1       8.379  24.252  56.723  1.00  0.00    -0.353 N 
HETATM    8  C   UNL     1       7.921  25.546  56.739  1.00  0.00     0.249 C 
HETATM    9  O   UNL     1       8.369  26.345  57.554  1.00  0.00    -0.271 OA
HETATM   10  C   UNL     1       7.829  23.529  53.630  1.00  0.00     0.035 C 
HETATM   11  C   UNL     1       8.628  22.233  53.520  1.00  0.00     0.002 C 
HETATM   12  C   UNL     1       9.408  21.961  54.803  1.00  0.00     0.002 C 
HETATM   13  C   UNL     1       8.481  21.891  56.016  1.00  0.00     0.027 C 
HETATM   14  H   UNL     1       8.988  24.056  57.517  1.00  0.00     0.163 HD
ENDROOT
BRANCH   1  15
HETATM   15  C   UNL     1       7.748  26.826  54.620  1.00  0.00     0.146 C 
BRANCH  15  16
HETATM   16  C   UNL     1       7.066  28.112  54.251  1.00  0.00     0.224 C 
HETATM   17  N   UNL     1       7.097  29.211  55.049  1.00  0.00    -0.327 N 
HETATM   18  H   UNL     1       6.552  29.969  54.647  1.00  0.00     0.169 HD
HETATM   19  O   UNL     1       6.486  28.190  53.160  1.00  0.00    -0.273 OA
BRANCH  17  20
HETATM   20  C   UNL     1       7.727  29.527  56.271  1.00  0.00     0.034 A 
HETATM   21  C   UNL     1       9.103  29.557  56.507  1.00  0.00     0.031 A 
HETATM   22  C   UNL     1       9.606  29.911  57.767  1.00  0.00     0.026 A 
HETATM   23  C   UNL     1       8.738  30.239  58.803  1.00  0.00     0.034 A 
HETATM   24  C   UNL     1       7.367  30.214  58.590  1.00  0.00     0.026 A 
HETATM   25 CL   UNL     1       9.365  30.677  60.342  1.00  0.00    -0.084 Cl
HETATM   26  C   UNL     1       6.867  29.862  57.331  1.00  0.00     0.031 A 
ENDBRANCH  17  20
ENDBRANCH  15  16
ENDBRANCH   1  15
TORSDOF 3
ENDMDL
MODEL 3
REMARK VINA RESULT:      -8.1      2.788      4.757
REMARK  3 active torsions:
REMARK  status: ('A' for Active; 'I' for Inactive)
REMARK    1  A    between atoms: C_2  and  N_3 
REMARK       I    between atoms: N_3  and  C_4 
REMARK    2  A    between atoms: C_4  and  C_5 
REMARK    3  A    between atoms: C_5  and  C_6 
ROOT
HETATM    1  C   UNL     1       6.073  28.049  56.684  1.00  0.00     0.286 C 
HETATM    2  N   UNL     1       7.336  27.362  57.200  1.00  0.00    -0.056 N 
HETATM    3  H   UNL     1       7.051  26.778  57.997  1.00  0.00     0.278 HD
HETATM    4  H   UNL     1       7.636  26.667  56.483  1.00  0.00     0.278 HD
HETATM    5  C   UNL     1       8.479  28.227  57.640  1.00  0.00     0.209 C 
HETATM    6  C   UNL     1       7.953  29.348  58.568  1.00  0.00     0.115 C 
HETATM    7  N   UNL     1       6.779  30.026  58.027  1.00  0.00    -0.353 N 
HETATM    8  C   UNL     1       5.748  29.362  57.411  1.00  0.00     0.249 C 
HETATM    9  O   UNL     1       4.634  29.872  57.358  1.00  0.00    -0.271 OA
HETATM   10  C   UNL     1       9.269  28.738  56.435  1.00  0.00     0.035 C 
HETATM   11  C   UNL     1      10.376  29.696  56.866  1.00  0.00     0.002 C 
HETATM   12  C   UNL     1       9.811  30.854  57.683  1.00  0.00     0.002 C 
HETATM   13  C   UNL     1       9.057  30.352  58.915  1.00  0.00     0.027 C 
HETATM   14  H   UNL     1       6.456  30.866  58.506  1.00  0.00     0.163 HD
ENDROOT
BRANCH   1  15
HETATM   15  C   UNL     1       6.089  28.341  55.174  1.00  0.00     0.146 C 
BRANCH  15  16
HETATM   16  C   UNL     1       4.937  27.727  54.433  1.00  0.00     0.224 C 
HETATM   17  N   UNL     1       4.980  26.466  53.931  1.00  0.00    -0.327 N 
HETATM   18  H   UNL     1       4.121  26.241  53.435  1.00  0.00     0.169 HD
HETATM   19  O   UNL     1       3.890  28.377  54.311  1.00  0.00    -0.273 OA
BRANCH  17  20
HETATM   20  C   UNL     1       5.925  25.419  53.968  1.00  0.00     0.034 A 
HETATM   21  C   UNL     1       6.224  24.615  55.070  1.00  0.00     0.031 A 
HETATM   22  C   UNL     1       7.173  23.587  54.970  1.00  0.00     0.026 A 
HETATM   23  C   UNL     1       7.832  23.354  53.768  1.00  0.00     0.034 A 
HETATM   24  C   UNL     1       7.551  24.143  52.662  1.00  0.00     0.026 A 
HETATM   25 CL   UNL     1       8.989  22.089  53.656  1.00  0.00    -0.084 Cl
HETATM   26  C   UNL     1       6.602  25.167  52.762  1.00  0.00     0.031 A 
ENDBRANCH  17  20
ENDBRANCH  15  16
ENDBRANCH   1  15
TORSDOF 3
ENDMDL
MODEL 4
REMARK VINA RESULT:      -8.0      3.391      6.207
REMARK  3 active torsions:
REMARK  status: ('A' for Active; 'I' for Inactive)
REMARK    1  A    between atoms: C_2  and  N_3 
REMARK       I    between atoms: N_3  and  C_4 
REMARK    2  A    between atoms: C_4  and  C_5 
REMARK    3  A    between atoms: C_5  and  C_6 
ROOT
HETATM    1  C   UNL     1       7.589  25.072  54.209  1.00  0.00     0.286 C 
HETATM    2  N   UNL     1       8.542  24.409  55.201  1.00  0.00    -0.056 N 
HETATM    3  H   UNL     1       9.462  24.849  55.067  1.00  0.00     0.278 HD
HETATM    4  H   UNL     1       8.264  24.711  56.159  1.00  0.00     0.278 HD
HETATM    5  C   UNL     1       8.719  22.922  55.123  1.00  0.00     0.209 C 
HETATM    6  C   UNL     1       8.959  22.506  53.651  1.00  0.00     0.115 C 
HETATM    7  N   UNL     1       8.001  23.109  52.730  1.00  0.00    -0.353 N 
HETATM    8  C   UNL     1       7.597  24.417  52.820  1.00  0.00     0.249 C 
HETATM    9  O   UNL     1       7.153  24.992  51.831  1.00  0.00    -0.271 OA
HETATM   10  C   UNL     1       7.548  22.200  55.789  1.00  0.00     0.035 C 
HETATM   11  C   UNL     1       7.671  20.687  55.631  1.00  0.00     0.002 C 
HETATM   12  C   UNL     1       7.790  20.298  54.160  1.00  0.00     0.002 C 
HETATM   13  C   UNL     1       8.986  20.981  53.498  1.00  0.00     0.027 C 
HETATM   14  H   UNL     1       8.001  22.778  51.765  1.00  0.00     0.163 HD
ENDROOT
BRANCH   1  15
HETATM   15  C   UNL     1       6.129  25.138  54.688  1.00  0.00     0.146 C 
BRANCH  15  16
HETATM   16  C   UNL     1       5.395  26.355  54.204  1.00  0.00     0.224 C 
HETATM   17  N   UNL     1       5.655  27.601  54.675  1.00  0.00    -0.327 N 
HETATM   18  H   UNL     1       5.035  28.288  54.254  1.00  0.00     0.169 HD
HETATM   19  O   UNL     1       4.547  26.224  53.310  1.00  0.00    -0.273 OA
BRANCH  17  20
HETATM   20  C   UNL     1       6.592  28.139  55.582  1.00  0.00     0.034 A 
HETATM   21  C   UNL     1       6.458  28.197  56.971  1.00  0.00     0.031 A 
HETATM   22  C   UNL     1       7.479  28.739  57.766  1.00  0.00     0.026 A 
HETATM   23  C   UNL     1       8.641  29.227  57.181  1.00  0.00     0.034 A 
HETATM   24  C   UNL     1       8.794  29.180  55.803  1.00  0.00     0.026 A 
HETATM   25 CL   UNL     1       9.887  29.883  58.166  1.00  0.00    -0.084 Cl
HETATM   26  C   UNL     1       7.776  28.637  55.010  1.00  0.00     0.031 A 
ENDBRANCH  17  20
ENDBRANCH  15  16
ENDBRANCH   1  15
TORSDOF 3
ENDMDL
MODEL 5
REMARK VINA RESULT:      -8.0      2.527      4.156
REMARK  3 active torsions:
REMARK  status: ('A' for Active; 'I' for Inactive)
REMARK    1  A    between atoms: C_2  and  N_3 
REMARK       I    between atoms: N_3  and  C_4 
REMARK    2  A    between atoms: C_4  and  C_5 
REMARK    3  A    between atoms: C_5  and  C_6 
ROOT
HETATM    1  C   UNL     1       5.265  27.223  54.014  1.00  0.00     0.286 C 
HETATM    2  N   UNL     1       5.016  26.757  55.447  1.00  0.00    -0.056 N 
HETATM    3  H   UNL     1       3.997  26.687  55.562  1.00  0.00     0.278 HD
HETATM    4  H   UNL     1       5.339  25.768  55.519  1.00  0.00     0.278 HD
HETATM    5  C   UNL     1       5.558  27.596  56.566  1.00  0.00     0.209 C 
HETATM    6  C   UNL     1       5.197  29.080  56.320  1.00  0.00     0.115 C 
HETATM    7  N   UNL     1       5.496  29.518  54.959  1.00  0.00    -0.353 N 
HETATM    8  C   UNL     1       5.235  28.750  53.852  1.00  0.00     0.249 C 
HETATM    9  O   UNL     1       5.096  29.282  52.755  1.00  0.00    -0.271 OA
HETATM   10  C   UNL     1       7.053  27.344  56.759  1.00  0.00     0.035 C 
HETATM   11  C   UNL     1       7.633  28.261  57.832  1.00  0.00     0.002 C 
HETATM   12  C   UNL     1       7.362  29.727  57.503  1.00  0.00     0.002 C 
HETATM   13  C   UNL     1       5.865  29.997  57.351  1.00  0.00     0.027 C 
HETATM   14  H   UNL     1       5.421  30.514  54.756  1.00  0.00     0.163 HD
ENDROOT
BRANCH   1  15
HETATM   15  C   UNL     1       6.583  26.714  53.407  1.00  0.00     0.146 C 
BRANCH  15  16
HETATM   16  C   UNL     1       6.386  25.762  52.263  1.00  0.00     0.224 C 
HETATM   17  N   UNL     1       6.698  24.443  52.348  1.00  0.00    -0.327 N 
HETATM   18  H   UNL     1       6.527  23.969  51.465  1.00  0.00     0.169 HD
HETATM   19  O   UNL     1       5.882  26.185  51.214  1.00  0.00    -0.273 OA
BRANCH  17  20
HETATM   20  C   UNL     1       7.172  23.604  53.379  1.00  0.00     0.034 A 
HETATM   21  C   UNL     1       6.970  23.785  54.749  1.00  0.00     0.031 A 
HETATM   22  C   UNL     1       7.477  22.861  55.675  1.00  0.00     0.026 A 
HETATM   23  C   UNL     1       8.190  21.750  55.240  1.00  0.00     0.034 A 
HETATM   24  C   UNL     1       8.403  21.552  53.883  1.00  0.00     0.026 A 
HETATM   25 CL   UNL     1       8.801  20.622  56.383  1.00  0.00    -0.084 Cl
HETATM   26  C   UNL     1       7.894  22.474  52.960  1.00  0.00     0.031 A 
ENDBRANCH  17  20
ENDBRANCH  15  16
ENDBRANCH   1  15
TORSDOF 3
ENDMDL
MODEL 6
REMARK VINA RESULT:      -7.9      4.459      6.904
REMARK  3 active torsions:
REMARK  status: ('A' for Active; 'I' for Inactive)
REMARK    1  A    between atoms: C_2  and  N_3 
REMARK       I    between atoms: N_3  and  C_4 
REMARK    2  A    between atoms: C_4  and  C_5 
REMARK    3  A    between atoms: C_5  and  C_6 
ROOT
HETATM    1  C   UNL     1       6.419  26.622  56.646  1.00  0.00     0.286 C 
HETATM    2  N   UNL     1       5.410  26.153  55.600  1.00  0.00    -0.056 N 
HETATM    3  H   UNL     1       4.638  25.708  56.112  1.00  0.00     0.278 HD
HETATM    4  H   UNL     1       4.969  27.000  55.181  1.00  0.00     0.278 HD
HETATM    5  C   UNL     1       5.882  25.199  54.543  1.00  0.00     0.209 C 
HETATM    6  C   UNL     1       6.680  24.049  55.203  1.00  0.00     0.115 C 
HETATM    7  N   UNL     1       7.676  24.526  56.158  1.00  0.00    -0.353 N 
HETATM    8  C   UNL     1       7.433  25.541  57.049  1.00  0.00     0.249 C 
HETATM    9  O   UNL     1       8.095  25.626  58.078  1.00  0.00    -0.271 OA
HETATM   10  C   UNL     1       6.651  25.939  53.448  1.00  0.00     0.035 C 
HETATM   11  C   UNL     1       7.217  24.966  52.417  1.00  0.00     0.002 C 
HETATM   12  C   UNL     1       8.094  23.911  53.085  1.00  0.00     0.002 C 
HETATM   13  C   UNL     1       7.319  23.136  54.151  1.00  0.00     0.027 C 
HETATM   14  H   UNL     1       8.337  23.845  56.530  1.00  0.00     0.163 HD
ENDROOT
BRANCH   1  15
HETATM   15  C   UNL     1       7.210  27.877  56.239  1.00  0.00     0.146 C 
BRANCH  15  16
HETATM   16  C   UNL     1       6.340  29.070  55.966  1.00  0.00     0.224 C 
HETATM   17  N   UNL     1       6.279  30.137  56.804  1.00  0.00    -0.327 N 
HETATM   18  H   UNL     1       5.612  30.827  56.468  1.00  0.00     0.169 HD
HETATM   19  O   UNL     1       5.684  29.103  54.916  1.00  0.00    -0.273 OA
BRANCH  17  20
HETATM   20  C   UNL     1       6.941  30.496  57.996  1.00  0.00     0.034 A 
HETATM   21  C   UNL     1       8.057  29.860  58.545  1.00  0.00     0.031 A 
HETATM   22  C   UNL     1       8.639  30.332  59.731  1.00  0.00     0.026 A 
HETATM   23  C   UNL     1       8.111  31.443  60.378  1.00  0.00     0.034 A 
HETATM   24  C   UNL     1       7.002  32.089  59.851  1.00  0.00     0.026 A 
HETATM   25 CL   UNL     1       8.836  32.016  61.827  1.00  0.00    -0.084 Cl
HETATM   26  C   UNL     1       6.424  31.618  58.666  1.00  0.00     0.031 A 
ENDBRANCH  17  20
ENDBRANCH  15  16
ENDBRANCH   1  15
TORSDOF 3
ENDMDL
MODEL 7
REMARK VINA RESULT:      -7.9      7.490      9.550
REMARK  3 active torsions:
REMARK  status: ('A' for Active; 'I' for Inactive)
REMARK    1  A    between atoms: C_2  and  N_3 
REMARK       I    between atoms: N_3  and  C_4 
REMARK    2  A    between atoms: C_4  and  C_5 
REMARK    3  A    between atoms: C_5  and  C_6 
ROOT
HETATM    1  C   UNL     1       6.811  31.847  60.517  1.00  0.00     0.286 C 
HETATM    2  N   UNL     1       6.839  31.146  61.873  1.00  0.00    -0.056 N 
HETATM    3  H   UNL     1       6.168  30.369  61.818  1.00  0.00     0.278 HD
HETATM    4  H   UNL     1       7.760  30.666  61.964  1.00  0.00     0.278 HD
HETATM    5  C   UNL     1       6.518  31.956  63.093  1.00  0.00     0.209 C 
HETATM    6  C   UNL     1       5.233  32.782  62.842  1.00  0.00     0.115 C 
HETATM    7  N   UNL     1       5.254  33.488  61.564  1.00  0.00    -0.353 N 
HETATM    8  C   UNL     1       5.719  32.921  60.404  1.00  0.00     0.249 C 
HETATM    9  O   UNL     1       5.343  33.351  59.318  1.00  0.00    -0.271 OA
HETATM   10  C   UNL     1       7.722  32.796  63.520  1.00  0.00     0.035 C 
HETATM   11  C   UNL     1       7.376  33.695  64.703  1.00  0.00     0.002 C 
HETATM   12  C   UNL     1       6.175  34.581  64.384  1.00  0.00     0.002 C 
HETATM   13  C   UNL     1       4.953  33.747  63.999  1.00  0.00     0.027 C 
HETATM   14  H   UNL     1       4.512  34.163  61.386  1.00  0.00     0.163 HD
ENDROOT
BRANCH   1  15
HETATM   15  C   UNL     1       8.147  32.495  60.116  1.00  0.00     0.146 C 
BRANCH  15  16
HETATM   16  C   UNL     1       9.347  31.675  60.494  1.00  0.00     0.224 C 
HETATM   17  N   UNL     1       9.843  30.695  59.696  1.00  0.00    -0.327 N 
HETATM   18  H   UNL     1      10.634  30.232  60.137  1.00  0.00     0.169 HD
HETATM   19  O   UNL     1       9.932  31.929  61.556  1.00  0.00    -0.273 OA
BRANCH  17  20
HETATM   20  C   UNL     1       9.523  30.210  58.411  1.00  0.00     0.034 A 
HETATM   21  C   UNL     1      10.345  30.254  57.283  1.00  0.00     0.031 A 
HETATM   22  C   UNL     1       9.916  29.714  56.063  1.00  0.00     0.026 A 
HETATM   23  C   UNL     1       8.661  29.125  55.958  1.00  0.00     0.034 A 
HETATM   24  C   UNL     1       7.827  29.072  57.066  1.00  0.00     0.026 A 
HETATM   25 CL   UNL     1       8.147  28.461  54.459  1.00  0.00    -0.084 Cl
HETATM   26  C   UNL     1       8.258  29.610  58.284  1.00  0.00     0.031 A 
ENDBRANCH  17  20
ENDBRANCH  15  16
ENDBRANCH   1  15
TORSDOF 3
ENDMDL
MODEL 8
REMARK VINA RESULT:      -7.9      2.594      5.472
REMARK  3 active torsions:
REMARK  status: ('A' for Active; 'I' for Inactive)
REMARK    1  A    between atoms: C_2  and  N_3 
REMARK       I    between atoms: N_3  and  C_4 
REMARK    2  A    between atoms: C_4  and  C_5 
REMARK    3  A    between atoms: C_5  and  C_6 
ROOT
HETATM    1  C   UNL     1       7.358  25.442  57.162  1.00  0.00     0.286 C 
HETATM    2  N   UNL     1       6.213  25.011  56.247  1.00  0.00    -0.056 N 
HETATM    3  H   UNL     1       5.508  24.564  56.846  1.00  0.00     0.278 HD
HETATM    4  H   UNL     1       5.735  25.873  55.908  1.00  0.00     0.278 HD
HETATM    5  C   UNL     1       6.527  24.076  55.117  1.00  0.00     0.209 C 
HETATM    6  C   UNL     1       7.385  22.900  55.642  1.00  0.00     0.115 C 
HETATM    7  N   UNL     1       8.505  23.341  56.468  1.00  0.00    -0.353 N 
HETATM    8  C   UNL     1       8.398  24.338  57.404  1.00  0.00     0.249 C 
HETATM    9  O   UNL     1       9.190  24.390  58.340  1.00  0.00    -0.271 OA
HETATM   10  C   UNL     1       7.158  24.831  53.947  1.00  0.00     0.035 C 
HETATM   11  C   UNL     1       7.568  23.875  52.830  1.00  0.00     0.002 C 
HETATM   12  C   UNL     1       8.507  22.792  53.354  1.00  0.00     0.002 C 
HETATM   13  C   UNL     1       7.866  22.003  54.496  1.00  0.00     0.027 C 
HETATM   14  H   UNL     1       9.199  22.642  56.735  1.00  0.00     0.163 HD
ENDROOT
BRANCH   1  15
HETATM   15  C   UNL     1       8.109  26.695  56.682  1.00  0.00     0.146 C 
BRANCH  15  16
HETATM   16  C   UNL     1       7.491  27.980  57.152  1.00  0.00     0.224 C 
HETATM   17  N   UNL     1       6.583  28.668  56.413  1.00  0.00    -0.327 N 
HETATM   18  H   UNL     1       6.307  29.527  56.883  1.00  0.00     0.169 HD
HETATM   19  O   UNL     1       7.789  28.409  58.275  1.00  0.00    -0.273 OA
BRANCH  17  20
HETATM   20  C   UNL     1       5.939  28.443  55.179  1.00  0.00     0.034 A 
HETATM   21  C   UNL     1       4.570  28.249  54.986  1.00  0.00     0.031 A 
HETATM   22  C   UNL     1       4.049  28.057  53.698  1.00  0.00     0.026 A 
HETATM   23  C   UNL     1       4.892  28.056  52.592  1.00  0.00     0.034 A 
HETATM   24  C   UNL     1       6.256  28.245  52.763  1.00  0.00     0.026 A 
HETATM   25 CL   UNL     1       4.242  27.825  51.018  1.00  0.00    -0.084 Cl
HETATM   26  C   UNL     1       6.774  28.439  54.048  1.00  0.00     0.031 A 
ENDBRANCH  17  20
ENDBRANCH  15  16
ENDBRANCH   1  15
TORSDOF 3
ENDMDL
MODEL 9
REMARK VINA RESULT:      -7.8      3.019      4.539
REMARK  3 active torsions:
REMARK  status: ('A' for Active; 'I' for Inactive)
REMARK    1  A    between atoms: C_2  and  N_3 
REMARK       I    between atoms: N_3  and  C_4 
REMARK    2  A    between atoms: C_4  and  C_5 
REMARK    3  A    between atoms: C_5  and  C_6 
ROOT
HETATM    1  C   UNL     1       4.982  28.409  51.255  1.00  0.00     0.286 C 
HETATM    2  N   UNL     1       5.568  28.221  49.857  1.00  0.00    -0.056 N 
HETATM    3  H   UNL     1       5.913  29.141  49.554  1.00  0.00     0.278 HD
HETATM    4  H   UNL     1       6.438  27.653  49.952  1.00  0.00     0.278 HD
HETATM    5  C   UNL     1       4.672  27.680  48.783  1.00  0.00     0.209 C 
HETATM    6  C   UNL     1       3.327  28.444  48.799  1.00  0.00     0.115 C 
HETATM    7  N   UNL     1       2.758  28.563  50.139  1.00  0.00    -0.353 N 
HETATM    8  C   UNL     1       3.511  28.854  51.248  1.00  0.00     0.249 C 
HETATM    9  O   UNL     1       2.982  29.354  52.236  1.00  0.00    -0.271 OA
HETATM   10  C   UNL     1       4.526  26.163  48.910  1.00  0.00     0.035 C 
HETATM   11  C   UNL     1       3.541  25.615  47.881  1.00  0.00     0.002 C 
HETATM   12  C   UNL     1       2.187  26.308  47.997  1.00  0.00     0.002 C 
HETATM   13  C   UNL     1       2.318  27.822  47.827  1.00  0.00     0.027 C 
HETATM   14  H   UNL     1       1.809  28.927  50.218  1.00  0.00     0.163 HD
ENDROOT
BRANCH   1  15
HETATM   15  C   UNL     1       5.090  27.168  52.155  1.00  0.00     0.146 C 
BRANCH  15  16
HETATM   16  C   UNL     1       5.766  27.438  53.469  1.00  0.00     0.224 C 
HETATM   17  N   UNL     1       6.543  26.517  54.095  1.00  0.00    -0.327 N 
HETATM   18  H   UNL     1       6.884  26.871  54.985  1.00  0.00     0.169 HD
HETATM   19  O   UNL     1       5.645  28.559  53.982  1.00  0.00    -0.273 OA
BRANCH  17  20
HETATM   20  C   UNL     1       6.987  25.218  53.774  1.00  0.00     0.034 A 
HETATM   21  C   UNL     1       7.560  24.816  52.565  1.00  0.00     0.031 A 
HETATM   22  C   UNL     1       7.984  23.492  52.379  1.00  0.00     0.026 A 
HETATM   23  C   UNL     1       7.838  22.558  53.398  1.00  0.00     0.034 A 
HETATM   24  C   UNL     1       7.270  22.936  54.606  1.00  0.00     0.026 A 
HETATM   25 CL   UNL     1       8.366  20.940  53.161  1.00  0.00    -0.084 Cl
HETATM   26  C   UNL     1       6.850  24.258  54.791  1.00  0.00     0.031 A 
ENDBRANCH  17  20
ENDBRANCH  15  16
ENDBRANCH   1  15
TORSDOF 3
ENDMDL
MODEL 10
REMARK VINA RESULT:      -7.6      1.684      2.320
REMARK  3 active torsions:
REMARK  status: ('A' for Active; 'I' for Inactive)
REMARK    1  A    between atoms: C_2  and  N_3 
REMARK       I    between atoms: N_3  and  C_4 
REMARK    2  A    between atoms: C_4  and  C_5 
REMARK    3  A    between atoms: C_5  and  C_6 
ROOT
HETATM    1  C   UNL     1       5.831  28.047  54.578  1.00  0.00     0.286 C 
HETATM    2  N   UNL     1       6.628  28.432  53.333  1.00  0.00    -0.056 N 
HETATM    3  H   UNL     1       7.123  29.304  53.557  1.00  0.00     0.278 HD
HETATM    4  H   UNL     1       7.396  27.736  53.221  1.00  0.00     0.278 HD
HETATM    5  C   UNL     1       5.878  28.635  52.051  1.00  0.00     0.209 C 
HETATM    6  C   UNL     1       4.647  29.537  52.309  1.00  0.00     0.115 C 
HETATM    7  N   UNL     1       3.870  29.116  53.471  1.00  0.00    -0.353 N 
HETATM    8  C   UNL     1       4.446  28.708  54.648  1.00  0.00     0.249 C 
HETATM    9  O   UNL     1       3.812  28.773  55.696  1.00  0.00    -0.271 OA
HETATM   10  C   UNL     1       5.539  27.294  51.401  1.00  0.00     0.035 C 
HETATM   11  C   UNL     1       4.694  27.487  50.145  1.00  0.00     0.002 C 
HETATM   12  C   UNL     1       3.428  28.282  50.454  1.00  0.00     0.002 C 
HETATM   13  C   UNL     1       3.760  29.644  51.063  1.00  0.00     0.027 C 
HETATM   14  H   UNL     1       2.970  29.569  53.626  1.00  0.00     0.163 HD
ENDROOT
BRANCH   1  15
HETATM   15  C   UNL     1       5.636  26.532  54.758  1.00  0.00     0.146 C 
BRANCH  15  16
HETATM   16  C   UNL     1       6.197  26.006  56.047  1.00  0.00     0.224 C 
HETATM   17  N   UNL     1       6.823  24.803  56.135  1.00  0.00    -0.327 N 
HETATM   18  H   UNL     1       7.102  24.607  57.093  1.00  0.00     0.169 HD
HETATM   19  O   UNL     1       6.125  26.712  57.062  1.00  0.00    -0.273 OA
BRANCH  17  20
HETATM   20  C   UNL     1       7.180  23.806  55.205  1.00  0.00     0.034 A 
HETATM   21  C   UNL     1       7.298  23.969  53.823  1.00  0.00     0.031 A 
HETATM   22  C   UNL     1       7.687  22.897  53.006  1.00  0.00     0.026 A 
HETATM   23  C   UNL     1       7.960  21.652  53.563  1.00  0.00     0.034 A 
HETATM   24  C   UNL     1       7.847  21.468  54.934  1.00  0.00     0.026 A 
HETATM   25 CL   UNL     1       8.440  20.347  52.554  1.00  0.00    -0.084 Cl
HETATM   26  C   UNL     1       7.462  22.540  55.748  1.00  0.00     0.031 A 
ENDBRANCH  17  20
ENDBRANCH  15  16
ENDBRANCH   1  15
TORSDOF 3
ENDMDL
