MODEL 1
REMARK VINA RESULT:      -8.8      0.000      0.000
REMARK  7 active torsions:
REMARK  status: ('A' for Active; 'I' for Inactive)
REMARK    1  A    between atoms: C_2  and  C_3 
REMARK    2  A    between atoms: C_3  and  N_4 
REMARK    3  A    between atoms: C_7  and  C_8 
REMARK    4  A    between atoms: C_8  and  N_9 
REMARK       I    between atoms: N_9  and  C_10 
REMARK       I    between atoms: C_10  and  N_11 
REMARK    5  A    between atoms: N_11  and  C_12 
REMARK    6  A    between atoms: C_16  and  N_17 
REMARK       I    between atoms: N_17  and  C_18 
REMARK    7  A    between atoms: C_18  and  C_19 
ROOT
HETATM    1  C   UNL     1       7.067  28.113  54.578  1.00  0.00     0.036 A 
HETATM    2  C   UNL     1       8.349  28.581  54.875  1.00  0.00     0.038 A 
HETATM    3  C   UNL     1       8.645  29.148  56.133  1.00  0.00    -0.033 A 
HETATM    4  C   UNL     1      10.047  29.640  56.385  1.00  0.00     0.050 C 
HETATM    5  C   UNL     1       7.638  29.219  57.117  1.00  0.00     0.041 A 
HETATM    6  C   UNL     1       6.343  28.814  56.780  1.00  0.00     0.032 A 
HETATM    7  C   UNL     1       6.054  28.288  55.518  1.00  0.00     0.032 A 
ENDROOT
BRANCH   1   8
HETATM    8  N   UNL     1       6.720  27.497  53.363  1.00  0.00    -0.309 N 
HETATM    9  C   UNL     1       6.829  26.209  52.938  1.00  0.00     0.320 C 
HETATM   10  N   UNL     1       7.120  25.264  53.882  1.00  0.00    -0.342 N 
HETATM   11  O   UNL     1       6.622  25.929  51.761  1.00  0.00    -0.247 OA
HETATM   12  H   UNL     1       6.890  25.591  54.813  1.00  0.00     0.164 HD
HETATM   13  H   UNL     1       6.220  28.073  52.693  1.00  0.00     0.170 HD
BRANCH  10  14
HETATM   14  C   UNL     1       6.919  23.836  53.706  1.00  0.00     0.130 C 
BRANCH  14  15
HETATM   15  C   UNL     1       8.153  22.919  53.698  1.00  0.00     0.031 C 
HETATM   16  C   UNL     1       9.146  23.198  54.818  1.00  0.00     0.241 C 
HETATM   17  N   UNL     1       8.742  22.273  55.964  1.00  0.00    -0.071 N 
HETATM   18  H   UNL     1       9.575  21.708  56.178  1.00  0.00     0.279 HD
HETATM   19  C   UNL     1       7.676  21.338  55.437  1.00  0.00     0.235 C 
HETATM   20  C   UNL     1       7.783  21.458  53.931  1.00  0.00     0.035 C 
BRANCH  17  21
HETATM   21  C   UNL     1       8.375  23.022  57.218  1.00  0.00     0.234 C 
BRANCH  21  22
HETATM   22  C   UNL     1       8.972  24.424  57.196  1.00  0.00     0.023 C 
HETATM   23  C   UNL     1       7.901  25.473  57.451  1.00  0.00     0.007 C 
ENDBRANCH  21  22
ENDBRANCH  17  21
ENDBRANCH  14  15
ENDBRANCH  10  14
ENDBRANCH   1   8
BRANCH   5  24
HETATM   24  N   UNL     1       7.971  29.684  58.406  1.00  0.00    -0.321 N 
HETATM   25  C   UNL     1       7.706  30.924  58.966  1.00  0.00     0.279 C 
HETATM   26  O   UNL     1       7.160  31.861  58.393  1.00  0.00    -0.265 OA
HETATM   27  H   UNL     1       8.369  29.022  59.063  1.00  0.00     0.169 HD
BRANCH  25  28
HETATM   28  C   UNL     1       8.110  31.005  60.359  1.00  0.00     0.142 A 
HETATM   29  O   UNL     1       9.078  30.152  60.832  1.00  0.00    -0.317 OA
HETATM   30  C   UNL     1       9.252  30.441  62.149  1.00  0.00     0.143 A 
HETATM   31  C   UNL     1       8.407  31.452  62.539  1.00  0.00     0.027 A 
HETATM   32  C   UNL     1       7.673  31.819  61.386  1.00  0.00     0.045 A 
ENDBRANCH  25  28
ENDBRANCH   5  24
TORSDOF 7
ENDMDL
MODEL 2
REMARK VINA RESULT:      -8.5      3.143      5.415
REMARK  7 active torsions:
REMARK  status: ('A' for Active; 'I' for Inactive)
REMARK    1  A    between atoms: C_2  and  C_3 
REMARK    2  A    between atoms: C_3  and  N_4 
REMARK    3  A    between atoms: C_7  and  C_8 
REMARK    4  A    between atoms: C_8  and  N_9 
REMARK       I    between atoms: N_9  and  C_10 
REMARK       I    between atoms: C_10  and  N_11 
REMARK    5  A    between atoms: N_11  and  C_12 
REMARK    6  A    between atoms: C_16  and  N_17 
REMARK       I    between atoms: N_17  and  C_18 
REMARK    7  A    between atoms: C_18  and  C_19 
ROOT
HETATM    1  C   UNL     1       8.495  30.937  59.241  1.00  0.00     0.036 A 
HETATM    2  C   UNL     1       7.325  31.691  59.135  1.00  0.00     0.038 A 
HETATM    3  C   UNL     1       6.700  32.232  60.278  1.00  0.00    -0.033 A 
HETATM    4  C   UNL     1       5.435  33.030  60.094  1.00  0.00     0.050 C 
HETATM    5  C   UNL     1       7.282  32.033  61.547  1.00  0.00     0.041 A 
HETATM    6  C   UNL     1       8.411  31.215  61.645  1.00  0.00     0.032 A 
HETATM    7  C   UNL     1       9.000  30.655  60.508  1.00  0.00     0.032 A 
ENDROOT
BRANCH   1   8
HETATM    8  N   UNL     1       9.190  30.410  58.138  1.00  0.00    -0.309 N 
HETATM    9  C   UNL     1       9.086  29.219  57.489  1.00  0.00     0.320 C 
HETATM   10  N   UNL     1       7.997  28.446  57.775  1.00  0.00    -0.342 N 
HETATM   11  O   UNL     1       9.926  28.898  56.652  1.00  0.00    -0.247 OA
HETATM   12  H   UNL     1       7.248  28.999  58.176  1.00  0.00     0.164 HD
HETATM   13  H   UNL     1       9.832  31.040  57.668  1.00  0.00     0.170 HD
BRANCH  10  14
HETATM   14  C   UNL     1       7.524  27.349  56.946  1.00  0.00     0.130 C 
BRANCH  14  15
HETATM   15  C   UNL     1       7.244  25.994  57.617  1.00  0.00     0.031 C 
HETATM   16  C   UNL     1       6.149  25.179  56.944  1.00  0.00     0.241 C 
HETATM   17  N   UNL     1       6.865  24.281  55.938  1.00  0.00    -0.071 N 
HETATM   18  H   UNL     1       6.603  23.317  56.182  1.00  0.00     0.279 HD
HETATM   19  C   UNL     1       8.352  24.428  56.178  1.00  0.00     0.235 C 
HETATM   20  C   UNL     1       8.449  25.062  57.550  1.00  0.00     0.035 C 
BRANCH  17  21
HETATM   21  C   UNL     1       6.419  24.520  54.520  1.00  0.00     0.234 C 
BRANCH  21  22
HETATM   22  C   UNL     1       7.373  23.848  53.540  1.00  0.00     0.023 C 
HETATM   23  C   UNL     1       7.802  24.817  52.450  1.00  0.00     0.007 C 
ENDBRANCH  21  22
ENDBRANCH  17  21
ENDBRANCH  14  15
ENDBRANCH  10  14
ENDBRANCH   1   8
BRANCH   5  24
HETATM   24  N   UNL     1       6.714  32.670  62.670  1.00  0.00    -0.321 N 
HETATM   25  C   UNL     1       5.644  32.249  63.445  1.00  0.00     0.279 C 
HETATM   26  O   UNL     1       4.972  31.243  63.244  1.00  0.00    -0.265 OA
HETATM   27  H   UNL     1       7.181  33.491  63.039  1.00  0.00     0.169 HD
BRANCH  25  28
HETATM   28  C   UNL     1       5.407  33.117  64.586  1.00  0.00     0.142 A 
HETATM   29  O   UNL     1       4.117  33.432  64.938  1.00  0.00    -0.317 OA
HETATM   30  C   UNL     1       4.190  34.251  66.021  1.00  0.00     0.143 A 
HETATM   31  C   UNL     1       5.500  34.482  66.366  1.00  0.00     0.027 A 
HETATM   32  C   UNL     1       6.285  33.749  65.444  1.00  0.00     0.045 A 
ENDBRANCH  25  28
ENDBRANCH   5  24
TORSDOF 7
ENDMDL
MODEL 3
REMARK VINA RESULT:      -7.9      1.531      2.591
REMARK  7 active torsions:
REMARK  status: ('A' for Active; 'I' for Inactive)
REMARK    1  A    between atoms: C_2  and  C_3 
REMARK    2  A    between atoms: C_3  and  N_4 
REMARK    3  A    between atoms: C_7  and  C_8 
REMARK    4  A    between atoms: C_8  and  N_9 
REMARK       I    between atoms: N_9  and  C_10 
REMARK       I    between atoms: C_10  and  N_11 
REMARK    5  A    between atoms: N_11  and  C_12 
REMARK    6  A    between atoms: C_16  and  N_17 
REMARK       I    between atoms: N_17  and  C_18 
REMARK    7  A    between atoms: C_18  and  C_19 
ROOT
HETATM    1  C   UNL     1       6.949  29.165  55.513  1.00  0.00     0.036 A 
HETATM    2  C   UNL     1       8.208  29.327  56.093  1.00  0.00     0.038 A 
HETATM    3  C   UNL     1       8.355  29.935  57.359  1.00  0.00    -0.033 A 
HETATM    4  C   UNL     1       9.744  30.086  57.924  1.00  0.00     0.050 C 
HETATM    5  C   UNL     1       7.210  30.359  58.063  1.00  0.00     0.041 A 
HETATM    6  C   UNL     1       5.963  30.256  57.437  1.00  0.00     0.032 A 
HETATM    7  C   UNL     1       5.835  29.685  56.168  1.00  0.00     0.032 A 
ENDROOT
BRANCH   1   8
HETATM    8  N   UNL     1       6.731  28.528  54.279  1.00  0.00    -0.309 N 
HETATM    9  C   UNL     1       6.858  27.228  53.896  1.00  0.00     0.320 C 
HETATM   10  N   UNL     1       7.015  26.300  54.886  1.00  0.00    -0.342 N 
HETATM   11  O   UNL     1       6.784  26.926  52.708  1.00  0.00    -0.247 OA
HETATM   12  H   UNL     1       6.686  26.653  55.778  1.00  0.00     0.164 HD
HETATM   13  H   UNL     1       6.326  29.099  53.543  1.00  0.00     0.170 HD
BRANCH  10  14
HETATM   14  C   UNL     1       6.802  24.872  54.717  1.00  0.00     0.130 C 
BRANCH  14  15
HETATM   15  C   UNL     1       6.926  23.963  55.951  1.00  0.00     0.031 C 
HETATM   16  C   UNL     1       7.272  22.516  55.629  1.00  0.00     0.241 C 
HETATM   17  N   UNL     1       8.795  22.435  55.692  1.00  0.00    -0.071 N 
HETATM   18  H   UNL     1       9.011  21.704  56.383  1.00  0.00     0.279 HD
HETATM   19  C   UNL     1       9.297  23.751  56.243  1.00  0.00     0.235 C 
HETATM   20  C   UNL     1       8.072  24.389  56.864  1.00  0.00     0.035 C 
BRANCH  17  21
HETATM   21  C   UNL     1       9.413  22.011  54.385  1.00  0.00     0.234 C 
BRANCH  21  22
HETATM   22  C   UNL     1       8.338  21.835  53.320  1.00  0.00     0.023 C 
HETATM   23  C   UNL     1       8.280  20.392  52.842  1.00  0.00     0.007 C 
ENDBRANCH  21  22
ENDBRANCH  17  21
ENDBRANCH  14  15
ENDBRANCH  10  14
ENDBRANCH   1   8
BRANCH   5  24
HETATM   24  N   UNL     1       7.356  30.861  59.372  1.00  0.00    -0.321 N 
HETATM   25  C   UNL     1       6.895  32.063  59.887  1.00  0.00     0.279 C 
HETATM   26  O   UNL     1       6.303  32.928  59.251  1.00  0.00    -0.265 OA
HETATM   27  H   UNL     1       7.763  30.252  60.073  1.00  0.00     0.169 HD
BRANCH  25  28
HETATM   28  C   UNL     1       7.147  32.193  61.312  1.00  0.00     0.142 A 
HETATM   29  O   UNL     1       6.130  32.596  62.144  1.00  0.00    -0.317 OA
HETATM   30  C   UNL     1       6.641  32.636  63.403  1.00  0.00     0.143 A 
HETATM   31  C   UNL     1       7.969  32.282  63.399  1.00  0.00     0.027 A 
HETATM   32  C   UNL     1       8.295  31.993  62.052  1.00  0.00     0.045 A 
ENDBRANCH  25  28
ENDBRANCH   5  24
TORSDOF 7
ENDMDL
MODEL 4
REMARK VINA RESULT:      -7.9      2.265      8.231
REMARK  7 active torsions:
REMARK  status: ('A' for Active; 'I' for Inactive)
REMARK    1  A    between atoms: C_2  and  C_3 
REMARK    2  A    between atoms: C_3  and  N_4 
REMARK    3  A    between atoms: C_7  and  C_8 
REMARK    4  A    between atoms: C_8  and  N_9 
REMARK       I    between atoms: N_9  and  C_10 
REMARK       I    between atoms: C_10  and  N_11 
REMARK    5  A    between atoms: N_11  and  C_12 
REMARK    6  A    between atoms: C_16  and  N_17 
REMARK       I    between atoms: N_17  and  C_18 
REMARK    7  A    between atoms: C_18  and  C_19 
ROOT
HETATM    1  C   UNL     1       5.956  28.508  55.238  1.00  0.00     0.036 A 
HETATM    2  C   UNL     1       5.320  27.591  56.076  1.00  0.00     0.038 A 
HETATM    3  C   UNL     1       5.705  26.234  56.098  1.00  0.00    -0.033 A 
HETATM    4  C   UNL     1       4.972  25.295  57.020  1.00  0.00     0.050 C 
HETATM    5  C   UNL     1       6.770  25.801  55.282  1.00  0.00     0.041 A 
HETATM    6  C   UNL     1       7.348  26.715  54.395  1.00  0.00     0.032 A 
HETATM    7  C   UNL     1       6.932  28.049  54.357  1.00  0.00     0.032 A 
ENDROOT
BRANCH   1   8
HETATM    8  N   UNL     1       5.651  29.880  55.202  1.00  0.00    -0.309 N 
HETATM    9  C   UNL     1       5.641  30.830  56.177  1.00  0.00     0.320 C 
HETATM   10  N   UNL     1       6.223  30.506  57.370  1.00  0.00    -0.342 N 
HETATM   11  O   UNL     1       5.165  31.939  55.950  1.00  0.00    -0.247 OA
HETATM   12  H   UNL     1       6.871  29.734  57.265  1.00  0.00     0.164 HD
HETATM   13  H   UNL     1       5.485  30.281  54.285  1.00  0.00     0.170 HD
BRANCH  10  14
HETATM   14  C   UNL     1       6.632  31.472  58.375  1.00  0.00     0.130 C 
BRANCH  14  15
HETATM   15  C   UNL     1       7.413  30.967  59.599  1.00  0.00     0.031 C 
HETATM   16  C   UNL     1       8.623  30.108  59.259  1.00  0.00     0.241 C 
HETATM   17  N   UNL     1       9.803  31.073  59.183  1.00  0.00    -0.071 N 
HETATM   18  H   UNL     1      10.497  30.725  59.858  1.00  0.00     0.279 HD
HETATM   19  C   UNL     1       9.320  32.419  59.676  1.00  0.00     0.235 C 
HETATM   20  C   UNL     1       8.026  32.111  60.401  1.00  0.00     0.035 C 
BRANCH  17  21
HETATM   21  C   UNL     1      10.462  31.086  57.829  1.00  0.00     0.234 C 
BRANCH  21  22
HETATM   22  C   UNL     1      10.561  29.672  57.271  1.00  0.00     0.023 C 
HETATM   23  C   UNL     1      10.065  29.621  55.834  1.00  0.00     0.007 C 
ENDBRANCH  21  22
ENDBRANCH  17  21
ENDBRANCH  14  15
ENDBRANCH  10  14
ENDBRANCH   1   8
BRANCH   5  24
HETATM   24  N   UNL     1       7.222  24.470  55.392  1.00  0.00    -0.321 N 
HETATM   25  C   UNL     1       7.140  23.455  54.452  1.00  0.00     0.279 C 
HETATM   26  O   UNL     1       6.602  23.545  53.353  1.00  0.00    -0.265 OA
HETATM   27  H   UNL     1       7.764  24.217  56.212  1.00  0.00     0.169 HD
BRANCH  25  28
HETATM   28  C   UNL     1       7.808  22.239  54.883  1.00  0.00     0.142 A 
HETATM   29  O   UNL     1       8.240  21.336  53.942  1.00  0.00    -0.317 OA
HETATM   30  C   UNL     1       8.816  20.305  54.615  1.00  0.00     0.143 A 
HETATM   31  C   UNL     1       8.752  20.518  55.972  1.00  0.00     0.027 A 
HETATM   32  C   UNL     1       8.106  21.765  56.145  1.00  0.00     0.045 A 
ENDBRANCH  25  28
ENDBRANCH   5  24
TORSDOF 7
ENDMDL
MODEL 5
REMARK VINA RESULT:      -7.9      2.945      4.841
REMARK  7 active torsions:
REMARK  status: ('A' for Active; 'I' for Inactive)
REMARK    1  A    between atoms: C_2  and  C_3 
REMARK    2  A    between atoms: C_3  and  N_4 
REMARK    3  A    between atoms: C_7  and  C_8 
REMARK    4  A    between atoms: C_8  and  N_9 
REMARK       I    between atoms: N_9  and  C_10 
REMARK       I    between atoms: C_10  and  N_11 
REMARK    5  A    between atoms: N_11  and  C_12 
REMARK    6  A    between atoms: C_16  and  N_17 
REMARK       I    between atoms: N_17  and  C_18 
REMARK    7  A    between atoms: C_18  and  C_19 
ROOT
HETATM    1  C   UNL     1       6.611  30.944  58.235  1.00  0.00     0.036 A 
HETATM    2  C   UNL     1       7.686  30.899  59.126  1.00  0.00     0.038 A 
HETATM    3  C   UNL     1       7.610  31.518  60.392  1.00  0.00    -0.033 A 
HETATM    4  C   UNL     1       8.808  31.438  61.302  1.00  0.00     0.050 C 
HETATM    5  C   UNL     1       6.420  32.169  60.776  1.00  0.00     0.041 A 
HETATM    6  C   UNL     1       5.381  32.269  59.846  1.00  0.00     0.032 A 
HETATM    7  C   UNL     1       5.483  31.683  58.581  1.00  0.00     0.032 A 
ENDROOT
BRANCH   1   8
HETATM    8  N   UNL     1       6.607  30.310  56.981  1.00  0.00    -0.309 N 
HETATM    9  C   UNL     1       7.322  29.258  56.496  1.00  0.00     0.320 C 
HETATM   10  N   UNL     1       8.026  28.514  57.400  1.00  0.00    -0.342 N 
HETATM   11  O   UNL     1       7.280  28.984  55.300  1.00  0.00    -0.247 OA
HETATM   12  H   UNL     1       7.663  28.636  58.339  1.00  0.00     0.164 HD
HETATM   13  H   UNL     1       5.895  30.615  56.324  1.00  0.00     0.170 HD
BRANCH  10  14
HETATM   14  C   UNL     1       8.535  27.177  57.147  1.00  0.00     0.130 C 
BRANCH  14  15
HETATM   15  C   UNL     1       7.638  25.976  57.490  1.00  0.00     0.031 C 
HETATM   16  C   UNL     1       6.698  25.557  56.369  1.00  0.00     0.241 C 
HETATM   17  N   UNL     1       7.450  24.486  55.582  1.00  0.00    -0.071 N 
HETATM   18  H   UNL     1       6.846  23.653  55.589  1.00  0.00     0.279 HD
HETATM   19  C   UNL     1       8.704  24.150  56.358  1.00  0.00     0.235 C 
HETATM   20  C   UNL     1       8.449  24.709  57.743  1.00  0.00     0.035 C 
BRANCH  17  21
HETATM   21  C   UNL     1       7.671  24.867  54.141  1.00  0.00     0.234 C 
BRANCH  21  22
HETATM   22  C   UNL     1       7.010  23.854  53.215  1.00  0.00     0.023 C 
HETATM   23  C   UNL     1       7.827  22.573  53.142  1.00  0.00     0.007 C 
ENDBRANCH  21  22
ENDBRANCH  17  21
ENDBRANCH  14  15
ENDBRANCH  10  14
ENDBRANCH   1   8
BRANCH   5  24
HETATM   24  N   UNL     1       6.313  32.688  62.083  1.00  0.00    -0.321 N 
HETATM   25  C   UNL     1       5.509  32.241  63.120  1.00  0.00     0.279 C 
HETATM   26  O   UNL     1       4.702  31.319  63.049  1.00  0.00    -0.265 OA
HETATM   27  H   UNL     1       6.960  33.418  62.360  1.00  0.00     0.169 HD
BRANCH  25  28
HETATM   28  C   UNL     1       5.744  32.962  64.359  1.00  0.00     0.142 A 
HETATM   29  O   UNL     1       4.692  33.208  65.208  1.00  0.00    -0.317 OA
HETATM   30  C   UNL     1       5.191  33.894  66.270  1.00  0.00     0.143 A 
HETATM   31  C   UNL     1       6.540  34.107  66.118  1.00  0.00     0.027 A 
HETATM   32  C   UNL     1       6.899  33.504  64.889  1.00  0.00     0.045 A 
ENDBRANCH  25  28
ENDBRANCH   5  24
TORSDOF 7
ENDMDL
MODEL 6
REMARK VINA RESULT:      -7.6      3.371      6.387
REMARK  7 active torsions:
REMARK  status: ('A' for Active; 'I' for Inactive)
REMARK    1  A    between atoms: C_2  and  C_3 
REMARK    2  A    between atoms: C_3  and  N_4 
REMARK    3  A    between atoms: C_7  and  C_8 
REMARK    4  A    between atoms: C_8  and  N_9 
REMARK       I    between atoms: N_9  and  C_10 
REMARK       I    between atoms: C_10  and  N_11 
REMARK    5  A    between atoms: N_11  and  C_12 
REMARK    6  A    between atoms: C_16  and  N_17 
REMARK       I    between atoms: N_17  and  C_18 
REMARK    7  A    between atoms: C_18  and  C_19 
ROOT
HETATM    1  C   UNL     1       9.017  31.790  59.577  1.00  0.00     0.036 A 
HETATM    2  C   UNL     1       7.672  32.079  59.337  1.00  0.00     0.038 A 
HETATM    3  C   UNL     1       6.816  32.489  60.381  1.00  0.00    -0.033 A 
HETATM    4  C   UNL     1       5.374  32.777  60.054  1.00  0.00     0.050 C 
HETATM    5  C   UNL     1       7.333  32.637  61.685  1.00  0.00     0.041 A 
HETATM    6  C   UNL     1       8.662  32.274  61.923  1.00  0.00     0.032 A 
HETATM    7  C   UNL     1       9.489  31.834  60.887  1.00  0.00     0.032 A 
ENDROOT
BRANCH   1   8
HETATM    8  N   UNL     1       9.930  31.422  58.575  1.00  0.00    -0.309 N 
HETATM    9  C   UNL     1      10.069  30.276  57.853  1.00  0.00     0.320 C 
HETATM   10  N   UNL     1       9.046  29.372  57.917  1.00  0.00    -0.342 N 
HETATM   11  O   UNL     1      11.059  30.109  57.146  1.00  0.00    -0.247 OA
HETATM   12  H   UNL     1       8.185  29.812  58.221  1.00  0.00     0.164 HD
HETATM   13  H   UNL     1      10.559  32.149  58.249  1.00  0.00     0.170 HD
BRANCH  10  14
HETATM   14  C   UNL     1       8.839  28.295  56.964  1.00  0.00     0.130 C 
BRANCH  14  15
HETATM   15  C   UNL     1       7.692  27.304  57.219  1.00  0.00     0.031 C 
HETATM   16  C   UNL     1       6.313  27.945  57.277  1.00  0.00     0.241 C 
HETATM   17  N   UNL     1       5.765  27.870  55.853  1.00  0.00    -0.071 N 
HETATM   18  H   UNL     1       4.872  27.363  55.920  1.00  0.00     0.279 HD
HETATM   19  C   UNL     1       6.719  27.017  55.046  1.00  0.00     0.235 C 
HETATM   20  C   UNL     1       7.546  26.292  56.086  1.00  0.00     0.035 C 
BRANCH  17  21
HETATM   21  C   UNL     1       5.467  29.225  55.269  1.00  0.00     0.234 C 
BRANCH  21  22
HETATM   22  C   UNL     1       4.579  30.028  56.211  1.00  0.00     0.023 C 
HETATM   23  C   UNL     1       5.197  31.385  56.514  1.00  0.00     0.007 C 
ENDBRANCH  21  22
ENDBRANCH  17  21
ENDBRANCH  14  15
ENDBRANCH  10  14
ENDBRANCH   1   8
BRANCH   5  24
HETATM   24  N   UNL     1       6.499  33.154  62.698  1.00  0.00    -0.321 N 
HETATM   25  C   UNL     1       5.538  32.486  63.441  1.00  0.00     0.279 C 
HETATM   26  O   UNL     1       5.218  31.311  63.300  1.00  0.00    -0.265 OA
HETATM   27  H   UNL     1       6.663  34.104  63.011  1.00  0.00     0.169 HD
BRANCH  25  28
HETATM   28  C   UNL     1       4.948  33.324  64.471  1.00  0.00     0.142 A 
HETATM   29  O   UNL     1       3.670  33.801  64.304  1.00  0.00    -0.317 OA
HETATM   30  C   UNL     1       3.379  34.551  65.400  1.00  0.00     0.143 A 
HETATM   31  C   UNL     1       4.447  34.579  66.264  1.00  0.00     0.027 A 
HETATM   32  C   UNL     1       5.458  33.787  65.668  1.00  0.00     0.045 A 
ENDBRANCH  25  28
ENDBRANCH   5  24
TORSDOF 7
ENDMDL
MODEL 7
REMARK VINA RESULT:      -7.6      3.396      9.206
REMARK  7 active torsions:
REMARK  status: ('A' for Active; 'I' for Inactive)
REMARK    1  A    between atoms: C_2  and  C_3 
REMARK    2  A    between atoms: C_3  and  N_4 
REMARK    3  A    between atoms: C_7  and  C_8 
REMARK    4  A    between atoms: C_8  and  N_9 
REMARK       I    between atoms: N_9  and  C_10 
REMARK       I    between atoms: C_10  and  N_11 
REMARK    5  A    between atoms: N_11  and  C_12 
REMARK    6  A    between atoms: C_16  and  N_17 
REMARK       I    between atoms: N_17  and  C_18 
REMARK    7  A    between atoms: C_18  and  C_19 
ROOT
HETATM    1  C   UNL     1       6.450  25.345  54.632  1.00  0.00     0.036 A 
HETATM    2  C   UNL     1       5.477  26.337  54.492  1.00  0.00     0.038 A 
HETATM    3  C   UNL     1       4.856  26.579  53.248  1.00  0.00    -0.033 A 
HETATM    4  C   UNL     1       3.819  27.669  53.164  1.00  0.00     0.050 C 
HETATM    5  C   UNL     1       5.203  25.788  52.133  1.00  0.00     0.041 A 
HETATM    6  C   UNL     1       6.230  24.850  52.272  1.00  0.00     0.032 A 
HETATM    7  C   UNL     1       6.862  24.645  53.501  1.00  0.00     0.032 A 
ENDROOT
BRANCH   1   8
HETATM    8  N   UNL     1       7.071  25.025  55.851  1.00  0.00    -0.309 N 
HETATM    9  C   UNL     1       7.805  25.776  56.718  1.00  0.00     0.320 C 
HETATM   10  N   UNL     1       7.791  27.130  56.535  1.00  0.00    -0.342 N 
HETATM   11  O   UNL     1       8.405  25.237  57.644  1.00  0.00    -0.247 OA
HETATM   12  H   UNL     1       6.983  27.420  55.995  1.00  0.00     0.164 HD
HETATM   13  H   UNL     1       6.889  24.097  56.220  1.00  0.00     0.170 HD
BRANCH  10  14
HETATM   14  C   UNL     1       8.192  28.100  57.540  1.00  0.00     0.130 C 
BRANCH  14  15
HETATM   15  C   UNL     1       8.234  29.586  57.146  1.00  0.00     0.031 C 
HETATM   16  C   UNL     1       7.740  30.534  58.229  1.00  0.00     0.241 C 
HETATM   17  N   UNL     1       8.983  30.938  59.018  1.00  0.00    -0.071 N 
HETATM   18  H   UNL     1       9.023  31.965  58.977  1.00  0.00     0.279 HD
HETATM   19  C   UNL     1      10.186  30.401  58.274  1.00  0.00     0.235 C 
HETATM   20  C   UNL     1       9.657  30.073  56.894  1.00  0.00     0.035 C 
BRANCH  17  21
HETATM   21  C   UNL     1       8.904  30.552  60.472  1.00  0.00     0.234 C 
BRANCH  21  22
HETATM   22  C   UNL     1       9.498  31.648  61.348  1.00  0.00     0.023 C 
HETATM   23  C   UNL     1       8.474  32.154  62.352  1.00  0.00     0.007 C 
ENDBRANCH  21  22
ENDBRANCH  17  21
ENDBRANCH  14  15
ENDBRANCH  10  14
ENDBRANCH   1   8
BRANCH   5  24
HETATM   24  N   UNL     1       4.499  25.962  50.924  1.00  0.00    -0.321 N 
HETATM   25  C   UNL     1       4.705  26.916  49.940  1.00  0.00     0.279 C 
HETATM   26  O   UNL     1       5.534  27.820  49.988  1.00  0.00    -0.265 OA
HETATM   27  H   UNL     1       3.813  25.261  50.668  1.00  0.00     0.169 HD
BRANCH  25  28
HETATM   28  C   UNL     1       3.849  26.720  48.783  1.00  0.00     0.142 A 
HETATM   29  O   UNL     1       3.227  27.803  48.211  1.00  0.00    -0.317 OA
HETATM   30  C   UNL     1       2.495  27.334  47.166  1.00  0.00     0.143 A 
HETATM   31  C   UNL     1       2.620  25.970  47.061  1.00  0.00     0.027 A 
HETATM   32  C   UNL     1       3.495  25.573  48.100  1.00  0.00     0.045 A 
ENDBRANCH  25  28
ENDBRANCH   5  24
TORSDOF 7
ENDMDL
MODEL 8
REMARK VINA RESULT:      -7.5      3.584     10.000
REMARK  7 active torsions:
REMARK  status: ('A' for Active; 'I' for Inactive)
REMARK    1  A    between atoms: C_2  and  C_3 
REMARK    2  A    between atoms: C_3  and  N_4 
REMARK    3  A    between atoms: C_7  and  C_8 
REMARK    4  A    between atoms: C_8  and  N_9 
REMARK       I    between atoms: N_9  and  C_10 
REMARK       I    between atoms: C_10  and  N_11 
REMARK    5  A    between atoms: N_11  and  C_12 
REMARK    6  A    between atoms: C_16  and  N_17 
REMARK       I    between atoms: N_17  and  C_18 
REMARK    7  A    between atoms: C_18  and  C_19 
ROOT
HETATM    1  C   UNL     1       6.015  31.019  58.184  1.00  0.00     0.036 A 
HETATM    2  C   UNL     1       7.371  30.705  58.072  1.00  0.00     0.038 A 
HETATM    3  C   UNL     1       7.792  29.460  57.557  1.00  0.00    -0.033 A 
HETATM    4  C   UNL     1       9.270  29.182  57.470  1.00  0.00     0.050 C 
HETATM    5  C   UNL     1       6.827  28.528  57.121  1.00  0.00     0.041 A 
HETATM    6  C   UNL     1       5.474  28.828  57.307  1.00  0.00     0.032 A 
HETATM    7  C   UNL     1       5.072  30.050  57.853  1.00  0.00     0.032 A 
ENDROOT
BRANCH   1   8
HETATM    8  N   UNL     1       5.534  32.256  58.646  1.00  0.00    -0.309 N 
HETATM    9  C   UNL     1       5.243  32.704  59.898  1.00  0.00     0.320 C 
HETATM   10  N   UNL     1       5.671  31.941  60.948  1.00  0.00    -0.342 N 
HETATM   11  O   UNL     1       4.660  33.774  60.050  1.00  0.00    -0.247 OA
HETATM   12  H   UNL     1       6.428  31.326  60.671  1.00  0.00     0.164 HD
HETATM   13  H   UNL     1       5.459  32.997  57.956  1.00  0.00     0.170 HD
BRANCH  10  14
HETATM   14  C   UNL     1       5.784  32.414  62.317  1.00  0.00     0.130 C 
BRANCH  14  15
HETATM   15  C   UNL     1       6.863  33.460  62.643  1.00  0.00     0.031 C 
HETATM   16  C   UNL     1       6.316  34.781  63.166  1.00  0.00     0.241 C 
HETATM   17  N   UNL     1       6.303  34.646  64.687  1.00  0.00    -0.071 N 
HETATM   18  H   UNL     1       6.869  35.427  65.044  1.00  0.00     0.279 HD
HETATM   19  C   UNL     1       7.022  33.361  65.034  1.00  0.00     0.235 C 
HETATM   20  C   UNL     1       7.781  33.004  63.772  1.00  0.00     0.035 C 
BRANCH  17  21
HETATM   21  C   UNL     1       4.924  34.787  65.274  1.00  0.00     0.234 C 
BRANCH  21  22
HETATM   22  C   UNL     1       4.853  34.108  66.636  1.00  0.00     0.023 C 
HETATM   23  C   UNL     1       5.254  35.070  67.743  1.00  0.00     0.007 C 
ENDBRANCH  21  22
ENDBRANCH  17  21
ENDBRANCH  14  15
ENDBRANCH  10  14
ENDBRANCH   1   8
BRANCH   5  24
HETATM   24  N   UNL     1       7.257  27.335  56.504  1.00  0.00    -0.321 N 
HETATM   25  C   UNL     1       7.677  26.160  57.109  1.00  0.00     0.279 C 
HETATM   26  O   UNL     1       7.787  25.981  58.317  1.00  0.00    -0.265 OA
HETATM   27  H   UNL     1       7.171  27.262  55.497  1.00  0.00     0.169 HD
BRANCH  25  28
HETATM   28  C   UNL     1       7.946  25.104  56.148  1.00  0.00     0.142 A 
HETATM   29  O   UNL     1       8.789  24.076  56.494  1.00  0.00    -0.317 OA
HETATM   30  C   UNL     1       8.864  23.246  55.420  1.00  0.00     0.143 A 
HETATM   31  C   UNL     1       8.099  23.725  54.384  1.00  0.00     0.027 A 
HETATM   32  C   UNL     1       7.504  24.920  54.853  1.00  0.00     0.045 A 
ENDBRANCH  25  28
ENDBRANCH   5  24
TORSDOF 7
ENDMDL
MODEL 9
REMARK VINA RESULT:      -7.2      4.576      8.778
REMARK  7 active torsions:
REMARK  status: ('A' for Active; 'I' for Inactive)
REMARK    1  A    between atoms: C_2  and  C_3 
REMARK    2  A    between atoms: C_3  and  N_4 
REMARK    3  A    between atoms: C_7  and  C_8 
REMARK    4  A    between atoms: C_8  and  N_9 
REMARK       I    between atoms: N_9  and  C_10 
REMARK       I    between atoms: C_10  and  N_11 
REMARK    5  A    between atoms: N_11  and  C_12 
REMARK    6  A    between atoms: C_16  and  N_17 
REMARK       I    between atoms: N_17  and  C_18 
REMARK    7  A    between atoms: C_18  and  C_19 
ROOT
HETATM    1  C   UNL     1       4.681  27.945  53.937  1.00  0.00     0.036 A 
HETATM    2  C   UNL     1       4.376  26.895  53.068  1.00  0.00     0.038 A 
HETATM    3  C   UNL     1       5.009  25.639  53.191  1.00  0.00    -0.033 A 
HETATM    4  C   UNL     1       4.639  24.552  52.216  1.00  0.00     0.050 C 
HETATM    5  C   UNL     1       5.943  25.431  54.226  1.00  0.00     0.041 A 
HETATM    6  C   UNL     1       6.292  26.513  55.041  1.00  0.00     0.032 A 
HETATM    7  C   UNL     1       5.685  27.762  54.885  1.00  0.00     0.032 A 
ENDROOT
BRANCH   1   8
HETATM    8  N   UNL     1       4.055  29.202  53.895  1.00  0.00    -0.309 N 
HETATM    9  C   UNL     1       4.234  30.276  53.078  1.00  0.00     0.320 C 
HETATM   10  N   UNL     1       4.985  30.084  51.953  1.00  0.00    -0.342 N 
HETATM   11  O   UNL     1       3.692  31.346  53.340  1.00  0.00    -0.247 OA
HETATM   12  H   UNL     1       5.032  29.102  51.704  1.00  0.00     0.164 HD
HETATM   13  H   UNL     1       3.266  29.334  54.521  1.00  0.00     0.170 HD
BRANCH  10  14
HETATM   14  C   UNL     1       4.986  30.972  50.802  1.00  0.00     0.130 C 
BRANCH  14  15
HETATM   15  C   UNL     1       5.675  30.497  49.513  1.00  0.00     0.031 C 
HETATM   16  C   UNL     1       5.633  28.991  49.299  1.00  0.00     0.241 C 
HETATM   17  N   UNL     1       4.383  28.730  48.462  1.00  0.00    -0.071 N 
HETATM   18  H   UNL     1       4.705  28.237  47.618  1.00  0.00     0.279 HD
HETATM   19  C   UNL     1       3.839  30.074  48.029  1.00  0.00     0.235 C 
HETATM   20  C   UNL     1       4.987  31.035  48.263  1.00  0.00     0.035 C 
BRANCH  17  21
HETATM   21  C   UNL     1       3.392  27.831  49.154  1.00  0.00     0.234 C 
BRANCH  21  22
HETATM   22  C   UNL     1       2.026  28.502  49.229  1.00  0.00     0.023 C 
HETATM   23  C   UNL     1       1.720  28.950  50.650  1.00  0.00     0.007 C 
ENDBRANCH  21  22
ENDBRANCH  17  21
ENDBRANCH  14  15
ENDBRANCH  10  14
ENDBRANCH   1   8
BRANCH   5  24
HETATM   24  N   UNL     1       6.486  24.143  54.411  1.00  0.00    -0.321 N 
HETATM   25  C   UNL     1       7.582  23.575  53.780  1.00  0.00     0.279 C 
HETATM   26  O   UNL     1       8.250  24.106  52.898  1.00  0.00    -0.265 OA
HETATM   27  H   UNL     1       6.110  23.570  55.158  1.00  0.00     0.169 HD
BRANCH  25  28
HETATM   28  C   UNL     1       7.908  22.260  54.304  1.00  0.00     0.142 A 
HETATM   29  O   UNL     1       7.605  21.959  55.610  1.00  0.00    -0.317 OA
HETATM   30  C   UNL     1       8.020  20.684  55.831  1.00  0.00     0.143 A 
HETATM   31  C   UNL     1       8.598  20.160  54.699  1.00  0.00     0.027 A 
HETATM   32  C   UNL     1       8.523  21.174  53.713  1.00  0.00     0.045 A 
ENDBRANCH  25  28
ENDBRANCH   5  24
TORSDOF 7
ENDMDL
MODEL 10
REMARK VINA RESULT:      -7.1      2.702      8.936
REMARK  7 active torsions:
REMARK  status: ('A' for Active; 'I' for Inactive)
REMARK    1  A    between atoms: C_2  and  C_3 
REMARK    2  A    between atoms: C_3  and  N_4 
REMARK    3  A    between atoms: C_7  and  C_8 
REMARK    4  A    between atoms: C_8  and  N_9 
REMARK       I    between atoms: N_9  and  C_10 
REMARK       I    between atoms: C_10  and  N_11 
REMARK    5  A    between atoms: N_11  and  C_12 
REMARK    6  A    between atoms: C_16  and  N_17 
REMARK       I    between atoms: N_17  and  C_18 
REMARK    7  A    between atoms: C_18  and  C_19 
ROOT
HETATM    1  C   UNL     1       5.397  31.591  58.034  1.00  0.00     0.036 A 
HETATM    2  C   UNL     1       6.693  31.089  58.175  1.00  0.00     0.038 A 
HETATM    3  C   UNL     1       6.995  29.749  57.851  1.00  0.00    -0.033 A 
HETATM    4  C   UNL     1       8.411  29.269  58.033  1.00  0.00     0.050 C 
HETATM    5  C   UNL     1       5.979  28.910  57.349  1.00  0.00     0.041 A 
HETATM    6  C   UNL     1       4.673  29.406  57.283  1.00  0.00     0.032 A 
HETATM    7  C   UNL     1       4.380  30.724  57.642  1.00  0.00     0.032 A 
ENDROOT
BRANCH   1   8
HETATM    8  N   UNL     1       5.042  32.925  58.297  1.00  0.00    -0.309 N 
HETATM    9  C   UNL     1       4.824  33.591  59.464  1.00  0.00     0.320 C 
HETATM   10  N   UNL     1       5.208  32.967  60.618  1.00  0.00    -0.342 N 
HETATM   11  O   UNL     1       4.346  34.721  59.448  1.00  0.00    -0.247 OA
HETATM   12  H   UNL     1       5.898  32.248  60.435  1.00  0.00     0.164 HD
HETATM   13  H   UNL     1       5.018  33.550  57.497  1.00  0.00     0.170 HD
BRANCH  10  14
HETATM   14  C   UNL     1       5.397  33.639  61.892  1.00  0.00     0.130 C 
BRANCH  14  15
HETATM   15  C   UNL     1       5.597  32.778  63.150  1.00  0.00     0.031 C 
HETATM   16  C   UNL     1       6.072  31.360  62.869  1.00  0.00     0.241 C 
HETATM   17  N   UNL     1       7.597  31.417  62.937  1.00  0.00    -0.071 N 
HETATM   18  H   UNL     1       7.874  30.728  63.649  1.00  0.00     0.279 HD
HETATM   19  C   UNL     1       7.975  32.788  63.454  1.00  0.00     0.235 C 
HETATM   20  C   UNL     1       6.694  33.329  64.054  1.00  0.00     0.035 C 
BRANCH  17  21
HETATM   21  C   UNL     1       8.256  31.016  61.644  1.00  0.00     0.234 C 
BRANCH  21  22
HETATM   22  C   UNL     1       9.521  31.834  61.415  1.00  0.00     0.023 C 
HETATM   23  C   UNL     1       9.719  32.121  59.934  1.00  0.00     0.007 C 
ENDBRANCH  21  22
ENDBRANCH  17  21
ENDBRANCH  14  15
ENDBRANCH  10  14
ENDBRANCH   1   8
BRANCH   5  24
HETATM   24  N   UNL     1       6.313  27.608  56.922  1.00  0.00    -0.321 N 
HETATM   25  C   UNL     1       6.622  27.178  55.641  1.00  0.00     0.279 C 
HETATM   26  O   UNL     1       6.610  27.878  54.633  1.00  0.00    -0.265 OA
HETATM   27  H   UNL     1       6.445  26.894  57.630  1.00  0.00     0.169 HD
BRANCH  25  28
HETATM   28  C   UNL     1       7.017  25.781  55.601  1.00  0.00     0.142 A 
HETATM   29  O   UNL     1       6.555  24.977  54.587  1.00  0.00    -0.317 OA
HETATM   30  C   UNL     1       7.069  23.736  54.799  1.00  0.00     0.143 A 
HETATM   31  C   UNL     1       7.841  23.719  55.936  1.00  0.00     0.027 A 
HETATM   32  C   UNL     1       7.811  25.037  56.452  1.00  0.00     0.045 A 
ENDBRANCH  25  28
ENDBRANCH   5  24
TORSDOF 7
ENDMDL
