MODEL 1
REMARK VINA RESULT:     -10.2      0.000      0.000
REMARK  7 active torsions:
REMARK  status: ('A' for Active; 'I' for Inactive)
REMARK    1  A    between atoms: C_2  and  C_3 
REMARK       I    between atoms: C_3  and  N_4 
REMARK    2  A    between atoms: N_7  and  C_8 
REMARK    3  A    between atoms: C_12  and  N_13 
REMARK    4  A    between atoms: N_13  and  C_14 
REMARK    5  A    between atoms: C_14  and  N_15 
REMARK       I    between atoms: N_15  and  C_16 
REMARK    6  A    between atoms: C_16  and  C_17 
REMARK    7  A    between atoms: C_18  and  O_19 
ROOT
HETATM    1  C   UNL     1       6.557  29.222  56.570  1.00  0.00     0.052 A 
HETATM    2  C   UNL     1       7.319  28.680  55.519  1.00  0.00     0.062 A 
HETATM    3 CL   UNL     1       8.965  29.126  55.211  1.00  0.00    -0.082 Cl
HETATM    4  C   UNL     1       6.758  27.764  54.613  1.00  0.00     0.055 A 
HETATM    5  C   UNL     1       5.429  27.367  54.720  1.00  0.00     0.036 A 
HETATM    6  C   UNL     1       4.630  27.999  55.673  1.00  0.00     0.032 A 
HETATM    7  C   UNL     1       5.188  28.903  56.585  1.00  0.00     0.033 A 
ENDROOT
BRANCH   5   8
HETATM    8  N   UNL     1       4.815  26.374  53.925  1.00  0.00    -0.333 N 
HETATM    9  H   UNL     1       3.917  26.035  54.277  1.00  0.00     0.168 HD
BRANCH   8  10
HETATM   10  C   UNL     1       5.277  25.648  52.850  1.00  0.00     0.179 C 
HETATM   11  S   UNL     1       5.145  25.952  51.212  1.00  0.00    -0.040 SA
BRANCH  10  12
HETATM   12  N   UNL     1       5.986  24.508  53.182  1.00  0.00    -0.299 N 
HETATM   13  C   UNL     1       7.351  24.261  53.145  1.00  0.00     0.260 C 
HETATM   14  O   UNL     1       8.181  25.049  52.704  1.00  0.00    -0.267 OA
HETATM   15  H   UNL     1       5.392  23.752  53.508  1.00  0.00     0.171 HD
BRANCH  13  16
HETATM   16  C   UNL     1       7.750  22.909  53.606  1.00  0.00     0.066 A 
HETATM   17  C   UNL     1       7.756  22.547  54.963  1.00  0.00     0.089 A 
HETATM   18  C   UNL     1       8.000  21.219  55.347  1.00  0.00    -0.028 A 
HETATM   19  C   UNL     1       7.921  20.800  56.788  1.00  0.00     0.051 C 
HETATM   20  C   UNL     1       8.282  20.270  54.354  1.00  0.00     0.009 A 
HETATM   21  C   UNL     1       8.332  20.639  53.007  1.00  0.00     0.002 A 
HETATM   22  C   UNL     1       8.069  21.956  52.631  1.00  0.00     0.020 A 
BRANCH  17  23
HETATM   23  O   UNL     1       7.466  23.457  55.950  1.00  0.00    -0.354 OA
HETATM   24  C   UNL     1       8.657  24.107  56.412  1.00  0.00     0.210 C 
ENDBRANCH  17  23
ENDBRANCH  13  16
ENDBRANCH  10  12
ENDBRANCH   8  10
ENDBRANCH   5   8
BRANCH   1  25
HETATM   25  N   UNL     1       7.021  29.998  57.636  1.00  0.00    -0.376 N 
HETATM   26  C   UNL     1       8.034  29.358  58.497  1.00  0.00     0.143 C 
HETATM   27  C   UNL     1       8.764  30.435  59.331  1.00  0.00     0.145 C 
HETATM   28  N   UNL     1       7.855  31.376  60.007  1.00  0.00    -0.349 N 
HETATM   29  C   UNL     1       8.316  32.017  61.152  1.00  0.00     0.219 C 
HETATM   30  C   UNL     1       6.765  31.901  59.168  1.00  0.00     0.145 C 
HETATM   31  O   UNL     1       9.391  31.722  61.677  1.00  0.00    -0.273 OA
HETATM   32  C   UNL     1       6.038  30.784  58.403  1.00  0.00     0.143 C 
BRANCH  29  33
HETATM   33  C   UNL     1       7.411  33.089  61.743  1.00  0.00     0.098 C 
HETATM   34  C   UNL     1       7.351  33.038  63.260  1.00  0.00     0.014 C 
ENDBRANCH  29  33
ENDBRANCH   1  25
TORSDOF 7
ENDMDL
MODEL 2
REMARK VINA RESULT:      -9.8      1.942      2.695
REMARK  7 active torsions:
REMARK  status: ('A' for Active; 'I' for Inactive)
REMARK    1  A    between atoms: C_2  and  C_3 
REMARK       I    between atoms: C_3  and  N_4 
REMARK    2  A    between atoms: N_7  and  C_8 
REMARK    3  A    between atoms: C_12  and  N_13 
REMARK    4  A    between atoms: N_13  and  C_14 
REMARK    5  A    between atoms: C_14  and  N_15 
REMARK       I    between atoms: N_15  and  C_16 
REMARK    6  A    between atoms: C_16  and  C_17 
REMARK    7  A    between atoms: C_18  and  O_19 
ROOT
HETATM    1  C   UNL     1       7.001  30.219  58.224  1.00  0.00     0.052 A 
HETATM    2  C   UNL     1       5.952  29.879  57.351  1.00  0.00     0.062 A 
HETATM    3 CL   UNL     1       4.279  30.105  57.742  1.00  0.00    -0.082 Cl
HETATM    4  C   UNL     1       6.209  29.279  56.107  1.00  0.00     0.055 A 
HETATM    5  C   UNL     1       7.509  28.995  55.698  1.00  0.00     0.036 A 
HETATM    6  C   UNL     1       8.544  29.204  56.610  1.00  0.00     0.032 A 
HETATM    7  C   UNL     1       8.292  29.813  57.846  1.00  0.00     0.033 A 
ENDROOT
BRANCH   5   8
HETATM    8  N   UNL     1       7.866  28.497  54.426  1.00  0.00    -0.333 N 
HETATM    9  H   UNL     1       8.704  28.917  54.018  1.00  0.00     0.168 HD
BRANCH   8  10
HETATM   10  C   UNL     1       7.203  27.668  53.549  1.00  0.00     0.179 C 
HETATM   11  S   UNL     1       6.172  28.042  52.287  1.00  0.00    -0.040 SA
BRANCH  10  12
HETATM   12  N   UNL     1       7.456  26.319  53.721  1.00  0.00    -0.299 N 
HETATM   13  C   UNL     1       6.759  25.364  54.447  1.00  0.00     0.260 C 
HETATM   14  O   UNL     1       5.792  25.611  55.159  1.00  0.00    -0.267 OA
HETATM   15  H   UNL     1       8.282  26.004  53.222  1.00  0.00     0.171 HD
BRANCH  13  16
HETATM   16  C   UNL     1       7.327  23.995  54.376  1.00  0.00     0.066 A 
HETATM   17  C   UNL     1       7.673  23.263  55.524  1.00  0.00     0.089 A 
HETATM   18  C   UNL     1       8.071  21.921  55.423  1.00  0.00    -0.028 A 
HETATM   19  C   UNL     1       8.359  21.101  56.649  1.00  0.00     0.051 C 
HETATM   20  C   UNL     1       8.159  21.337  54.151  1.00  0.00     0.009 A 
HETATM   21  C   UNL     1       7.868  22.079  53.003  1.00  0.00     0.002 A 
HETATM   22  C   UNL     1       7.455  23.407  53.113  1.00  0.00     0.020 A 
BRANCH  17  23
HETATM   23  O   UNL     1       7.579  23.811  56.781  1.00  0.00    -0.354 OA
HETATM   24  C   UNL     1       8.778  24.519  57.121  1.00  0.00     0.210 C 
ENDBRANCH  17  23
ENDBRANCH  13  16
ENDBRANCH  10  12
ENDBRANCH   8  10
ENDBRANCH   5   8
BRANCH   1  25
HETATM   25  N   UNL     1       6.911  30.969  59.400  1.00  0.00    -0.376 N 
HETATM   26  C   UNL     1       6.414  32.349  59.240  1.00  0.00     0.143 C 
HETATM   27  C   UNL     1       5.951  32.899  60.609  1.00  0.00     0.145 C 
HETATM   28  N   UNL     1       6.931  32.694  61.689  1.00  0.00    -0.349 N 
HETATM   29  C   UNL     1       6.892  33.561  62.776  1.00  0.00     0.219 C 
HETATM   30  C   UNL     1       7.521  31.347  61.749  1.00  0.00     0.145 C 
HETATM   31  O   UNL     1       6.162  34.554  62.793  1.00  0.00    -0.273 OA
HETATM   32  C   UNL     1       8.013  30.871  60.373  1.00  0.00     0.143 C 
BRANCH  29  33
HETATM   33  C   UNL     1       7.817  33.237  63.940  1.00  0.00     0.098 C 
HETATM   34  C   UNL     1       7.253  33.675  65.281  1.00  0.00     0.014 C 
ENDBRANCH  29  33
ENDBRANCH   1  25
TORSDOF 7
ENDMDL
MODEL 3
REMARK VINA RESULT:      -9.7      3.208      5.316
REMARK  7 active torsions:
REMARK  status: ('A' for Active; 'I' for Inactive)
REMARK    1  A    between atoms: C_2  and  C_3 
REMARK       I    between atoms: C_3  and  N_4 
REMARK    2  A    between atoms: N_7  and  C_8 
REMARK    3  A    between atoms: C_12  and  N_13 
REMARK    4  A    between atoms: N_13  and  C_14 
REMARK    5  A    between atoms: C_14  and  N_15 
REMARK       I    between atoms: N_15  and  C_16 
REMARK    6  A    between atoms: C_16  and  C_17 
REMARK    7  A    between atoms: C_18  and  O_19 
ROOT
HETATM    1  C   UNL     1       7.325  31.861  61.048  1.00  0.00     0.052 A 
HETATM    2  C   UNL     1       8.316  30.875  60.892  1.00  0.00     0.062 A 
HETATM    3 CL   UNL     1       9.428  30.438  62.147  1.00  0.00    -0.082 Cl
HETATM    4  C   UNL     1       8.492  30.212  59.666  1.00  0.00     0.055 A 
HETATM    5  C   UNL     1       7.698  30.512  58.563  1.00  0.00     0.036 A 
HETATM    6  C   UNL     1       6.806  31.579  58.668  1.00  0.00     0.032 A 
HETATM    7  C   UNL     1       6.619  32.235  59.891  1.00  0.00     0.033 A 
ENDROOT
BRANCH   5   8
HETATM    8  N   UNL     1       7.732  29.823  57.331  1.00  0.00    -0.333 N 
HETATM    9  H   UNL     1       6.817  29.654  56.906  1.00  0.00     0.168 HD
BRANCH   8  10
HETATM   10  C   UNL     1       8.755  29.181  56.669  1.00  0.00     0.179 C 
HETATM   11  S   UNL     1      10.260  29.747  56.210  1.00  0.00    -0.040 SA
BRANCH  10  12
HETATM   12  N   UNL     1       8.508  27.855  56.366  1.00  0.00    -0.299 N 
HETATM   13  C   UNL     1       8.018  26.831  57.166  1.00  0.00     0.260 C 
HETATM   14  O   UNL     1       7.794  26.943  58.366  1.00  0.00    -0.267 OA
HETATM   15  H   UNL     1       8.717  27.622  55.401  1.00  0.00     0.171 HD
BRANCH  13  16
HETATM   16  C   UNL     1       7.861  25.527  56.476  1.00  0.00     0.066 A 
HETATM   17  C   UNL     1       7.283  25.414  55.201  1.00  0.00     0.089 A 
HETATM   18  C   UNL     1       7.283  24.185  54.523  1.00  0.00    -0.028 A 
HETATM   19  C   UNL     1       6.749  24.071  53.123  1.00  0.00     0.051 C 
HETATM   20  C   UNL     1       7.830  23.062  55.161  1.00  0.00     0.009 A 
HETATM   21  C   UNL     1       8.355  23.160  56.451  1.00  0.00     0.002 A 
HETATM   22  C   UNL     1       8.370  24.388  57.111  1.00  0.00     0.020 A 
BRANCH  17  23
HETATM   23  O   UNL     1       6.757  26.505  54.552  1.00  0.00    -0.354 OA
HETATM   24  C   UNL     1       5.391  26.715  54.931  1.00  0.00     0.210 C 
ENDBRANCH  17  23
ENDBRANCH  13  16
ENDBRANCH  10  12
ENDBRANCH   8  10
ENDBRANCH   5   8
BRANCH   1  25
HETATM   25  N   UNL     1       6.923  32.472  62.239  1.00  0.00    -0.376 N 
HETATM   26  C   UNL     1       7.869  32.358  63.365  1.00  0.00     0.143 C 
HETATM   27  C   UNL     1       7.529  33.414  64.441  1.00  0.00     0.145 C 
HETATM   28  N   UNL     1       6.103  33.448  64.807  1.00  0.00    -0.349 N 
HETATM   29  C   UNL     1       5.765  33.933  66.065  1.00  0.00     0.219 C 
HETATM   30  C   UNL     1       5.167  33.422  63.670  1.00  0.00     0.145 C 
HETATM   31  O   UNL     1       6.618  34.204  66.912  1.00  0.00    -0.273 OA
HETATM   32  C   UNL     1       5.519  32.320  62.659  1.00  0.00     0.143 C 
BRANCH  29  33
HETATM   33  C   UNL     1       4.279  34.091  66.358  1.00  0.00     0.098 C 
HETATM   34  C   UNL     1       3.881  35.533  66.623  1.00  0.00     0.014 C 
ENDBRANCH  29  33
ENDBRANCH   1  25
TORSDOF 7
ENDMDL
MODEL 4
REMARK VINA RESULT:      -9.5      2.901     10.913
REMARK  7 active torsions:
REMARK  status: ('A' for Active; 'I' for Inactive)
REMARK    1  A    between atoms: C_2  and  C_3 
REMARK       I    between atoms: C_3  and  N_4 
REMARK    2  A    between atoms: N_7  and  C_8 
REMARK    3  A    between atoms: C_12  and  N_13 
REMARK    4  A    between atoms: N_13  and  C_14 
REMARK    5  A    between atoms: C_14  and  N_15 
REMARK       I    between atoms: N_15  and  C_16 
REMARK    6  A    between atoms: C_16  and  C_17 
REMARK    7  A    between atoms: C_18  and  O_19 
ROOT
HETATM    1  C   UNL     1       7.113  27.357  56.708  1.00  0.00     0.052 A 
HETATM    2  C   UNL     1       5.968  28.170  56.619  1.00  0.00     0.062 A 
HETATM    3 CL   UNL     1       4.601  27.781  55.628  1.00  0.00    -0.082 Cl
HETATM    4  C   UNL     1       5.892  29.392  57.307  1.00  0.00     0.055 A 
HETATM    5  C   UNL     1       6.947  29.844  58.094  1.00  0.00     0.036 A 
HETATM    6  C   UNL     1       8.135  29.113  58.081  1.00  0.00     0.032 A 
HETATM    7  C   UNL     1       8.211  27.888  57.405  1.00  0.00     0.033 A 
ENDROOT
BRANCH   5   8
HETATM    8  N   UNL     1       6.915  31.001  58.903  1.00  0.00    -0.333 N 
HETATM    9  H   UNL     1       6.049  31.541  58.849  1.00  0.00     0.168 HD
BRANCH   8  10
HETATM   10  C   UNL     1       7.897  31.637  59.628  1.00  0.00     0.179 C 
HETATM   11  S   UNL     1       9.527  31.818  59.303  1.00  0.00    -0.040 SA
BRANCH  10  12
HETATM   12  N   UNL     1       7.457  32.248  60.789  1.00  0.00    -0.299 N 
HETATM   13  C   UNL     1       7.543  31.828  62.108  1.00  0.00     0.260 C 
HETATM   14  O   UNL     1       7.981  30.736  62.456  1.00  0.00    -0.267 OA
HETATM   15  H   UNL     1       7.014  33.146  60.621  1.00  0.00     0.171 HD
BRANCH  13  16
HETATM   16  C   UNL     1       6.973  32.774  63.099  1.00  0.00     0.066 A 
HETATM   17  C   UNL     1       5.704  33.355  62.943  1.00  0.00     0.089 A 
HETATM   18  C   UNL     1       5.142  34.130  63.969  1.00  0.00    -0.028 A 
HETATM   19  C   UNL     1       3.749  34.682  63.850  1.00  0.00     0.051 C 
HETATM   20  C   UNL     1       5.889  34.351  65.135  1.00  0.00     0.009 A 
HETATM   21  C   UNL     1       7.174  33.821  65.270  1.00  0.00     0.002 A 
HETATM   22  C   UNL     1       7.719  33.035  64.254  1.00  0.00     0.020 A 
BRANCH  17  23
HETATM   23  O   UNL     1       4.949  33.137  61.816  1.00  0.00    -0.354 OA
HETATM   24  C   UNL     1       4.090  32.002  61.987  1.00  0.00     0.210 C 
ENDBRANCH  17  23
ENDBRANCH  13  16
ENDBRANCH  10  12
ENDBRANCH   8  10
ENDBRANCH   5   8
BRANCH   1  25
HETATM   25  N   UNL     1       7.261  26.052  56.227  1.00  0.00    -0.376 N 
HETATM   26  C   UNL     1       8.202  25.199  56.978  1.00  0.00     0.143 C 
HETATM   27  C   UNL     1       7.945  23.713  56.636  1.00  0.00     0.145 C 
HETATM   28  N   UNL     1       7.856  23.447  55.190  1.00  0.00    -0.349 N 
HETATM   29  C   UNL     1       8.154  22.163  54.746  1.00  0.00     0.219 C 
HETATM   30  C   UNL     1       7.020  24.393  54.432  1.00  0.00     0.145 C 
HETATM   31  O   UNL     1       8.610  21.302  55.498  1.00  0.00    -0.273 OA
HETATM   32  C   UNL     1       7.352  25.855  54.770  1.00  0.00     0.143 C 
BRANCH  29  33
HETATM   33  C   UNL     1       7.912  21.880  53.270  1.00  0.00     0.098 C 
HETATM   34  C   UNL     1       8.277  20.460  52.875  1.00  0.00     0.014 C 
ENDBRANCH  29  33
ENDBRANCH   1  25
TORSDOF 7
ENDMDL
MODEL 5
REMARK VINA RESULT:      -8.9      3.298     10.810
REMARK  7 active torsions:
REMARK  status: ('A' for Active; 'I' for Inactive)
REMARK    1  A    between atoms: C_2  and  C_3 
REMARK       I    between atoms: C_3  and  N_4 
REMARK    2  A    between atoms: N_7  and  C_8 
REMARK    3  A    between atoms: C_12  and  N_13 
REMARK    4  A    between atoms: N_13  and  C_14 
REMARK    5  A    between atoms: C_14  and  N_15 
REMARK       I    between atoms: N_15  and  C_16 
REMARK    6  A    between atoms: C_16  and  C_17 
REMARK    7  A    between atoms: C_18  and  O_19 
ROOT
HETATM    1  C   UNL     1       6.290  28.941  57.250  1.00  0.00     0.052 A 
HETATM    2  C   UNL     1       7.335  29.762  57.711  1.00  0.00     0.062 A 
HETATM    3 CL   UNL     1       8.977  29.223  57.847  1.00  0.00    -0.082 Cl
HETATM    4  C   UNL     1       7.090  31.077  58.139  1.00  0.00     0.055 A 
HETATM    5  C   UNL     1       5.804  31.610  58.130  1.00  0.00     0.036 A 
HETATM    6  C   UNL     1       4.745  30.763  57.804  1.00  0.00     0.032 A 
HETATM    7  C   UNL     1       4.987  29.455  57.365  1.00  0.00     0.033 A 
ENDROOT
BRANCH   5   8
HETATM    8  N   UNL     1       5.482  32.950  58.438  1.00  0.00    -0.333 N 
HETATM    9  H   UNL     1       6.074  33.651  57.986  1.00  0.00     0.168 HD
BRANCH   8  10
HETATM   10  C   UNL     1       4.626  33.494  59.369  1.00  0.00     0.179 C 
HETATM   11  S   UNL     1       3.065  34.065  59.189  1.00  0.00    -0.040 SA
BRANCH  10  12
HETATM   12  N   UNL     1       5.126  33.546  60.657  1.00  0.00    -0.299 N 
HETATM   13  C   UNL     1       4.934  32.683  61.727  1.00  0.00     0.260 C 
HETATM   14  O   UNL     1       4.172  31.722  61.708  1.00  0.00    -0.267 OA
HETATM   15  H   UNL     1       5.732  34.345  60.816  1.00  0.00     0.171 HD
BRANCH  13  16
HETATM   16  C   UNL     1       5.664  33.056  62.963  1.00  0.00     0.066 A 
HETATM   17  C   UNL     1       5.005  33.492  64.125  1.00  0.00     0.089 A 
HETATM   18  C   UNL     1       5.717  33.696  65.316  1.00  0.00    -0.028 A 
HETATM   19  C   UNL     1       5.011  34.076  66.588  1.00  0.00     0.051 C 
HETATM   20  C   UNL     1       7.106  33.500  65.315  1.00  0.00     0.009 A 
HETATM   21  C   UNL     1       7.772  33.121  64.148  1.00  0.00     0.002 A 
HETATM   22  C   UNL     1       7.055  32.900  62.972  1.00  0.00     0.020 A 
BRANCH  17  23
HETATM   23  O   UNL     1       3.643  33.673  64.152  1.00  0.00    -0.354 OA
HETATM   24  C   UNL     1       3.292  34.977  63.671  1.00  0.00     0.210 C 
ENDBRANCH  17  23
ENDBRANCH  13  16
ENDBRANCH  10  12
ENDBRANCH   8  10
ENDBRANCH   5   8
BRANCH   1  25
HETATM   25  N   UNL     1       6.407  27.690  56.636  1.00  0.00    -0.376 N 
HETATM   26  C   UNL     1       6.849  26.589  57.512  1.00  0.00     0.143 C 
HETATM   27  C   UNL     1       6.517  25.232  56.852  1.00  0.00     0.145 C 
HETATM   28  N   UNL     1       6.943  25.139  55.445  1.00  0.00    -0.349 N 
HETATM   29  C   UNL     1       7.187  23.874  54.921  1.00  0.00     0.219 C 
HETATM   30  C   UNL     1       6.613  26.310  54.615  1.00  0.00     0.145 C 
HETATM   31  O   UNL     1       7.185  22.864  55.626  1.00  0.00    -0.273 OA
HETATM   32  C   UNL     1       7.013  27.629  55.295  1.00  0.00     0.143 C 
BRANCH  29  33
HETATM   33  C   UNL     1       7.483  23.800  53.430  1.00  0.00     0.098 C 
HETATM   34  C   UNL     1       7.881  22.406  52.977  1.00  0.00     0.014 C 
ENDBRANCH  29  33
ENDBRANCH   1  25
TORSDOF 7
ENDMDL
MODEL 6
REMARK VINA RESULT:      -8.9      2.439      9.621
REMARK  7 active torsions:
REMARK  status: ('A' for Active; 'I' for Inactive)
REMARK    1  A    between atoms: C_2  and  C_3 
REMARK       I    between atoms: C_3  and  N_4 
REMARK    2  A    between atoms: N_7  and  C_8 
REMARK    3  A    between atoms: C_12  and  N_13 
REMARK    4  A    between atoms: N_13  and  C_14 
REMARK    5  A    between atoms: C_14  and  N_15 
REMARK       I    between atoms: N_15  and  C_16 
REMARK    6  A    between atoms: C_16  and  C_17 
REMARK    7  A    between atoms: C_18  and  O_19 
ROOT
HETATM    1  C   UNL     1       7.217  26.512  54.649  1.00  0.00     0.052 A 
HETATM    2  C   UNL     1       6.485  27.364  53.801  1.00  0.00     0.062 A 
HETATM    3 CL   UNL     1       6.088  26.961  52.163  1.00  0.00    -0.082 Cl
HETATM    4  C   UNL     1       6.069  28.634  54.232  1.00  0.00     0.055 A 
HETATM    5  C   UNL     1       6.372  29.097  55.509  1.00  0.00     0.036 A 
HETATM    6  C   UNL     1       7.210  28.319  56.307  1.00  0.00     0.032 A 
HETATM    7  C   UNL     1       7.617  27.046  55.886  1.00  0.00     0.033 A 
ENDROOT
BRANCH   5   8
HETATM    8  N   UNL     1       5.904  30.309  56.062  1.00  0.00    -0.333 N 
HETATM    9  H   UNL     1       6.358  31.151  55.701  1.00  0.00     0.168 HD
BRANCH   8  10
HETATM   10  C   UNL     1       5.066  30.567  57.124  1.00  0.00     0.179 C 
HETATM   11  S   UNL     1       3.397  30.524  57.211  1.00  0.00    -0.040 SA
BRANCH  10  12
HETATM   12  N   UNL     1       5.709  30.879  58.308  1.00  0.00    -0.299 N 
HETATM   13  C   UNL     1       6.081  32.112  58.826  1.00  0.00     0.260 C 
HETATM   14  O   UNL     1       5.956  33.176  58.228  1.00  0.00    -0.267 OA
HETATM   15  H   UNL     1       5.924  30.062  58.870  1.00  0.00     0.171 HD
BRANCH  13  16
HETATM   16  C   UNL     1       6.739  32.053  60.154  1.00  0.00     0.066 A 
HETATM   17  C   UNL     1       7.777  31.151  60.441  1.00  0.00     0.089 A 
HETATM   18  C   UNL     1       8.470  31.224  61.659  1.00  0.00    -0.028 A 
HETATM   19  C   UNL     1       9.640  30.323  61.942  1.00  0.00     0.051 C 
HETATM   20  C   UNL     1       8.079  32.185  62.603  1.00  0.00     0.009 A 
HETATM   21  C   UNL     1       7.011  33.048  62.342  1.00  0.00     0.002 A 
HETATM   22  C   UNL     1       6.340  32.982  61.121  1.00  0.00     0.020 A 
BRANCH  17  23
HETATM   23  O   UNL     1       8.186  30.213  59.525  1.00  0.00    -0.354 OA
HETATM   24  C   UNL     1       9.213  30.742  58.676  1.00  0.00     0.210 C 
ENDBRANCH  17  23
ENDBRANCH  13  16
ENDBRANCH  10  12
ENDBRANCH   8  10
ENDBRANCH   5   8
BRANCH   1  25
HETATM   25  N   UNL     1       7.542  25.172  54.422  1.00  0.00    -0.376 N 
HETATM   26  C   UNL     1       6.601  24.423  53.568  1.00  0.00     0.143 C 
HETATM   27  C   UNL     1       7.281  23.136  53.047  1.00  0.00     0.145 C 
HETATM   28  N   UNL     1       7.950  22.353  54.099  1.00  0.00    -0.349 N 
HETATM   29  C   UNL     1       8.122  20.989  53.886  1.00  0.00     0.219 C 
HETATM   30  C   UNL     1       8.779  23.138  55.029  1.00  0.00     0.145 C 
HETATM   31  O   UNL     1       7.620  20.411  52.921  1.00  0.00    -0.273 OA
HETATM   32  C   UNL     1       8.037  24.375  55.559  1.00  0.00     0.143 C 
BRANCH  29  33
HETATM   33  C   UNL     1       8.943  20.236  54.923  1.00  0.00     0.098 C 
HETATM   34  C   UNL     1       8.199  20.034  56.231  1.00  0.00     0.014 C 
ENDBRANCH  29  33
ENDBRANCH   1  25
TORSDOF 7
ENDMDL
MODEL 7
REMARK VINA RESULT:      -8.9      2.606      9.539
REMARK  7 active torsions:
REMARK  status: ('A' for Active; 'I' for Inactive)
REMARK    1  A    between atoms: C_2  and  C_3 
REMARK       I    between atoms: C_3  and  N_4 
REMARK    2  A    between atoms: N_7  and  C_8 
REMARK    3  A    between atoms: C_12  and  N_13 
REMARK    4  A    between atoms: N_13  and  C_14 
REMARK    5  A    between atoms: C_14  and  N_15 
REMARK       I    between atoms: N_15  and  C_16 
REMARK    6  A    between atoms: C_16  and  C_17 
REMARK    7  A    between atoms: C_18  and  O_19 
ROOT
HETATM    1  C   UNL     1       5.965  27.664  55.829  1.00  0.00     0.052 A 
HETATM    2  C   UNL     1       6.810  28.788  55.765  1.00  0.00     0.062 A 
HETATM    3 CL   UNL     1       8.520  28.678  55.513  1.00  0.00    -0.082 Cl
HETATM    4  C   UNL     1       6.305  30.086  55.953  1.00  0.00     0.055 A 
HETATM    5  C   UNL     1       4.956  30.304  56.217  1.00  0.00     0.036 A 
HETATM    6  C   UNL     1       4.139  29.192  56.416  1.00  0.00     0.032 A 
HETATM    7  C   UNL     1       4.635  27.897  56.218  1.00  0.00     0.033 A 
ENDROOT
BRANCH   5   8
HETATM    8  N   UNL     1       4.346  31.574  56.311  1.00  0.00    -0.333 N 
HETATM    9  H   UNL     1       3.441  31.653  55.841  1.00  0.00     0.168 HD
BRANCH   8  10
HETATM   10  C   UNL     1       4.815  32.783  56.773  1.00  0.00     0.179 C 
HETATM   11  S   UNL     1       4.722  34.305  56.088  1.00  0.00    -0.040 SA
BRANCH  10  12
HETATM   12  N   UNL     1       5.430  32.731  58.011  1.00  0.00    -0.299 N 
HETATM   13  C   UNL     1       4.990  32.179  59.205  1.00  0.00     0.260 C 
HETATM   14  O   UNL     1       3.877  31.691  59.370  1.00  0.00    -0.267 OA
HETATM   15  H   UNL     1       6.348  33.165  58.017  1.00  0.00     0.171 HD
BRANCH  13  16
HETATM   16  C   UNL     1       5.948  32.296  60.333  1.00  0.00     0.066 A 
HETATM   17  C   UNL     1       7.316  32.012  60.191  1.00  0.00     0.089 A 
HETATM   18  C   UNL     1       8.212  32.272  61.240  1.00  0.00    -0.028 A 
HETATM   19  C   UNL     1       9.690  32.056  61.070  1.00  0.00     0.051 C 
HETATM   20  C   UNL     1       7.710  32.779  62.447  1.00  0.00     0.009 A 
HETATM   21  C   UNL     1       6.342  33.011  62.609  1.00  0.00     0.002 A 
HETATM   22  C   UNL     1       5.460  32.768  61.556  1.00  0.00     0.020 A 
BRANCH  17  23
HETATM   23  O   UNL     1       7.831  31.530  59.012  1.00  0.00    -0.354 OA
HETATM   24  C   UNL     1       8.006  30.108  59.073  1.00  0.00     0.210 C 
ENDBRANCH  17  23
ENDBRANCH  13  16
ENDBRANCH  10  12
ENDBRANCH   8  10
ENDBRANCH   5   8
BRANCH   1  25
HETATM   25  N   UNL     1       6.288  26.346  55.494  1.00  0.00    -0.376 N 
HETATM   26  C   UNL     1       7.047  25.596  56.514  1.00  0.00     0.143 C 
HETATM   27  C   UNL     1       6.952  24.081  56.225  1.00  0.00     0.145 C 
HETATM   28  N   UNL     1       7.241  23.727  54.825  1.00  0.00    -0.349 N 
HETATM   29  C   UNL     1       7.699  22.441  54.560  1.00  0.00     0.219 C 
HETATM   30  C   UNL     1       6.582  24.575  53.818  1.00  0.00     0.145 C 
HETATM   31  O   UNL     1       7.989  21.653  55.462  1.00  0.00    -0.273 OA
HETATM   32  C   UNL     1       6.752  26.071  54.123  1.00  0.00     0.143 C 
BRANCH  29  33
HETATM   33  C   UNL     1       7.850  22.060  53.094  1.00  0.00     0.098 C 
HETATM   34  C   UNL     1       8.132  20.580  52.896  1.00  0.00     0.014 C 
ENDBRANCH  29  33
ENDBRANCH   1  25
TORSDOF 7
ENDMDL
MODEL 8
REMARK VINA RESULT:      -8.8      3.340      5.179
REMARK  7 active torsions:
REMARK  status: ('A' for Active; 'I' for Inactive)
REMARK    1  A    between atoms: C_2  and  C_3 
REMARK       I    between atoms: C_3  and  N_4 
REMARK    2  A    between atoms: N_7  and  C_8 
REMARK    3  A    between atoms: C_12  and  N_13 
REMARK    4  A    between atoms: N_13  and  C_14 
REMARK    5  A    between atoms: C_14  and  N_15 
REMARK       I    between atoms: N_15  and  C_16 
REMARK    6  A    between atoms: C_16  and  C_17 
REMARK    7  A    between atoms: C_18  and  O_19 
ROOT
HETATM    1  C   UNL     1       6.556  32.223  60.709  1.00  0.00     0.052 A 
HETATM    2  C   UNL     1       7.737  31.458  60.684  1.00  0.00     0.062 A 
HETATM    3 CL   UNL     1       8.907  31.475  61.962  1.00  0.00    -0.082 Cl
HETATM    4  C   UNL     1       8.060  30.659  59.574  1.00  0.00     0.055 A 
HETATM    5  C   UNL     1       7.228  30.602  58.460  1.00  0.00     0.036 A 
HETATM    6  C   UNL     1       6.127  31.458  58.419  1.00  0.00     0.032 A 
HETATM    7  C   UNL     1       5.795  32.247  59.527  1.00  0.00     0.033 A 
ENDROOT
BRANCH   5   8
HETATM    8  N   UNL     1       7.417  29.747  57.353  1.00  0.00    -0.333 N 
HETATM    9  H   UNL     1       6.571  29.281  57.018  1.00  0.00     0.168 HD
BRANCH   8  10
HETATM   10  C   UNL     1       8.560  29.286  56.737  1.00  0.00     0.179 C 
HETATM   11  S   UNL     1      10.114  29.901  56.758  1.00  0.00    -0.040 SA
BRANCH  10  12
HETATM   12  N   UNL     1       8.399  28.116  56.017  1.00  0.00    -0.299 N 
HETATM   13  C   UNL     1       7.283  27.616  55.361  1.00  0.00     0.260 C 
HETATM   14  O   UNL     1       6.174  28.138  55.394  1.00  0.00    -0.267 OA
HETATM   15  H   UNL     1       9.246  27.559  55.971  1.00  0.00     0.171 HD
BRANCH  13  16
HETATM   16  C   UNL     1       7.500  26.323  54.666  1.00  0.00     0.066 A 
HETATM   17  C   UNL     1       7.511  25.095  55.347  1.00  0.00     0.089 A 
HETATM   18  C   UNL     1       7.575  23.886  54.638  1.00  0.00    -0.028 A 
HETATM   19  C   UNL     1       7.498  22.563  55.349  1.00  0.00     0.051 C 
HETATM   20  C   UNL     1       7.672  23.927  53.240  1.00  0.00     0.009 A 
HETATM   21  C   UNL     1       7.717  25.148  52.563  1.00  0.00     0.002 A 
HETATM   22  C   UNL     1       7.633  26.346  53.273  1.00  0.00     0.020 A 
BRANCH  17  23
HETATM   23  O   UNL     1       7.401  25.031  56.715  1.00  0.00    -0.354 OA
HETATM   24  C   UNL     1       8.691  24.906  57.327  1.00  0.00     0.210 C 
ENDBRANCH  17  23
ENDBRANCH  13  16
ENDBRANCH  10  12
ENDBRANCH   8  10
ENDBRANCH   5   8
BRANCH   1  25
HETATM   25  N   UNL     1       6.024  32.918  61.799  1.00  0.00    -0.376 N 
HETATM   26  C   UNL     1       6.504  34.303  61.968  1.00  0.00     0.143 C 
HETATM   27  C   UNL     1       5.544  35.078  62.898  1.00  0.00     0.145 C 
HETATM   28  N   UNL     1       5.216  34.359  64.141  1.00  0.00    -0.349 N 
HETATM   29  C   UNL     1       4.829  35.111  65.245  1.00  0.00     0.219 C 
HETATM   30  C   UNL     1       4.872  32.938  63.968  1.00  0.00     0.145 C 
HETATM   31  O   UNL     1       4.881  36.342  65.247  1.00  0.00    -0.273 OA
HETATM   32  C   UNL     1       5.887  32.203  63.079  1.00  0.00     0.143 C 
BRANCH  29  33
HETATM   33  C   UNL     1       4.358  34.335  66.467  1.00  0.00     0.098 C 
HETATM   34  C   UNL     1       5.375  34.340  67.596  1.00  0.00     0.014 C 
ENDBRANCH  29  33
ENDBRANCH   1  25
TORSDOF 7
ENDMDL
MODEL 9
REMARK VINA RESULT:      -8.7      2.887     10.183
REMARK  7 active torsions:
REMARK  status: ('A' for Active; 'I' for Inactive)
REMARK    1  A    between atoms: C_2  and  C_3 
REMARK       I    between atoms: C_3  and  N_4 
REMARK    2  A    between atoms: N_7  and  C_8 
REMARK    3  A    between atoms: C_12  and  N_13 
REMARK    4  A    between atoms: N_13  and  C_14 
REMARK    5  A    between atoms: C_14  and  N_15 
REMARK       I    between atoms: N_15  and  C_16 
REMARK    6  A    between atoms: C_16  and  C_17 
REMARK    7  A    between atoms: C_18  and  O_19 
ROOT
HETATM    1  C   UNL     1       5.492  27.769  55.820  1.00  0.00     0.052 A 
HETATM    2  C   UNL     1       4.484  28.517  55.183  1.00  0.00     0.062 A 
HETATM    3 CL   UNL     1       3.758  28.046  53.682  1.00  0.00    -0.082 Cl
HETATM    4  C   UNL     1       4.036  29.736  55.719  1.00  0.00     0.055 A 
HETATM    5  C   UNL     1       4.579  30.250  56.893  1.00  0.00     0.036 A 
HETATM    6  C   UNL     1       5.669  29.586  57.457  1.00  0.00     0.032 A 
HETATM    7  C   UNL     1       6.110  28.365  56.932  1.00  0.00     0.033 A 
ENDROOT
BRANCH   5   8
HETATM    8  N   UNL     1       4.118  31.406  57.559  1.00  0.00    -0.333 N 
HETATM    9  H   UNL     1       3.118  31.410  57.772  1.00  0.00     0.168 HD
BRANCH   8  10
HETATM   10  C   UNL     1       4.726  32.611  57.828  1.00  0.00     0.179 C 
HETATM   11  S   UNL     1       4.624  34.071  57.020  1.00  0.00    -0.040 SA
BRANCH  10  12
HETATM   12  N   UNL     1       5.520  32.620  58.961  1.00  0.00    -0.299 N 
HETATM   13  C   UNL     1       5.194  32.352  60.283  1.00  0.00     0.260 C 
HETATM   14  O   UNL     1       4.054  32.130  60.680  1.00  0.00    -0.267 OA
HETATM   15  H   UNL     1       6.488  32.855  58.766  1.00  0.00     0.171 HD
BRANCH  13  16
HETATM   16  C   UNL     1       6.331  32.438  61.232  1.00  0.00     0.066 A 
HETATM   17  C   UNL     1       6.253  33.154  62.438  1.00  0.00     0.089 A 
HETATM   18  C   UNL     1       7.296  33.093  63.374  1.00  0.00    -0.028 A 
HETATM   19  C   UNL     1       7.187  33.783  64.705  1.00  0.00     0.051 C 
HETATM   20  C   UNL     1       8.438  32.340  63.064  1.00  0.00     0.009 A 
HETATM   21  C   UNL     1       8.542  31.671  61.842  1.00  0.00     0.002 A 
HETATM   22  C   UNL     1       7.492  31.721  60.925  1.00  0.00     0.020 A 
BRANCH  17  23
HETATM   23  O   UNL     1       5.137  33.885  62.768  1.00  0.00    -0.354 OA
HETATM   24  C   UNL     1       5.225  35.217  62.244  1.00  0.00     0.210 C 
ENDBRANCH  17  23
ENDBRANCH  13  16
ENDBRANCH  10  12
ENDBRANCH   8  10
ENDBRANCH   5   8
BRANCH   1  25
HETATM   25  N   UNL     1       5.909  26.473  55.503  1.00  0.00    -0.376 N 
HETATM   26  C   UNL     1       6.639  25.760  56.569  1.00  0.00     0.143 C 
HETATM   27  C   UNL     1       6.648  24.244  56.270  1.00  0.00     0.145 C 
HETATM   28  N   UNL     1       7.050  23.916  54.891  1.00  0.00    -0.349 N 
HETATM   29  C   UNL     1       7.596  22.659  54.654  1.00  0.00     0.219 C 
HETATM   30  C   UNL     1       6.413  24.733  53.845  1.00  0.00     0.145 C 
HETATM   31  O   UNL     1       7.869  21.882  55.571  1.00  0.00    -0.273 OA
HETATM   32  C   UNL     1       6.479  26.234  54.166  1.00  0.00     0.143 C 
BRANCH  29  33
HETATM   33  C   UNL     1       7.865  22.297  53.200  1.00  0.00     0.098 C 
HETATM   34  C   UNL     1       7.923  20.796  52.968  1.00  0.00     0.014 C 
ENDBRANCH  29  33
ENDBRANCH   1  25
TORSDOF 7
ENDMDL
MODEL 10
REMARK VINA RESULT:      -8.7      2.600     10.390
REMARK  7 active torsions:
REMARK  status: ('A' for Active; 'I' for Inactive)
REMARK    1  A    between atoms: C_2  and  C_3 
REMARK       I    between atoms: C_3  and  N_4 
REMARK    2  A    between atoms: N_7  and  C_8 
REMARK    3  A    between atoms: C_12  and  N_13 
REMARK    4  A    between atoms: N_13  and  C_14 
REMARK    5  A    between atoms: C_14  and  N_15 
REMARK       I    between atoms: N_15  and  C_16 
REMARK    6  A    between atoms: C_16  and  C_17 
REMARK    7  A    between atoms: C_18  and  O_19 
ROOT
HETATM    1  C   UNL     1       6.579  27.144  56.556  1.00  0.00     0.052 A 
HETATM    2  C   UNL     1       7.316  28.209  57.106  1.00  0.00     0.062 A 
HETATM    3 CL   UNL     1       9.046  28.217  57.206  1.00  0.00    -0.082 Cl
HETATM    4  C   UNL     1       6.670  29.327  57.660  1.00  0.00     0.055 A 
HETATM    5  C   UNL     1       5.282  29.417  57.690  1.00  0.00     0.036 A 
HETATM    6  C   UNL     1       4.544  28.309  57.272  1.00  0.00     0.032 A 
HETATM    7  C   UNL     1       5.183  27.198  56.708  1.00  0.00     0.033 A 
ENDROOT
BRANCH   5   8
HETATM    8  N   UNL     1       4.554  30.545  58.126  1.00  0.00    -0.333 N 
HETATM    9  H   UNL     1       3.543  30.405  58.195  1.00  0.00     0.168 HD
BRANCH   8  10
HETATM   10  C   UNL     1       4.926  31.857  58.315  1.00  0.00     0.179 C 
HETATM   11  S   UNL     1       4.844  33.159  57.269  1.00  0.00    -0.040 SA
BRANCH  10  12
HETATM   12  N   UNL     1       5.413  32.146  59.577  1.00  0.00    -0.299 N 
HETATM   13  C   UNL     1       6.701  32.454  59.989  1.00  0.00     0.260 C 
HETATM   14  O   UNL     1       7.683  32.434  59.254  1.00  0.00    -0.267 OA
HETATM   15  H   UNL     1       4.693  32.132  60.293  1.00  0.00     0.171 HD
BRANCH  13  16
HETATM   16  C   UNL     1       6.838  32.733  61.440  1.00  0.00     0.066 A 
HETATM   17  C   UNL     1       5.813  33.330  62.192  1.00  0.00     0.089 A 
HETATM   18  C   UNL     1       5.925  33.445  63.586  1.00  0.00    -0.028 A 
HETATM   19  C   UNL     1       4.799  34.000  64.413  1.00  0.00     0.051 C 
HETATM   20  C   UNL     1       7.098  32.993  64.210  1.00  0.00     0.009 A 
HETATM   21  C   UNL     1       8.142  32.450  63.457  1.00  0.00     0.002 A 
HETATM   22  C   UNL     1       8.016  32.321  62.074  1.00  0.00     0.020 A 
BRANCH  17  23
HETATM   23  O   UNL     1       4.650  33.763  61.604  1.00  0.00    -0.354 OA
HETATM   24  C   UNL     1       4.725  35.160  61.291  1.00  0.00     0.210 C 
ENDBRANCH  17  23
ENDBRANCH  13  16
ENDBRANCH  10  12
ENDBRANCH   8  10
ENDBRANCH   5   8
BRANCH   1  25
HETATM   25  N   UNL     1       7.078  26.063  55.823  1.00  0.00    -0.376 N 
HETATM   26  C   UNL     1       6.648  25.996  54.413  1.00  0.00     0.143 C 
HETATM   27  C   UNL     1       7.587  25.053  53.627  1.00  0.00     0.145 C 
HETATM   28  N   UNL     1       7.812  23.756  54.288  1.00  0.00    -0.349 N 
HETATM   29  C   UNL     1       8.168  22.673  53.492  1.00  0.00     0.219 C 
HETATM   30  C   UNL     1       8.105  23.834  55.729  1.00  0.00     0.145 C 
HETATM   31  O   UNL     1       8.168  22.739  52.262  1.00  0.00    -0.273 OA
HETATM   32  C   UNL     1       7.111  24.740  56.472  1.00  0.00     0.143 C 
BRANCH  29  33
HETATM   33  C   UNL     1       8.534  21.386  54.218  1.00  0.00     0.098 C 
HETATM   34  C   UNL     1       8.693  20.203  53.277  1.00  0.00     0.014 C 
ENDBRANCH  29  33
ENDBRANCH   1  25
TORSDOF 7
ENDMDL
