MODEL 1
REMARK VINA RESULT:      -9.1      0.000      0.000
REMARK  7 active torsions:
REMARK  status: ('A' for Active; 'I' for Inactive)
REMARK    1  A    between atoms: C_2  and  O_3 
REMARK    2  A    between atoms: O_3  and  C_4 
REMARK    3  A    between atoms: C_4  and  C_5 
REMARK    4  A    between atoms: C_6  and  C_7 
REMARK    5  A    between atoms: C_18  and  S_19 
REMARK    6  A    between atoms: S_19  and  C_20 
REMARK    7  A    between atoms: C_20  and  C_21 
ROOT
HETATM    1  C   UNL     1       4.998  30.180  56.090  1.00  0.00     0.070 C 
HETATM    2  C   UNL     1       5.769  28.867  56.248  1.00  0.00     0.203 C 
HETATM    3  N   UNL     1       5.609  28.021  55.062  1.00  0.00    -0.082 N 
HETATM    4  C   UNL     1       5.149  28.476  53.860  1.00  0.00     0.726 A 
HETATM    5  N   UNL     1       4.782  29.769  53.749  1.00  0.00    -0.192 N 
HETATM    6  N   UNL     1       5.810  26.693  55.043  1.00  0.00    -0.128 NA
HETATM    7  C   UNL     1       5.506  26.411  53.770  1.00  0.00     0.226 A 
HETATM    8  N   UNL     1       5.109  27.485  53.006  1.00  0.00    -0.035 NA
HETATM    9  C   UNL     1       4.599  30.600  54.859  1.00  0.00     0.037 C 
HETATM   10  C   UNL     1       3.962  31.933  54.560  1.00  0.00     0.070 C 
HETATM   11  H   UNL     1       4.349  30.067  52.878  1.00  0.00     0.184 HD
ENDROOT
BRANCH   7  12
HETATM   12  S   UNL     1       5.581  24.774  53.190  1.00  0.00    -0.083 SA
BRANCH  12  13
HETATM   13  C   UNL     1       7.352  24.434  53.374  1.00  0.00     0.123 C 
BRANCH  13  14
HETATM   14  C   UNL     1       7.585  23.023  53.865  1.00  0.00    -0.027 A 
HETATM   15  C   UNL     1       7.623  22.686  55.228  1.00  0.00     0.041 A 
HETATM   16 CL   UNL     1       7.368  23.857  56.473  1.00  0.00    -0.084 Cl
HETATM   17  C   UNL     1       7.878  21.369  55.628  1.00  0.00     0.024 A 
HETATM   18  C   UNL     1       8.105  20.375  54.677  1.00  0.00     0.002 A 
HETATM   19  C   UNL     1       8.078  20.694  53.323  1.00  0.00     0.001 A 
HETATM   20  C   UNL     1       7.822  22.007  52.920  1.00  0.00     0.009 A 
ENDBRANCH  13  14
ENDBRANCH  12  13
ENDBRANCH   7  12
BRANCH   2  21
HETATM   21  C   UNL     1       7.260  29.095  56.515  1.00  0.00    -0.028 A 
HETATM   22  C   UNL     1       7.711  29.285  57.832  1.00  0.00     0.011 A 
HETATM   23  C   UNL     1       9.062  29.524  58.097  1.00  0.00     0.024 A 
HETATM   24  C   UNL     1       9.976  29.576  57.048  1.00  0.00     0.034 A 
HETATM   25 CL   UNL     1      11.637  29.883  57.373  1.00  0.00    -0.084 Cl
HETATM   26  C   UNL     1       9.552  29.386  55.735  1.00  0.00     0.024 A 
HETATM   27  C   UNL     1       8.201  29.146  55.469  1.00  0.00     0.011 A 
ENDBRANCH   2  21
BRANCH   1  28
HETATM   28  C   UNL     1       4.723  30.832  57.399  1.00  0.00     0.293 C 
HETATM   29  O   UNL     1       3.790  30.505  58.117  1.00  0.00    -0.259 OA
BRANCH  28  30
HETATM   30  O   UNL     1       5.544  31.882  57.631  1.00  0.00    -0.318 OA
BRANCH  30  31
HETATM   31  C   UNL     1       5.422  32.503  58.920  1.00  0.00     0.174 C 
HETATM   32  C   UNL     1       6.662  32.251  59.759  1.00  0.00     0.034 C 
ENDBRANCH  30  31
ENDBRANCH  28  30
ENDBRANCH   1  28
TORSDOF 7
ENDMDL
MODEL 2
REMARK VINA RESULT:      -9.0      3.527      8.023
REMARK  7 active torsions:
REMARK  status: ('A' for Active; 'I' for Inactive)
REMARK    1  A    between atoms: C_2  and  O_3 
REMARK    2  A    between atoms: O_3  and  C_4 
REMARK    3  A    between atoms: C_4  and  C_5 
REMARK    4  A    between atoms: C_6  and  C_7 
REMARK    5  A    between atoms: C_18  and  S_19 
REMARK    6  A    between atoms: S_19  and  C_20 
REMARK    7  A    between atoms: C_20  and  C_21 
ROOT
HETATM    1  C   UNL     1       5.385  28.132  52.529  1.00  0.00     0.070 C 
HETATM    2  C   UNL     1       6.647  27.729  53.297  1.00  0.00     0.203 C 
HETATM    3  N   UNL     1       6.566  28.153  54.696  1.00  0.00    -0.082 N 
HETATM    4  C   UNL     1       5.405  28.526  55.312  1.00  0.00     0.726 A 
HETATM    5  N   UNL     1       4.263  28.544  54.596  1.00  0.00    -0.192 N 
HETATM    6  N   UNL     1       7.626  28.311  55.506  1.00  0.00    -0.128 NA
HETATM    7  C   UNL     1       7.027  28.729  56.627  1.00  0.00     0.226 A 
HETATM    8  N   UNL     1       5.659  28.860  56.552  1.00  0.00    -0.035 NA
HETATM    9  C   UNL     1       4.246  28.456  53.201  1.00  0.00     0.037 C 
HETATM   10  C   UNL     1       2.909  28.730  52.559  1.00  0.00     0.070 C 
HETATM   11  H   UNL     1       3.428  28.917  55.041  1.00  0.00     0.184 HD
ENDROOT
BRANCH   7  12
HETATM   12  S   UNL     1       7.969  29.112  58.038  1.00  0.00    -0.083 SA
BRANCH  12  13
HETATM   13  C   UNL     1       7.359  30.780  58.405  1.00  0.00     0.123 C 
BRANCH  13  14
HETATM   14  C   UNL     1       7.760  31.210  59.797  1.00  0.00    -0.027 A 
HETATM   15  C   UNL     1       7.046  32.170  60.534  1.00  0.00     0.041 A 
HETATM   16 CL   UNL     1       5.615  32.922  59.923  1.00  0.00    -0.084 Cl
HETATM   17  C   UNL     1       7.482  32.557  61.807  1.00  0.00     0.024 A 
HETATM   18  C   UNL     1       8.636  32.000  62.356  1.00  0.00     0.002 A 
HETATM   19  C   UNL     1       9.358  31.054  61.636  1.00  0.00     0.001 A 
HETATM   20  C   UNL     1       8.925  30.663  60.367  1.00  0.00     0.009 A 
ENDBRANCH  13  14
ENDBRANCH  12  13
ENDBRANCH   7  12
BRANCH   2  21
HETATM   21  C   UNL     1       6.909  26.221  53.235  1.00  0.00    -0.028 A 
HETATM   22  C   UNL     1       6.249  25.362  54.130  1.00  0.00     0.011 A 
HETATM   23  C   UNL     1       6.494  23.986  54.113  1.00  0.00     0.024 A 
HETATM   24  C   UNL     1       7.403  23.455  53.201  1.00  0.00     0.034 A 
HETATM   25 CL   UNL     1       7.716  21.765  53.188  1.00  0.00    -0.084 Cl
HETATM   26  C   UNL     1       8.065  24.288  52.302  1.00  0.00     0.024 A 
HETATM   27  C   UNL     1       7.819  25.664  52.318  1.00  0.00     0.011 A 
ENDBRANCH   2  21
BRANCH   1  28
HETATM   28  C   UNL     1       5.609  28.173  51.060  1.00  0.00     0.293 C 
HETATM   29  O   UNL     1       6.059  29.154  50.486  1.00  0.00    -0.259 OA
BRANCH  28  30
HETATM   30  O   UNL     1       5.154  27.059  50.441  1.00  0.00    -0.318 OA
BRANCH  30  31
HETATM   31  C   UNL     1       4.217  27.270  49.373  1.00  0.00     0.174 C 
HETATM   32  C   UNL     1       4.728  26.664  48.079  1.00  0.00     0.034 C 
ENDBRANCH  30  31
ENDBRANCH  28  30
ENDBRANCH   1  28
TORSDOF 7
ENDMDL
MODEL 3
REMARK VINA RESULT:      -8.6      4.483      6.806
REMARK  7 active torsions:
REMARK  status: ('A' for Active; 'I' for Inactive)
REMARK    1  A    between atoms: C_2  and  O_3 
REMARK    2  A    between atoms: O_3  and  C_4 
REMARK    3  A    between atoms: C_4  and  C_5 
REMARK    4  A    between atoms: C_6  and  C_7 
REMARK    5  A    between atoms: C_18  and  S_19 
REMARK    6  A    between atoms: S_19  and  C_20 
REMARK    7  A    between atoms: C_20  and  C_21 
ROOT
HETATM    1  C   UNL     1       4.703  30.539  51.024  1.00  0.00     0.070 C 
HETATM    2  C   UNL     1       5.159  29.078  51.086  1.00  0.00     0.203 C 
HETATM    3  N   UNL     1       4.928  28.515  52.419  1.00  0.00    -0.082 N 
HETATM    4  C   UNL     1       4.108  29.081  53.353  1.00  0.00     0.726 A 
HETATM    5  N   UNL     1       3.493  30.245  53.061  1.00  0.00    -0.192 N 
HETATM    6  N   UNL     1       5.559  27.434  52.908  1.00  0.00    -0.128 NA
HETATM    7  C   UNL     1       5.027  27.365  54.134  1.00  0.00     0.226 A 
HETATM    8  N   UNL     1       4.118  28.352  54.440  1.00  0.00    -0.035 NA
HETATM    9  C   UNL     1       3.853  31.034  51.964  1.00  0.00     0.037 C 
HETATM   10  C   UNL     1       3.226  32.405  51.930  1.00  0.00     0.070 C 
HETATM   11  H   UNL     1       2.966  30.703  53.801  1.00  0.00     0.184 HD
ENDROOT
BRANCH   7  12
HETATM   12  S   UNL     1       5.523  26.118  55.239  1.00  0.00    -0.083 SA
BRANCH  12  13
HETATM   13  C   UNL     1       7.230  25.847  54.692  1.00  0.00     0.123 C 
BRANCH  13  14
HETATM   14  C   UNL     1       7.489  24.381  54.430  1.00  0.00    -0.027 A 
HETATM   15  C   UNL     1       7.698  23.862  53.141  1.00  0.00     0.041 A 
HETATM   16 CL   UNL     1       7.713  24.867  51.736  1.00  0.00    -0.084 Cl
HETATM   17  C   UNL     1       7.898  22.489  52.951  1.00  0.00     0.024 A 
HETATM   18  C   UNL     1       7.885  21.618  54.040  1.00  0.00     0.002 A 
HETATM   19  C   UNL     1       7.673  22.115  55.322  1.00  0.00     0.001 A 
HETATM   20  C   UNL     1       7.475  23.484  55.515  1.00  0.00     0.009 A 
ENDBRANCH  13  14
ENDBRANCH  12  13
ENDBRANCH   7  12
BRANCH   2  21
HETATM   21  C   UNL     1       4.464  28.206  50.037  1.00  0.00    -0.028 A 
HETATM   22  C   UNL     1       5.202  27.235  49.339  1.00  0.00     0.011 A 
HETATM   23  C   UNL     1       4.596  26.447  48.356  1.00  0.00     0.024 A 
HETATM   24  C   UNL     1       3.247  26.623  48.060  1.00  0.00     0.034 A 
HETATM   25 CL   UNL     1       2.505  25.663  46.841  1.00  0.00    -0.084 Cl
HETATM   26  C   UNL     1       2.496  27.576  48.743  1.00  0.00     0.024 A 
HETATM   27  C   UNL     1       3.100  28.363  49.727  1.00  0.00     0.011 A 
ENDBRANCH   2  21
BRANCH   1  28
HETATM   28  C   UNL     1       5.341  31.279  49.903  1.00  0.00     0.293 C 
HETATM   29  O   UNL     1       6.519  31.605  49.911  1.00  0.00    -0.259 OA
BRANCH  28  30
HETATM   30  O   UNL     1       4.447  31.640  48.953  1.00  0.00    -0.318 OA
BRANCH  30  31
HETATM   31  C   UNL     1       4.920  31.601  47.597  1.00  0.00     0.174 C 
HETATM   32  C   UNL     1       4.563  30.280  46.940  1.00  0.00     0.034 C 
ENDBRANCH  30  31
ENDBRANCH  28  30
ENDBRANCH   1  28
TORSDOF 7
ENDMDL
MODEL 4
REMARK VINA RESULT:      -8.6      4.681      6.615
REMARK  7 active torsions:
REMARK  status: ('A' for Active; 'I' for Inactive)
REMARK    1  A    between atoms: C_2  and  O_3 
REMARK    2  A    between atoms: O_3  and  C_4 
REMARK    3  A    between atoms: C_4  and  C_5 
REMARK    4  A    between atoms: C_6  and  C_7 
REMARK    5  A    between atoms: C_18  and  S_19 
REMARK    6  A    between atoms: S_19  and  C_20 
REMARK    7  A    between atoms: C_20  and  C_21 
ROOT
HETATM    1  C   UNL     1       3.414  27.876  49.314  1.00  0.00     0.070 C 
HETATM    2  C   UNL     1       3.693  28.361  50.739  1.00  0.00     0.203 C 
HETATM    3  N   UNL     1       4.581  27.433  51.443  1.00  0.00    -0.082 N 
HETATM    4  C   UNL     1       5.333  26.478  50.819  1.00  0.00     0.726 A 
HETATM    5  N   UNL     1       5.239  26.346  49.481  1.00  0.00    -0.192 N 
HETATM    6  N   UNL     1       4.691  27.352  52.780  1.00  0.00    -0.128 NA
HETATM    7  C   UNL     1       5.579  26.357  52.899  1.00  0.00     0.226 A 
HETATM    8  N   UNL     1       6.009  25.804  51.715  1.00  0.00    -0.035 NA
HETATM    9  C   UNL     1       4.224  26.951  48.732  1.00  0.00     0.037 C 
HETATM   10  C   UNL     1       4.137  26.502  47.295  1.00  0.00     0.070 C 
HETATM   11  H   UNL     1       5.729  25.568  49.045  1.00  0.00     0.184 HD
ENDROOT
BRANCH   7  12
HETATM   12  S   UNL     1       6.082  25.811  54.472  1.00  0.00    -0.083 SA
BRANCH  12  13
HETATM   13  C   UNL     1       7.738  25.177  54.091  1.00  0.00     0.123 C 
BRANCH  13  14
HETATM   14  C   UNL     1       7.774  23.669  54.177  1.00  0.00    -0.027 A 
HETATM   15  C   UNL     1       7.849  22.975  55.397  1.00  0.00     0.041 A 
HETATM   16 CL   UNL     1       7.870  23.792  56.919  1.00  0.00    -0.084 Cl
HETATM   17  C   UNL     1       7.915  21.577  55.417  1.00  0.00     0.024 A 
HETATM   18  C   UNL     1       7.915  20.854  54.224  1.00  0.00     0.002 A 
HETATM   19  C   UNL     1       7.848  21.526  53.008  1.00  0.00     0.001 A 
HETATM   20  C   UNL     1       7.780  22.921  52.984  1.00  0.00     0.009 A 
ENDBRANCH  13  14
ENDBRANCH  12  13
ENDBRANCH   7  12
BRANCH   2  21
HETATM   21  C   UNL     1       4.299  29.767  50.768  1.00  0.00    -0.028 A 
HETATM   22  C   UNL     1       3.684  30.776  51.529  1.00  0.00     0.011 A 
HETATM   23  C   UNL     1       4.201  32.074  51.547  1.00  0.00     0.024 A 
HETATM   24  C   UNL     1       5.340  32.377  50.805  1.00  0.00     0.034 A 
HETATM   25 CL   UNL     1       5.970  33.977  50.817  1.00  0.00    -0.084 Cl
HETATM   26  C   UNL     1       5.969  31.391  50.048  1.00  0.00     0.024 A 
HETATM   27  C   UNL     1       5.452  30.093  50.030  1.00  0.00     0.011 A 
ENDBRANCH   2  21
BRANCH   1  28
HETATM   28  C   UNL     1       2.181  28.482  48.745  1.00  0.00     0.293 C 
HETATM   29  O   UNL     1       1.136  27.859  48.618  1.00  0.00    -0.259 OA
BRANCH  28  30
HETATM   30  O   UNL     1       2.390  29.739  48.290  1.00  0.00    -0.318 OA
BRANCH  30  31
HETATM   31  C   UNL     1       2.641  29.864  46.881  1.00  0.00     0.174 C 
HETATM   32  C   UNL     1       4.010  30.471  46.630  1.00  0.00     0.034 C 
ENDBRANCH  30  31
ENDBRANCH  28  30
ENDBRANCH   1  28
TORSDOF 7
ENDMDL
MODEL 5
REMARK VINA RESULT:      -8.0      2.159      3.062
REMARK  7 active torsions:
REMARK  status: ('A' for Active; 'I' for Inactive)
REMARK    1  A    between atoms: C_2  and  O_3 
REMARK    2  A    between atoms: O_3  and  C_4 
REMARK    3  A    between atoms: C_4  and  C_5 
REMARK    4  A    between atoms: C_6  and  C_7 
REMARK    5  A    between atoms: C_18  and  S_19 
REMARK    6  A    between atoms: S_19  and  C_20 
REMARK    7  A    between atoms: C_20  and  C_21 
ROOT
HETATM    1  C   UNL     1       4.754  32.251  57.253  1.00  0.00     0.070 C 
HETATM    2  C   UNL     1       5.248  30.999  57.982  1.00  0.00     0.203 C 
HETATM    3  N   UNL     1       5.439  29.889  57.046  1.00  0.00    -0.082 N 
HETATM    4  C   UNL     1       5.515  30.041  55.691  1.00  0.00     0.726 A 
HETATM    5  N   UNL     1       5.373  31.275  55.164  1.00  0.00    -0.192 N 
HETATM    6  N   UNL     1       5.472  28.593  57.399  1.00  0.00    -0.128 NA
HETATM    7  C   UNL     1       5.630  28.011  56.204  1.00  0.00     0.226 A 
HETATM    8  N   UNL     1       5.676  28.870  55.130  1.00  0.00    -0.035 NA
HETATM    9  C   UNL     1       4.894  32.360  55.904  1.00  0.00     0.037 C 
HETATM   10  C   UNL     1       4.577  33.593  55.096  1.00  0.00     0.070 C 
HETATM   11  H   UNL     1       5.333  31.357  54.151  1.00  0.00     0.184 HD
ENDROOT
BRANCH   7  12
HETATM   12  S   UNL     1       5.717  26.279  56.074  1.00  0.00    -0.083 SA
BRANCH  12  13
HETATM   13  C   UNL     1       7.202  26.094  55.050  1.00  0.00     0.123 C 
BRANCH  13  14
HETATM   14  C   UNL     1       7.454  24.642  54.716  1.00  0.00    -0.027 A 
HETATM   15  C   UNL     1       7.754  24.199  53.417  1.00  0.00     0.041 A 
HETATM   16 CL   UNL     1       7.901  25.289  52.084  1.00  0.00    -0.084 Cl
HETATM   17  C   UNL     1       7.944  22.837  53.157  1.00  0.00     0.024 A 
HETATM   18  C   UNL     1       7.828  21.900  54.183  1.00  0.00     0.002 A 
HETATM   19  C   UNL     1       7.524  22.322  55.473  1.00  0.00     0.001 A 
HETATM   20  C   UNL     1       7.336  23.680  55.738  1.00  0.00     0.009 A 
ENDBRANCH  13  14
ENDBRANCH  12  13
ENDBRANCH   7  12
BRANCH   2  21
HETATM   21  C   UNL     1       6.550  31.247  58.750  1.00  0.00    -0.028 A 
HETATM   22  C   UNL     1       6.529  32.015  59.927  1.00  0.00     0.011 A 
HETATM   23  C   UNL     1       7.708  32.280  60.628  1.00  0.00     0.024 A 
HETATM   24  C   UNL     1       8.921  31.781  60.161  1.00  0.00     0.034 A 
HETATM   25 CL   UNL     1      10.374  32.117  61.016  1.00  0.00    -0.084 Cl
HETATM   26  C   UNL     1       8.964  31.013  58.999  1.00  0.00     0.024 A 
HETATM   27  C   UNL     1       7.785  30.746  58.298  1.00  0.00     0.011 A 
ENDBRANCH   2  21
BRANCH   1  28
HETATM   28  C   UNL     1       4.094  33.214  58.173  1.00  0.00     0.293 C 
HETATM   29  O   UNL     1       4.456  34.377  58.284  1.00  0.00    -0.259 OA
BRANCH  28  30
HETATM   30  O   UNL     1       3.146  32.626  58.938  1.00  0.00    -0.318 OA
BRANCH  30  31
HETATM   31  C   UNL     1       2.865  33.264  60.194  1.00  0.00     0.174 C 
HETATM   32  C   UNL     1       3.468  32.478  61.344  1.00  0.00     0.034 C 
ENDBRANCH  30  31
ENDBRANCH  28  30
ENDBRANCH   1  28
TORSDOF 7
ENDMDL
MODEL 6
REMARK VINA RESULT:      -8.0      4.953      7.272
REMARK  7 active torsions:
REMARK  status: ('A' for Active; 'I' for Inactive)
REMARK    1  A    between atoms: C_2  and  O_3 
REMARK    2  A    between atoms: O_3  and  C_4 
REMARK    3  A    between atoms: C_4  and  C_5 
REMARK    4  A    between atoms: C_6  and  C_7 
REMARK    5  A    between atoms: C_18  and  S_19 
REMARK    6  A    between atoms: S_19  and  C_20 
REMARK    7  A    between atoms: C_20  and  C_21 
ROOT
HETATM    1  C   UNL     1       4.879  30.138  50.639  1.00  0.00     0.070 C 
HETATM    2  C   UNL     1       4.984  28.678  50.191  1.00  0.00     0.203 C 
HETATM    3  N   UNL     1       4.927  27.772  51.341  1.00  0.00    -0.082 N 
HETATM    4  C   UNL     1       4.487  28.142  52.579  1.00  0.00     0.726 A 
HETATM    5  N   UNL     1       4.111  29.421  52.783  1.00  0.00    -0.192 N 
HETATM    6  N   UNL     1       5.381  26.508  51.336  1.00  0.00    -0.128 NA
HETATM    7  C   UNL     1       5.130  26.146  52.600  1.00  0.00     0.226 A 
HETATM    8  N   UNL     1       4.566  27.119  53.392  1.00  0.00    -0.035 NA
HETATM    9  C   UNL     1       4.394  30.444  51.873  1.00  0.00     0.037 C 
HETATM   10  C   UNL     1       4.112  31.839  52.372  1.00  0.00     0.070 C 
HETATM   11  H   UNL     1       3.881  29.704  53.733  1.00  0.00     0.184 HD
ENDROOT
BRANCH   7  12
HETATM   12  S   UNL     1       5.553  24.555  53.160  1.00  0.00    -0.083 SA
BRANCH  12  13
HETATM   13  C   UNL     1       7.315  24.785  53.523  1.00  0.00     0.123 C 
BRANCH  13  14
HETATM   14  C   UNL     1       7.753  23.898  54.666  1.00  0.00    -0.027 A 
HETATM   15  C   UNL     1       7.999  22.523  54.513  1.00  0.00     0.041 A 
HETATM   16 CL   UNL     1       7.856  21.727  52.986  1.00  0.00    -0.084 Cl
HETATM   17  C   UNL     1       8.370  21.741  55.613  1.00  0.00     0.024 A 
HETATM   18  C   UNL     1       8.492  22.316  56.877  1.00  0.00     0.002 A 
HETATM   19  C   UNL     1       8.245  23.674  57.047  1.00  0.00     0.001 A 
HETATM   20  C   UNL     1       7.877  24.459  55.951  1.00  0.00     0.009 A 
ENDBRANCH  13  14
ENDBRANCH  12  13
ENDBRANCH   7  12
BRANCH   2  21
HETATM   21  C   UNL     1       3.892  28.296  49.187  1.00  0.00    -0.028 A 
HETATM   22  C   UNL     1       2.547  28.578  49.479  1.00  0.00     0.011 A 
HETATM   23  C   UNL     1       1.531  28.212  48.592  1.00  0.00     0.024 A 
HETATM   24  C   UNL     1       1.849  27.561  47.403  1.00  0.00     0.034 A 
HETATM   25 CL   UNL     1       0.598  27.099  46.318  1.00  0.00    -0.084 Cl
HETATM   26  C   UNL     1       3.176  27.277  47.091  1.00  0.00     0.024 A 
HETATM   27  C   UNL     1       4.193  27.643  47.977  1.00  0.00     0.011 A 
ENDBRANCH   2  21
BRANCH   1  28
HETATM   28  C   UNL     1       5.408  31.080  49.617  1.00  0.00     0.293 C 
HETATM   29  O   UNL     1       6.561  31.486  49.627  1.00  0.00    -0.259 OA
BRANCH  28  30
HETATM   30  O   UNL     1       4.447  31.509  48.768  1.00  0.00    -0.318 OA
BRANCH  30  31
HETATM   31  C   UNL     1       4.908  32.147  47.566  1.00  0.00     0.174 C 
HETATM   32  C   UNL     1       4.055  31.738  46.378  1.00  0.00     0.034 C 
ENDBRANCH  30  31
ENDBRANCH  28  30
ENDBRANCH   1  28
TORSDOF 7
ENDMDL
MODEL 7
REMARK VINA RESULT:      -7.9      2.650      3.427
REMARK  7 active torsions:
REMARK  status: ('A' for Active; 'I' for Inactive)
REMARK    1  A    between atoms: C_2  and  O_3 
REMARK    2  A    between atoms: O_3  and  C_4 
REMARK    3  A    between atoms: C_4  and  C_5 
REMARK    4  A    between atoms: C_6  and  C_7 
REMARK    5  A    between atoms: C_18  and  S_19 
REMARK    6  A    between atoms: S_19  and  C_20 
REMARK    7  A    between atoms: C_20  and  C_21 
ROOT
HETATM    1  C   UNL     1       3.322  31.488  55.120  1.00  0.00     0.070 C 
HETATM    2  C   UNL     1       3.579  30.461  56.225  1.00  0.00     0.203 C 
HETATM    3  N   UNL     1       4.317  29.307  55.706  1.00  0.00    -0.082 N 
HETATM    4  C   UNL     1       4.986  29.305  54.515  1.00  0.00     0.726 A 
HETATM    5  N   UNL     1       4.948  30.410  53.744  1.00  0.00    -0.192 N 
HETATM    6  N   UNL     1       4.347  28.098  56.290  1.00  0.00    -0.128 NA
HETATM    7  C   UNL     1       5.107  27.418  55.423  1.00  0.00     0.226 A 
HETATM    8  N   UNL     1       5.533  28.131  54.326  1.00  0.00    -0.035 NA
HETATM    9  C   UNL     1       4.050  31.458  53.970  1.00  0.00     0.037 C 
HETATM   10  C   UNL     1       3.988  32.493  52.876  1.00  0.00     0.070 C 
HETATM   11  H   UNL     1       5.368  30.359  52.818  1.00  0.00     0.184 HD
ENDROOT
BRANCH   7  12
HETATM   12  S   UNL     1       5.462  25.737  55.694  1.00  0.00    -0.083 SA
BRANCH  12  13
HETATM   13  C   UNL     1       7.076  25.600  54.881  1.00  0.00     0.123 C 
BRANCH  13  14
HETATM   14  C   UNL     1       7.396  24.161  54.549  1.00  0.00    -0.027 A 
HETATM   15  C   UNL     1       7.677  23.724  53.244  1.00  0.00     0.041 A 
HETATM   16 CL   UNL     1       7.718  24.808  51.899  1.00  0.00    -0.084 Cl
HETATM   17  C   UNL     1       7.933  22.371  52.987  1.00  0.00     0.024 A 
HETATM   18  C   UNL     1       7.903  21.439  54.023  1.00  0.00     0.002 A 
HETATM   19  C   UNL     1       7.619  21.855  55.320  1.00  0.00     0.001 A 
HETATM   20  C   UNL     1       7.366  23.204  55.581  1.00  0.00     0.009 A 
ENDBRANCH  13  14
ENDBRANCH  12  13
ENDBRANCH   7  12
BRANCH   2  21
HETATM   21  C   UNL     1       4.340  31.060  57.412  1.00  0.00    -0.028 A 
HETATM   22  C   UNL     1       3.647  31.395  58.587  1.00  0.00     0.011 A 
HETATM   23  C   UNL     1       4.315  31.970  59.672  1.00  0.00     0.024 A 
HETATM   24  C   UNL     1       5.683  32.218  59.592  1.00  0.00     0.034 A 
HETATM   25 CL   UNL     1       6.502  32.937  60.921  1.00  0.00    -0.084 Cl
HETATM   26  C   UNL     1       6.390  31.889  58.439  1.00  0.00     0.024 A 
HETATM   27  C   UNL     1       5.724  31.313  57.354  1.00  0.00     0.011 A 
ENDBRANCH   2  21
BRANCH   1  28
HETATM   28  C   UNL     1       2.198  32.403  55.452  1.00  0.00     0.293 C 
HETATM   29  O   UNL     1       1.056  32.008  55.635  1.00  0.00    -0.259 OA
BRANCH  28  30
HETATM   30  O   UNL     1       2.567  33.704  55.412  1.00  0.00    -0.318 OA
BRANCH  30  31
HETATM   31  C   UNL     1       2.694  34.362  56.682  1.00  0.00     0.174 C 
HETATM   32  C   UNL     1       4.144  34.707  56.968  1.00  0.00     0.034 C 
ENDBRANCH  30  31
ENDBRANCH  28  30
ENDBRANCH   1  28
TORSDOF 7
ENDMDL
MODEL 8
REMARK VINA RESULT:      -7.5      5.197      6.961
REMARK  7 active torsions:
REMARK  status: ('A' for Active; 'I' for Inactive)
REMARK    1  A    between atoms: C_2  and  O_3 
REMARK    2  A    between atoms: O_3  and  C_4 
REMARK    3  A    between atoms: C_4  and  C_5 
REMARK    4  A    between atoms: C_6  and  C_7 
REMARK    5  A    between atoms: C_18  and  S_19 
REMARK    6  A    between atoms: S_19  and  C_20 
REMARK    7  A    between atoms: C_20  and  C_21 
ROOT
HETATM    1  C   UNL     1       2.198  29.051  49.447  1.00  0.00     0.070 C 
HETATM    2  C   UNL     1       3.425  29.419  50.285  1.00  0.00     0.203 C 
HETATM    3  N   UNL     1       4.258  28.241  50.539  1.00  0.00    -0.082 N 
HETATM    4  C   UNL     1       4.156  27.072  49.840  1.00  0.00     0.726 A 
HETATM    5  N   UNL     1       3.215  26.966  48.880  1.00  0.00    -0.192 N 
HETATM    6  N   UNL     1       5.151  28.142  51.538  1.00  0.00    -0.128 NA
HETATM    7  C   UNL     1       5.600  26.895  51.351  1.00  0.00     0.226 A 
HETATM    8  N   UNL     1       5.023  26.210  50.306  1.00  0.00    -0.035 NA
HETATM    9  C   UNL     1       2.172  27.888  48.741  1.00  0.00     0.037 C 
HETATM   10  C   UNL     1       1.088  27.483  47.774  1.00  0.00     0.070 C 
HETATM   11  H   UNL     1       3.086  26.059  48.439  1.00  0.00     0.184 HD
ENDROOT
BRANCH   7  12
HETATM   12  S   UNL     1       6.800  26.223  52.416  1.00  0.00    -0.083 SA
BRANCH  12  13
HETATM   13  C   UNL     1       5.885  24.818  53.106  1.00  0.00     0.123 C 
BRANCH  13  14
HETATM   14  C   UNL     1       6.820  23.843  53.783  1.00  0.00    -0.027 A 
HETATM   15  C   UNL     1       6.974  23.776  55.178  1.00  0.00     0.041 A 
HETATM   16 CL   UNL     1       6.073  24.787  56.252  1.00  0.00    -0.084 Cl
HETATM   17  C   UNL     1       7.880  22.877  55.751  1.00  0.00     0.024 A 
HETATM   18  C   UNL     1       8.649  22.040  54.943  1.00  0.00     0.002 A 
HETATM   19  C   UNL     1       8.514  22.098  53.560  1.00  0.00     0.001 A 
HETATM   20  C   UNL     1       7.609  22.993  52.984  1.00  0.00     0.009 A 
ENDBRANCH  13  14
ENDBRANCH  12  13
ENDBRANCH   7  12
BRANCH   2  21
HETATM   21  C   UNL     1       4.273  30.511  49.627  1.00  0.00    -0.028 A 
HETATM   22  C   UNL     1       4.402  30.546  48.228  1.00  0.00     0.011 A 
HETATM   23  C   UNL     1       5.194  31.515  47.607  1.00  0.00     0.024 A 
HETATM   24  C   UNL     1       5.867  32.460  48.379  1.00  0.00     0.034 A 
HETATM   25 CL   UNL     1       6.853  33.644  47.616  1.00  0.00    -0.084 Cl
HETATM   26  C   UNL     1       5.750  32.447  49.767  1.00  0.00     0.024 A 
HETATM   27  C   UNL     1       4.957  31.479  50.388  1.00  0.00     0.011 A 
ENDBRANCH   2  21
BRANCH   1  28
HETATM   28  C   UNL     1       1.108  30.054  49.574  1.00  0.00     0.293 C 
HETATM   29  O   UNL     1       0.402  30.141  50.569  1.00  0.00    -0.259 OA
BRANCH  28  30
HETATM   30  O   UNL     1       0.925  30.760  48.434  1.00  0.00    -0.318 OA
BRANCH  30  31
HETATM   31  C   UNL     1       0.538  32.133  48.600  1.00  0.00     0.174 C 
HETATM   32  C   UNL     1       1.754  33.042  48.587  1.00  0.00     0.034 C 
ENDBRANCH  30  31
ENDBRANCH  28  30
ENDBRANCH   1  28
TORSDOF 7
ENDMDL
MODEL 9
REMARK VINA RESULT:      -7.4      4.863      7.406
REMARK  7 active torsions:
REMARK  status: ('A' for Active; 'I' for Inactive)
REMARK    1  A    between atoms: C_2  and  O_3 
REMARK    2  A    between atoms: O_3  and  C_4 
REMARK    3  A    between atoms: C_4  and  C_5 
REMARK    4  A    between atoms: C_6  and  C_7 
REMARK    5  A    between atoms: C_18  and  S_19 
REMARK    6  A    between atoms: S_19  and  C_20 
REMARK    7  A    between atoms: C_20  and  C_21 
ROOT
HETATM    1  C   UNL     1       4.817  30.451  50.907  1.00  0.00     0.070 C 
HETATM    2  C   UNL     1       4.924  28.976  50.509  1.00  0.00     0.203 C 
HETATM    3  N   UNL     1       4.801  28.107  51.681  1.00  0.00    -0.082 N 
HETATM    4  C   UNL     1       4.307  28.521  52.886  1.00  0.00     0.726 A 
HETATM    5  N   UNL     1       3.940  29.810  53.032  1.00  0.00    -0.192 N 
HETATM    6  N   UNL     1       5.238  26.838  51.737  1.00  0.00    -0.128 NA
HETATM    7  C   UNL     1       4.922  26.518  52.998  1.00  0.00     0.226 A 
HETATM    8  N   UNL     1       4.334  27.523  53.732  1.00  0.00    -0.035 NA
HETATM    9  C   UNL     1       4.279  30.801  52.107  1.00  0.00     0.037 C 
HETATM   10  C   UNL     1       3.992  32.214  52.549  1.00  0.00     0.070 C 
HETATM   11  H   UNL     1       3.668  30.124  53.961  1.00  0.00     0.184 HD
ENDROOT
BRANCH   7  12
HETATM   12  S   UNL     1       5.297  24.941  53.625  1.00  0.00    -0.083 SA
BRANCH  12  13
HETATM   13  C   UNL     1       7.063  25.135  53.988  1.00  0.00     0.123 C 
BRANCH  13  14
HETATM   14  C   UNL     1       7.271  25.883  55.285  1.00  0.00    -0.027 A 
HETATM   15  C   UNL     1       7.649  27.235  55.334  1.00  0.00     0.041 A 
HETATM   16 CL   UNL     1       7.874  28.180  53.905  1.00  0.00    -0.084 Cl
HETATM   17  C   UNL     1       7.862  27.869  56.563  1.00  0.00     0.024 A 
HETATM   18  C   UNL     1       7.711  27.163  57.756  1.00  0.00     0.002 A 
HETATM   19  C   UNL     1       7.344  25.822  57.724  1.00  0.00     0.001 A 
HETATM   20  C   UNL     1       7.128  25.186  56.500  1.00  0.00     0.009 A 
ENDBRANCH  13  14
ENDBRANCH  12  13
ENDBRANCH   7  12
BRANCH   2  21
HETATM   21  C   UNL     1       3.876  28.577  49.466  1.00  0.00    -0.028 A 
HETATM   22  C   UNL     1       2.511  28.630  49.794  1.00  0.00     0.011 A 
HETATM   23  C   UNL     1       1.538  28.242  48.869  1.00  0.00     0.024 A 
HETATM   24  C   UNL     1       1.920  27.797  47.606  1.00  0.00     0.034 A 
HETATM   25 CL   UNL     1       0.724  27.307  46.472  1.00  0.00    -0.084 Cl
HETATM   26  C   UNL     1       3.267  27.741  47.258  1.00  0.00     0.024 A 
HETATM   27  C   UNL     1       4.241  28.130  48.182  1.00  0.00     0.011 A 
ENDBRANCH   2  21
BRANCH   1  28
HETATM   28  C   UNL     1       5.407  31.354  49.884  1.00  0.00     0.293 C 
HETATM   29  O   UNL     1       6.597  31.344  49.600  1.00  0.00    -0.259 OA
BRANCH  28  30
HETATM   30  O   UNL     1       4.508  32.244  49.406  1.00  0.00    -0.318 OA
BRANCH  30  31
HETATM   31  C   UNL     1       3.713  31.800  48.295  1.00  0.00     0.174 C 
HETATM   32  C   UNL     1       4.531  31.790  47.016  1.00  0.00     0.034 C 
ENDBRANCH  30  31
ENDBRANCH  28  30
ENDBRANCH   1  28
TORSDOF 7
ENDMDL
MODEL 10
REMARK VINA RESULT:      -7.3      3.355      5.044
REMARK  7 active torsions:
REMARK  status: ('A' for Active; 'I' for Inactive)
REMARK    1  A    between atoms: C_2  and  O_3 
REMARK    2  A    between atoms: O_3  and  C_4 
REMARK    3  A    between atoms: C_4  and  C_5 
REMARK    4  A    between atoms: C_6  and  C_7 
REMARK    5  A    between atoms: C_18  and  S_19 
REMARK    6  A    between atoms: S_19  and  C_20 
REMARK    7  A    between atoms: C_20  and  C_21 
ROOT
HETATM    1  C   UNL     1       4.015  34.064  58.096  1.00  0.00     0.070 C 
HETATM    2  C   UNL     1       4.076  32.643  58.661  1.00  0.00     0.203 C 
HETATM    3  N   UNL     1       4.398  31.675  57.610  1.00  0.00    -0.082 N 
HETATM    4  C   UNL     1       4.918  32.017  56.394  1.00  0.00     0.726 A 
HETATM    5  N   UNL     1       5.121  33.321  56.116  1.00  0.00    -0.192 N 
HETATM    6  N   UNL     1       4.138  30.359  57.682  1.00  0.00    -0.128 NA
HETATM    7  C   UNL     1       4.583  29.949  56.488  1.00  0.00     0.226 A 
HETATM    8  N   UNL     1       5.085  30.938  55.673  1.00  0.00    -0.035 NA
HETATM    9  C   UNL     1       4.587  34.351  56.895  1.00  0.00     0.037 C 
HETATM   10  C   UNL     1       4.716  35.732  56.303  1.00  0.00     0.070 C 
HETATM   11  H   UNL     1       5.415  33.565  55.173  1.00  0.00     0.184 HD
ENDROOT
BRANCH   7  12
HETATM   12  S   UNL     1       4.467  28.274  56.034  1.00  0.00    -0.083 SA
BRANCH  12  13
HETATM   13  C   UNL     1       6.097  28.017  55.283  1.00  0.00     0.123 C 
BRANCH  13  14
HETATM   14  C   UNL     1       6.770  26.790  55.854  1.00  0.00    -0.027 A 
HETATM   15  C   UNL     1       7.527  26.817  57.037  1.00  0.00     0.041 A 
HETATM   16 CL   UNL     1       7.726  28.258  57.970  1.00  0.00    -0.084 Cl
HETATM   17  C   UNL     1       8.159  25.658  57.503  1.00  0.00     0.024 A 
HETATM   18  C   UNL     1       8.051  24.463  56.793  1.00  0.00     0.002 A 
HETATM   19  C   UNL     1       7.311  24.421  55.616  1.00  0.00     0.001 A 
HETATM   20  C   UNL     1       6.678  25.575  55.149  1.00  0.00     0.009 A 
ENDBRANCH  13  14
ENDBRANCH  12  13
ENDBRANCH   7  12
BRANCH   2  21
HETATM   21  C   UNL     1       5.089  32.512  59.802  1.00  0.00    -0.028 A 
HETATM   22  C   UNL     1       6.455  32.364  59.507  1.00  0.00     0.011 A 
HETATM   23  C   UNL     1       7.395  32.213  60.530  1.00  0.00     0.024 A 
HETATM   24  C   UNL     1       6.979  32.208  61.859  1.00  0.00     0.034 A 
HETATM   25 CL   UNL     1       8.134  32.009  63.118  1.00  0.00    -0.084 Cl
HETATM   26  C   UNL     1       5.631  32.359  62.174  1.00  0.00     0.024 A 
HETATM   27  C   UNL     1       4.691  32.511  61.152  1.00  0.00     0.011 A 
ENDBRANCH   2  21
BRANCH   1  28
HETATM   28  C   UNL     1       3.238  34.984  58.969  1.00  0.00     0.293 C 
HETATM   29  O   UNL     1       3.730  35.975  59.489  1.00  0.00    -0.259 OA
BRANCH  28  30
HETATM   30  O   UNL     1       1.985  34.531  59.203  1.00  0.00    -0.318 OA
BRANCH  30  31
HETATM   31  C   UNL     1       1.248  35.222  60.225  1.00  0.00     0.174 C 
HETATM   32  C   UNL     1       1.489  34.590  61.584  1.00  0.00     0.034 C 
ENDBRANCH  30  31
ENDBRANCH  28  30
ENDBRANCH   1  28
TORSDOF 7
ENDMDL
