MODEL 1
REMARK VINA RESULT:      -9.1      0.000      0.000
REMARK  7 active torsions:
REMARK  status: ('A' for Active; 'I' for Inactive)
REMARK    1  A    between atoms: C_2  and  N_3 
REMARK    2  A    between atoms: C_2  and  C_19 
REMARK       I    between atoms: N_3  and  C_4 
REMARK       I    between atoms: C_4  and  N_5 
REMARK    3  A    between atoms: N_5  and  C_6 
REMARK    4  A    between atoms: N_8  and  C_9 
REMARK    5  A    between atoms: C_9  and  C_10 
REMARK    6  A    between atoms: C_19  and  C_20 
REMARK    7  A    between atoms: C_23  and  O_24 
ROOT
HETATM    1  N   UNL     1       6.600  26.767  56.313  1.00  0.00    -0.338 N 
HETATM    2  C   UNL     1       5.490  27.445  55.923  1.00  0.00     0.322 C 
HETATM    3  N   UNL     1       4.936  27.082  54.732  1.00  0.00    -0.292 N 
HETATM    4  O   UNL     1       4.976  28.349  56.580  1.00  0.00    -0.247 OA
HETATM    5  H   UNL     1       6.919  26.056  55.658  1.00  0.00     0.164 HD
HETATM    6  H   UNL     1       4.126  27.627  54.479  1.00  0.00     0.172 HD
ENDROOT
BRANCH   1   7
HETATM    7  C   UNL     1       7.434  27.141  57.444  1.00  0.00     0.086 C 
HETATM    8  C   UNL     1       7.888  25.876  58.171  1.00  0.00     0.032 C 
BRANCH   7   9
HETATM    9  C   UNL     1       8.655  27.962  56.981  1.00  0.00     0.063 C 
BRANCH   9  10
HETATM   10  C   UNL     1       8.823  29.268  57.725  1.00  0.00    -0.056 A 
HETATM   11  C   UNL     1       9.989  30.031  57.566  1.00  0.00     0.010 A 
HETATM   12  C   UNL     1      10.153  31.230  58.263  1.00  0.00     0.037 A 
HETATM   13  C   UNL     1       9.150  31.665  59.123  1.00  0.00     0.065 A 
HETATM   14  C   UNL     1       7.991  30.920  59.299  1.00  0.00     0.037 A 
HETATM   15  C   UNL     1       7.829  29.721  58.604  1.00  0.00     0.010 A 
BRANCH  13  16
HETATM   16  O   UNL     1       9.271  32.828  59.825  1.00  0.00    -0.361 OA
HETATM   17  H   UNL     1       8.900  33.547  59.288  1.00  0.00     0.217 HD
ENDBRANCH  13  16
ENDBRANCH   9  10
ENDBRANCH   7   9
ENDBRANCH   1   7
BRANCH   3  18
HETATM   18  C   UNL     1       5.370  26.132  53.834  1.00  0.00     0.153 A 
HETATM   19  N   UNL     1       6.631  25.695  53.734  1.00  0.00    -0.154 NA
HETATM   20  N   UNL     1       6.594  24.792  52.730  1.00  0.00    -0.275 N 
HETATM   21  C   UNL     1       5.345  24.628  52.201  1.00  0.00     0.116 A 
HETATM   22  C   UNL     1       4.529  25.489  52.896  1.00  0.00     0.071 A 
BRANCH  20  23
HETATM   23  C   UNL     1       7.795  24.055  52.361  1.00  0.00     0.189 C 
BRANCH  23  24
HETATM   24  C   UNL     1       8.042  22.889  53.284  1.00  0.00    -0.038 A 
HETATM   25  C   UNL     1       7.865  21.573  52.827  1.00  0.00     0.009 A 
HETATM   26  C   UNL     1       8.087  20.491  53.680  1.00  0.00     0.001 A 
HETATM   27  C   UNL     1       8.492  20.711  54.995  1.00  0.00     0.000 A 
HETATM   28  C   UNL     1       8.672  22.012  55.460  1.00  0.00     0.001 A 
HETATM   29  C   UNL     1       8.446  23.096  54.611  1.00  0.00     0.009 A 
ENDBRANCH  23  24
ENDBRANCH  20  23
ENDBRANCH   3  18
TORSDOF 7
ENDMDL
MODEL 2
REMARK VINA RESULT:      -9.0      2.694      8.915
REMARK  7 active torsions:
REMARK  status: ('A' for Active; 'I' for Inactive)
REMARK    1  A    between atoms: C_2  and  N_3 
REMARK    2  A    between atoms: C_2  and  C_19 
REMARK       I    between atoms: N_3  and  C_4 
REMARK       I    between atoms: C_4  and  N_5 
REMARK    3  A    between atoms: N_5  and  C_6 
REMARK    4  A    between atoms: N_8  and  C_9 
REMARK    5  A    between atoms: C_9  and  C_10 
REMARK    6  A    between atoms: C_19  and  C_20 
REMARK    7  A    between atoms: C_23  and  O_24 
ROOT
HETATM    1  N   UNL     1       6.808  26.119  55.498  1.00  0.00    -0.338 N 
HETATM    2  C   UNL     1       6.861  25.597  56.751  1.00  0.00     0.322 C 
HETATM    3  N   UNL     1       7.318  26.417  57.738  1.00  0.00    -0.292 N 
HETATM    4  O   UNL     1       6.523  24.446  57.025  1.00  0.00    -0.247 OA
HETATM    5  H   UNL     1       7.135  27.080  55.421  1.00  0.00     0.164 HD
HETATM    6  H   UNL     1       7.356  25.977  58.645  1.00  0.00     0.172 HD
ENDROOT
BRANCH   1   7
HETATM    7  C   UNL     1       6.537  25.345  54.297  1.00  0.00     0.086 C 
HETATM    8  C   UNL     1       5.731  26.200  53.321  1.00  0.00     0.032 C 
BRANCH   7   9
HETATM    9  C   UNL     1       7.849  24.870  53.640  1.00  0.00     0.063 C 
BRANCH   9  10
HETATM   10  C   UNL     1       8.147  23.406  53.873  1.00  0.00    -0.056 A 
HETATM   11  C   UNL     1       8.866  23.000  55.008  1.00  0.00     0.010 A 
HETATM   12  C   UNL     1       9.155  21.650  55.219  1.00  0.00     0.037 A 
HETATM   13  C   UNL     1       8.729  20.705  54.292  1.00  0.00     0.065 A 
HETATM   14  C   UNL     1       8.022  21.088  53.159  1.00  0.00     0.037 A 
HETATM   15  C   UNL     1       7.734  22.437  52.948  1.00  0.00     0.010 A 
BRANCH  13  16
HETATM   16  O   UNL     1       8.992  19.378  54.458  1.00  0.00    -0.361 OA
HETATM   17  H   UNL     1       9.828  19.175  54.007  1.00  0.00     0.217 HD
ENDBRANCH  13  16
ENDBRANCH   9  10
ENDBRANCH   7   9
ENDBRANCH   1   7
BRANCH   3  18
HETATM   18  C   UNL     1       7.776  27.711  57.640  1.00  0.00     0.153 A 
HETATM   19  N   UNL     1       7.143  28.786  58.127  1.00  0.00    -0.154 NA
HETATM   20  N   UNL     1       7.939  29.824  57.793  1.00  0.00    -0.275 N 
HETATM   21  C   UNL     1       9.068  29.442  57.126  1.00  0.00     0.116 A 
HETATM   22  C   UNL     1       8.988  28.075  57.008  1.00  0.00     0.071 A 
BRANCH  20  23
HETATM   23  C   UNL     1       7.593  31.177  58.209  1.00  0.00     0.189 C 
BRANCH  23  24
HETATM   24  C   UNL     1       7.937  31.423  59.655  1.00  0.00    -0.038 A 
HETATM   25  C   UNL     1       7.092  32.201  60.463  1.00  0.00     0.009 A 
HETATM   26  C   UNL     1       7.410  32.436  61.801  1.00  0.00     0.001 A 
HETATM   27  C   UNL     1       8.570  31.893  62.348  1.00  0.00     0.000 A 
HETATM   28  C   UNL     1       9.416  31.117  61.557  1.00  0.00     0.001 A 
HETATM   29  C   UNL     1       9.104  30.885  60.217  1.00  0.00     0.009 A 
ENDBRANCH  23  24
ENDBRANCH  20  23
ENDBRANCH   3  18
TORSDOF 7
ENDMDL
MODEL 3
REMARK VINA RESULT:      -9.0      3.489      7.293
REMARK  7 active torsions:
REMARK  status: ('A' for Active; 'I' for Inactive)
REMARK    1  A    between atoms: C_2  and  N_3 
REMARK    2  A    between atoms: C_2  and  C_19 
REMARK       I    between atoms: N_3  and  C_4 
REMARK       I    between atoms: C_4  and  N_5 
REMARK    3  A    between atoms: N_5  and  C_6 
REMARK    4  A    between atoms: N_8  and  C_9 
REMARK    5  A    between atoms: C_9  and  C_10 
REMARK    6  A    between atoms: C_19  and  C_20 
REMARK    7  A    between atoms: C_23  and  O_24 
ROOT
HETATM    1  N   UNL     1       5.891  26.054  52.634  1.00  0.00    -0.338 N 
HETATM    2  C   UNL     1       5.062  26.387  51.611  1.00  0.00     0.322 C 
HETATM    3  N   UNL     1       4.256  27.469  51.802  1.00  0.00    -0.292 N 
HETATM    4  O   UNL     1       5.009  25.771  50.548  1.00  0.00    -0.247 OA
HETATM    5  H   UNL     1       5.813  26.648  53.458  1.00  0.00     0.164 HD
HETATM    6  H   UNL     1       3.647  27.664  51.021  1.00  0.00     0.172 HD
ENDROOT
BRANCH   1   7
HETATM    7  C   UNL     1       6.673  24.830  52.691  1.00  0.00     0.086 C 
HETATM    8  C   UNL     1       8.080  25.108  52.166  1.00  0.00     0.032 C 
BRANCH   7   9
HETATM    9  C   UNL     1       6.735  24.282  54.132  1.00  0.00     0.063 C 
BRANCH   9  10
HETATM   10  C   UNL     1       7.385  22.921  54.234  1.00  0.00    -0.056 A 
HETATM   11  C   UNL     1       7.643  22.169  53.078  1.00  0.00     0.010 A 
HETATM   12  C   UNL     1       8.230  20.905  53.171  1.00  0.00     0.037 A 
HETATM   13  C   UNL     1       8.556  20.391  54.422  1.00  0.00     0.065 A 
HETATM   14  C   UNL     1       8.301  21.117  55.578  1.00  0.00     0.037 A 
HETATM   15  C   UNL     1       7.713  22.379  55.485  1.00  0.00     0.010 A 
BRANCH  13  16
HETATM   16  O   UNL     1       9.127  19.160  54.557  1.00  0.00    -0.361 OA
HETATM   17  H   UNL     1       8.424  18.492  54.522  1.00  0.00     0.217 HD
ENDBRANCH  13  16
ENDBRANCH   9  10
ENDBRANCH   7   9
ENDBRANCH   1   7
BRANCH   3  18
HETATM   18  C   UNL     1       4.134  28.267  52.917  1.00  0.00     0.153 A 
HETATM   19  N   UNL     1       4.385  27.870  54.172  1.00  0.00    -0.154 NA
HETATM   20  N   UNL     1       4.125  28.960  54.926  1.00  0.00    -0.275 N 
HETATM   21  C   UNL     1       3.735  30.042  54.189  1.00  0.00     0.116 A 
HETATM   22  C   UNL     1       3.728  29.621  52.880  1.00  0.00     0.071 A 
BRANCH  20  23
HETATM   23  C   UNL     1       4.337  28.923  56.367  1.00  0.00     0.189 C 
BRANCH  23  24
HETATM   24  C   UNL     1       5.349  27.875  56.756  1.00  0.00    -0.038 A 
HETATM   25  C   UNL     1       4.959  26.534  56.907  1.00  0.00     0.009 A 
HETATM   26  C   UNL     1       5.891  25.563  57.273  1.00  0.00     0.001 A 
HETATM   27  C   UNL     1       7.222  25.917  57.485  1.00  0.00     0.000 A 
HETATM   28  C   UNL     1       7.621  27.244  57.335  1.00  0.00     0.001 A 
HETATM   29  C   UNL     1       6.691  28.219  56.975  1.00  0.00     0.009 A 
ENDBRANCH  23  24
ENDBRANCH  20  23
ENDBRANCH   3  18
TORSDOF 7
ENDMDL
MODEL 4
REMARK VINA RESULT:      -8.9      3.861      6.233
REMARK  7 active torsions:
REMARK  status: ('A' for Active; 'I' for Inactive)
REMARK    1  A    between atoms: C_2  and  N_3 
REMARK    2  A    between atoms: C_2  and  C_19 
REMARK       I    between atoms: N_3  and  C_4 
REMARK       I    between atoms: C_4  and  N_5 
REMARK    3  A    between atoms: N_5  and  C_6 
REMARK    4  A    between atoms: N_8  and  C_9 
REMARK    5  A    between atoms: C_9  and  C_10 
REMARK    6  A    between atoms: C_19  and  C_20 
REMARK    7  A    between atoms: C_23  and  O_24 
ROOT
HETATM    1  N   UNL     1       7.813  31.576  59.583  1.00  0.00    -0.338 N 
HETATM    2  C   UNL     1       9.159  31.581  59.407  1.00  0.00     0.322 C 
HETATM    3  N   UNL     1       9.666  30.674  58.524  1.00  0.00    -0.292 N 
HETATM    4  O   UNL     1       9.921  32.346  59.995  1.00  0.00    -0.247 OA
HETATM    5  H   UNL     1       7.313  30.875  59.040  1.00  0.00     0.164 HD
HETATM    6  H   UNL     1      10.671  30.705  58.444  1.00  0.00     0.172 HD
ENDROOT
BRANCH   1   7
HETATM    7  C   UNL     1       7.118  32.327  60.616  1.00  0.00     0.086 C 
HETATM    8  C   UNL     1       5.724  32.698  60.114  1.00  0.00     0.032 C 
BRANCH   7   9
HETATM    9  C   UNL     1       7.020  31.510  61.920  1.00  0.00     0.063 C 
BRANCH   9  10
HETATM   10  C   UNL     1       6.740  32.354  63.143  1.00  0.00    -0.056 A 
HETATM   11  C   UNL     1       5.423  32.542  63.590  1.00  0.00     0.010 A 
HETATM   12  C   UNL     1       5.160  33.332  64.711  1.00  0.00     0.037 A 
HETATM   13  C   UNL     1       6.215  33.939  65.384  1.00  0.00     0.065 A 
HETATM   14  C   UNL     1       7.525  33.770  64.953  1.00  0.00     0.037 A 
HETATM   15  C   UNL     1       7.787  32.982  63.832  1.00  0.00     0.010 A 
BRANCH  13  16
HETATM   16  O   UNL     1       6.002  34.720  66.481  1.00  0.00    -0.361 OA
HETATM   17  H   UNL     1       5.056  34.687  66.699  1.00  0.00     0.217 HD
ENDBRANCH  13  16
ENDBRANCH   9  10
ENDBRANCH   7   9
ENDBRANCH   1   7
BRANCH   3  18
HETATM   18  C   UNL     1       8.999  29.713  57.798  1.00  0.00     0.153 A 
HETATM   19  N   UNL     1       8.145  28.820  58.315  1.00  0.00    -0.154 NA
HETATM   20  N   UNL     1       7.748  28.084  57.255  1.00  0.00    -0.275 N 
HETATM   21  C   UNL     1       8.308  28.492  56.078  1.00  0.00     0.116 A 
HETATM   22  C   UNL     1       9.128  29.547  56.400  1.00  0.00     0.071 A 
BRANCH  20  23
HETATM   23  C   UNL     1       6.761  27.026  57.425  1.00  0.00     0.189 C 
BRANCH  23  24
HETATM   24  C   UNL     1       7.245  25.714  56.862  1.00  0.00    -0.038 A 
HETATM   25  C   UNL     1       8.349  25.061  57.433  1.00  0.00     0.009 A 
HETATM   26  C   UNL     1       8.803  23.849  56.911  1.00  0.00     0.001 A 
HETATM   27  C   UNL     1       8.157  23.274  55.820  1.00  0.00     0.000 A 
HETATM   28  C   UNL     1       7.059  23.911  55.245  1.00  0.00     0.001 A 
HETATM   29  C   UNL     1       6.605  25.125  55.761  1.00  0.00     0.009 A 
ENDBRANCH  23  24
ENDBRANCH  20  23
ENDBRANCH   3  18
TORSDOF 7
ENDMDL
MODEL 5
REMARK VINA RESULT:      -8.8      3.691      5.693
REMARK  7 active torsions:
REMARK  status: ('A' for Active; 'I' for Inactive)
REMARK    1  A    between atoms: C_2  and  N_3 
REMARK    2  A    between atoms: C_2  and  C_19 
REMARK       I    between atoms: N_3  and  C_4 
REMARK       I    between atoms: C_4  and  N_5 
REMARK    3  A    between atoms: N_5  and  C_6 
REMARK    4  A    between atoms: N_8  and  C_9 
REMARK    5  A    between atoms: C_9  and  C_10 
REMARK    6  A    between atoms: C_19  and  C_20 
REMARK    7  A    between atoms: C_23  and  O_24 
ROOT
HETATM    1  N   UNL     1       7.928  30.539  60.118  1.00  0.00    -0.338 N 
HETATM    2  C   UNL     1       8.519  31.038  59.002  1.00  0.00     0.322 C 
HETATM    3  N   UNL     1       8.277  30.380  57.833  1.00  0.00    -0.292 N 
HETATM    4  O   UNL     1       9.244  32.032  58.999  1.00  0.00    -0.247 OA
HETATM    5  H   UNL     1       7.368  29.702  59.968  1.00  0.00     0.164 HD
HETATM    6  H   UNL     1       8.753  30.778  57.038  1.00  0.00     0.172 HD
ENDROOT
BRANCH   1   7
HETATM    7  C   UNL     1       8.222  30.984  61.470  1.00  0.00     0.086 C 
HETATM    8  C   UNL     1       9.671  30.637  61.809  1.00  0.00     0.032 C 
BRANCH   7   9
HETATM    9  C   UNL     1       7.986  32.502  61.614  1.00  0.00     0.063 C 
BRANCH   9  10
HETATM   10  C   UNL     1       7.163  32.874  62.828  1.00  0.00    -0.056 A 
HETATM   11  C   UNL     1       7.787  33.124  64.059  1.00  0.00     0.010 A 
HETATM   12  C   UNL     1       7.029  33.453  65.185  1.00  0.00     0.037 A 
HETATM   13  C   UNL     1       5.644  33.529  65.079  1.00  0.00     0.065 A 
HETATM   14  C   UNL     1       5.008  33.278  63.870  1.00  0.00     0.037 A 
HETATM   15  C   UNL     1       5.766  32.947  62.747  1.00  0.00     0.010 A 
BRANCH  13  16
HETATM   16  O   UNL     1       4.867  33.845  66.154  1.00  0.00    -0.361 OA
HETATM   17  H   UNL     1       4.245  34.542  65.886  1.00  0.00     0.217 HD
ENDBRANCH  13  16
ENDBRANCH   9  10
ENDBRANCH   7   9
ENDBRANCH   1   7
BRANCH   3  18
HETATM   18  C   UNL     1       7.534  29.239  57.625  1.00  0.00     0.153 A 
HETATM   19  N   UNL     1       7.973  27.992  57.835  1.00  0.00    -0.154 NA
HETATM   20  N   UNL     1       6.928  27.207  57.492  1.00  0.00    -0.275 N 
HETATM   21  C   UNL     1       5.833  27.917  57.088  1.00  0.00     0.116 A 
HETATM   22  C   UNL     1       6.198  29.240  57.160  1.00  0.00     0.071 A 
BRANCH  20  23
HETATM   23  C   UNL     1       7.018  25.760  57.640  1.00  0.00     0.189 C 
BRANCH  23  24
HETATM   24  C   UNL     1       7.144  25.069  56.307  1.00  0.00    -0.038 A 
HETATM   25  C   UNL     1       6.110  25.155  55.362  1.00  0.00     0.009 A 
HETATM   26  C   UNL     1       6.220  24.512  54.129  1.00  0.00     0.001 A 
HETATM   27  C   UNL     1       7.366  23.780  53.824  1.00  0.00     0.000 A 
HETATM   28  C   UNL     1       8.401  23.688  54.753  1.00  0.00     0.001 A 
HETATM   29  C   UNL     1       8.291  24.326  55.989  1.00  0.00     0.009 A 
ENDBRANCH  23  24
ENDBRANCH  20  23
ENDBRANCH   3  18
TORSDOF 7
ENDMDL
MODEL 6
REMARK VINA RESULT:      -8.7      2.672      7.832
REMARK  7 active torsions:
REMARK  status: ('A' for Active; 'I' for Inactive)
REMARK    1  A    between atoms: C_2  and  N_3 
REMARK    2  A    between atoms: C_2  and  C_19 
REMARK       I    between atoms: N_3  and  C_4 
REMARK       I    between atoms: C_4  and  N_5 
REMARK    3  A    between atoms: N_5  and  C_6 
REMARK    4  A    between atoms: N_8  and  C_9 
REMARK    5  A    between atoms: C_9  and  C_10 
REMARK    6  A    between atoms: C_19  and  C_20 
REMARK    7  A    between atoms: C_23  and  O_24 
ROOT
HETATM    1  N   UNL     1       6.295  26.472  54.069  1.00  0.00    -0.338 N 
HETATM    2  C   UNL     1       4.999  26.735  53.757  1.00  0.00     0.322 C 
HETATM    3  N   UNL     1       4.436  27.827  54.346  1.00  0.00    -0.292 N 
HETATM    4  O   UNL     1       4.330  26.047  52.988  1.00  0.00    -0.247 OA
HETATM    5  H   UNL     1       6.715  27.119  54.732  1.00  0.00     0.164 HD
HETATM    6  H   UNL     1       3.469  27.969  54.097  1.00  0.00     0.172 HD
ENDROOT
BRANCH   1   7
HETATM    7  C   UNL     1       6.997  25.254  53.697  1.00  0.00     0.086 C 
HETATM    8  C   UNL     1       7.929  25.550  52.524  1.00  0.00     0.032 C 
BRANCH   7   9
HETATM    9  C   UNL     1       7.796  24.693  54.891  1.00  0.00     0.063 C 
BRANCH   9  10
HETATM   10  C   UNL     1       8.155  23.231  54.745  1.00  0.00    -0.056 A 
HETATM   11  C   UNL     1       7.848  22.539  53.564  1.00  0.00     0.010 A 
HETATM   12  C   UNL     1       8.166  21.185  53.432  1.00  0.00     0.037 A 
HETATM   13  C   UNL     1       8.787  20.521  54.485  1.00  0.00     0.065 A 
HETATM   14  C   UNL     1       9.092  21.188  55.665  1.00  0.00     0.037 A 
HETATM   15  C   UNL     1       8.773  22.540  55.797  1.00  0.00     0.010 A 
BRANCH  13  16
HETATM   16  O   UNL     1       9.111  19.200  54.399  1.00  0.00    -0.361 OA
HETATM   17  H   UNL     1       8.910  18.781  55.251  1.00  0.00     0.217 HD
ENDBRANCH  13  16
ENDBRANCH   9  10
ENDBRANCH   7   9
ENDBRANCH   1   7
BRANCH   3  18
HETATM   18  C   UNL     1       4.993  28.699  55.255  1.00  0.00     0.153 A 
HETATM   19  N   UNL     1       5.674  28.331  56.348  1.00  0.00    -0.154 NA
HETATM   20  N   UNL     1       6.016  29.498  56.937  1.00  0.00    -0.275 N 
HETATM   21  C   UNL     1       5.590  30.595  56.243  1.00  0.00     0.116 A 
HETATM   22  C   UNL     1       4.919  30.107  55.147  1.00  0.00     0.071 A 
BRANCH  20  23
HETATM   23  C   UNL     1       6.824  29.497  58.149  1.00  0.00     0.189 C 
BRANCH  23  24
HETATM   24  C   UNL     1       8.267  29.822  57.860  1.00  0.00    -0.038 A 
HETATM   25  C   UNL     1       9.003  29.040  56.955  1.00  0.00     0.009 A 
HETATM   26  C   UNL     1      10.340  29.333  56.688  1.00  0.00     0.001 A 
HETATM   27  C   UNL     1      10.956  30.413  57.317  1.00  0.00     0.000 A 
HETATM   28  C   UNL     1      10.237  31.198  58.216  1.00  0.00     0.001 A 
HETATM   29  C   UNL     1       8.900  30.904  58.489  1.00  0.00     0.009 A 
ENDBRANCH  23  24
ENDBRANCH  20  23
ENDBRANCH   3  18
TORSDOF 7
ENDMDL
MODEL 7
REMARK VINA RESULT:      -8.7      3.971      7.763
REMARK  7 active torsions:
REMARK  status: ('A' for Active; 'I' for Inactive)
REMARK    1  A    between atoms: C_2  and  N_3 
REMARK    2  A    between atoms: C_2  and  C_19 
REMARK       I    between atoms: N_3  and  C_4 
REMARK       I    between atoms: C_4  and  N_5 
REMARK    3  A    between atoms: N_5  and  C_6 
REMARK    4  A    between atoms: N_8  and  C_9 
REMARK    5  A    between atoms: C_9  and  C_10 
REMARK    6  A    between atoms: C_19  and  C_20 
REMARK    7  A    between atoms: C_23  and  O_24 
ROOT
HETATM    1  N   UNL     1       6.514  26.629  53.952  1.00  0.00    -0.338 N 
HETATM    2  C   UNL     1       6.700  27.877  54.454  1.00  0.00     0.322 C 
HETATM    3  N   UNL     1       6.147  28.909  53.756  1.00  0.00    -0.292 N 
HETATM    4  O   UNL     1       7.330  28.111  55.484  1.00  0.00    -0.247 OA
HETATM    5  H   UNL     1       5.984  26.592  53.083  1.00  0.00     0.164 HD
HETATM    6  H   UNL     1       6.329  29.815  54.159  1.00  0.00     0.172 HD
ENDROOT
BRANCH   1   7
HETATM    7  C   UNL     1       7.186  25.438  54.445  1.00  0.00     0.086 C 
HETATM    8  C   UNL     1       6.186  24.582  55.219  1.00  0.00     0.032 C 
BRANCH   7   9
HETATM    9  C   UNL     1       7.799  24.631  53.283  1.00  0.00     0.063 C 
BRANCH   9  10
HETATM   10  C   UNL     1       8.146  23.206  53.652  1.00  0.00    -0.056 A 
HETATM   11  C   UNL     1       7.715  22.139  52.849  1.00  0.00     0.010 A 
HETATM   12  C   UNL     1       8.022  20.821  53.195  1.00  0.00     0.037 A 
HETATM   13  C   UNL     1       8.756  20.570  54.349  1.00  0.00     0.065 A 
HETATM   14  C   UNL     1       9.185  21.612  55.161  1.00  0.00     0.037 A 
HETATM   15  C   UNL     1       8.877  22.928  54.815  1.00  0.00     0.010 A 
BRANCH  13  16
HETATM   16  O   UNL     1       9.074  19.298  54.725  1.00  0.00    -0.361 OA
HETATM   17  H   UNL     1       9.891  19.331  55.251  1.00  0.00     0.217 HD
ENDBRANCH  13  16
ENDBRANCH   9  10
ENDBRANCH   7   9
ENDBRANCH   1   7
BRANCH   3  18
HETATM   18  C   UNL     1       5.443  28.868  52.573  1.00  0.00     0.153 A 
HETATM   19  N   UNL     1       5.998  28.828  51.355  1.00  0.00    -0.154 NA
HETATM   20  N   UNL     1       4.945  28.811  50.509  1.00  0.00    -0.275 N 
HETATM   21  C   UNL     1       3.739  28.819  51.151  1.00  0.00     0.116 A 
HETATM   22  C   UNL     1       4.031  28.861  52.494  1.00  0.00     0.071 A 
BRANCH  20  23
HETATM   23  C   UNL     1       5.161  28.716  49.071  1.00  0.00     0.189 C 
BRANCH  23  24
HETATM   24  C   UNL     1       4.185  27.769  48.420  1.00  0.00    -0.038 A 
HETATM   25  C   UNL     1       3.131  28.264  47.636  1.00  0.00     0.009 A 
HETATM   26  C   UNL     1       2.223  27.391  47.037  1.00  0.00     0.001 A 
HETATM   27  C   UNL     1       2.360  26.016  47.209  1.00  0.00     0.000 A 
HETATM   28  C   UNL     1       3.403  25.511  47.983  1.00  0.00     0.001 A 
HETATM   29  C   UNL     1       4.310  26.382  48.588  1.00  0.00     0.009 A 
ENDBRANCH  23  24
ENDBRANCH  20  23
ENDBRANCH   3  18
TORSDOF 7
ENDMDL
MODEL 8
REMARK VINA RESULT:      -8.5      3.339      7.907
REMARK  7 active torsions:
REMARK  status: ('A' for Active; 'I' for Inactive)
REMARK    1  A    between atoms: C_2  and  N_3 
REMARK    2  A    between atoms: C_2  and  C_19 
REMARK       I    between atoms: N_3  and  C_4 
REMARK       I    between atoms: C_4  and  N_5 
REMARK    3  A    between atoms: N_5  and  C_6 
REMARK    4  A    between atoms: N_8  and  C_9 
REMARK    5  A    between atoms: C_9  and  C_10 
REMARK    6  A    between atoms: C_19  and  C_20 
REMARK    7  A    between atoms: C_23  and  O_24 
ROOT
HETATM    1  N   UNL     1       5.079  25.930  54.711  1.00  0.00    -0.338 N 
HETATM    2  C   UNL     1       5.006  25.984  56.067  1.00  0.00     0.322 C 
HETATM    3  N   UNL     1       4.767  27.207  56.620  1.00  0.00    -0.292 N 
HETATM    4  O   UNL     1       5.143  25.005  56.797  1.00  0.00    -0.247 OA
HETATM    5  H   UNL     1       4.960  26.825  54.240  1.00  0.00     0.164 HD
HETATM    6  H   UNL     1       4.741  27.198  57.628  1.00  0.00     0.172 HD
ENDROOT
BRANCH   1   7
HETATM    7  C   UNL     1       5.516  24.764  53.960  1.00  0.00     0.086 C 
HETATM    8  C   UNL     1       5.019  24.881  52.520  1.00  0.00     0.032 C 
BRANCH   7   9
HETATM    9  C   UNL     1       7.052  24.634  53.989  1.00  0.00     0.063 C 
BRANCH   9  10
HETATM   10  C   UNL     1       7.536  23.211  54.150  1.00  0.00    -0.056 A 
HETATM   11  C   UNL     1       7.595  22.620  55.422  1.00  0.00     0.010 A 
HETATM   12  C   UNL     1       8.054  21.310  55.575  1.00  0.00     0.037 A 
HETATM   13  C   UNL     1       8.460  20.591  54.456  1.00  0.00     0.065 A 
HETATM   14  C   UNL     1       8.415  21.161  53.189  1.00  0.00     0.037 A 
HETATM   15  C   UNL     1       7.958  22.470  53.037  1.00  0.00     0.010 A 
BRANCH  13  16
HETATM   16  O   UNL     1       8.918  19.311  54.561  1.00  0.00    -0.361 OA
HETATM   17  H   UNL     1       9.783  19.333  55.001  1.00  0.00     0.217 HD
ENDBRANCH  13  16
ENDBRANCH   9  10
ENDBRANCH   7   9
ENDBRANCH   1   7
BRANCH   3  18
HETATM   18  C   UNL     1       4.621  28.423  55.991  1.00  0.00     0.153 A 
HETATM   19  N   UNL     1       3.955  28.616  54.845  1.00  0.00    -0.154 NA
HETATM   20  N   UNL     1       4.082  29.939  54.603  1.00  0.00    -0.275 N 
HETATM   21  C   UNL     1       4.793  30.596  55.567  1.00  0.00     0.116 A 
HETATM   22  C   UNL     1       5.160  29.636  56.480  1.00  0.00     0.071 A 
BRANCH  20  23
HETATM   23  C   UNL     1       3.431  30.538  53.445  1.00  0.00     0.189 C 
BRANCH  23  24
HETATM   24  C   UNL     1       3.747  29.788  52.176  1.00  0.00    -0.038 A 
HETATM   25  C   UNL     1       5.080  29.547  51.808  1.00  0.00     0.009 A 
HETATM   26  C   UNL     1       5.376  28.858  50.631  1.00  0.00     0.001 A 
HETATM   27  C   UNL     1       4.346  28.399  49.813  1.00  0.00     0.000 A 
HETATM   28  C   UNL     1       3.019  28.631  50.168  1.00  0.00     0.001 A 
HETATM   29  C   UNL     1       2.719  29.324  51.342  1.00  0.00     0.009 A 
ENDBRANCH  23  24
ENDBRANCH  20  23
ENDBRANCH   3  18
TORSDOF 7
ENDMDL
MODEL 9
REMARK VINA RESULT:      -8.4      3.513      7.465
REMARK  7 active torsions:
REMARK  status: ('A' for Active; 'I' for Inactive)
REMARK    1  A    between atoms: C_2  and  N_3 
REMARK    2  A    between atoms: C_2  and  C_19 
REMARK       I    between atoms: N_3  and  C_4 
REMARK       I    between atoms: C_4  and  N_5 
REMARK    3  A    between atoms: N_5  and  C_6 
REMARK    4  A    between atoms: N_8  and  C_9 
REMARK    5  A    between atoms: C_9  and  C_10 
REMARK    6  A    between atoms: C_19  and  C_20 
REMARK    7  A    between atoms: C_23  and  O_24 
ROOT
HETATM    1  N   UNL     1       6.383  26.320  54.989  1.00  0.00    -0.338 N 
HETATM    2  C   UNL     1       5.252  26.692  55.643  1.00  0.00     0.322 C 
HETATM    3  N   UNL     1       4.422  27.554  54.990  1.00  0.00    -0.292 N 
HETATM    4  O   UNL     1       4.953  26.297  56.768  1.00  0.00    -0.247 OA
HETATM    5  H   UNL     1       6.504  26.740  54.070  1.00  0.00     0.164 HD
HETATM    6  H   UNL     1       3.607  27.814  55.524  1.00  0.00     0.172 HD
ENDROOT
BRANCH   1   7
HETATM    7  C   UNL     1       7.472  25.572  55.596  1.00  0.00     0.086 C 
HETATM    8  C   UNL     1       8.055  26.383  56.752  1.00  0.00     0.032 C 
BRANCH   7   9
HETATM    9  C   UNL     1       6.984  24.197  56.097  1.00  0.00     0.063 C 
BRANCH   9  10
HETATM   10  C   UNL     1       7.337  23.055  55.170  1.00  0.00    -0.056 A 
HETATM   11  C   UNL     1       7.601  21.777  55.687  1.00  0.00     0.010 A 
HETATM   12  C   UNL     1       7.942  20.724  54.835  1.00  0.00     0.037 A 
HETATM   13  C   UNL     1       8.023  20.951  53.465  1.00  0.00     0.065 A 
HETATM   14  C   UNL     1       7.772  22.210  52.936  1.00  0.00     0.037 A 
HETATM   15  C   UNL     1       7.434  23.262  53.787  1.00  0.00     0.010 A 
BRANCH  13  16
HETATM   16  O   UNL     1       8.355  19.951  52.599  1.00  0.00    -0.361 OA
HETATM   17  H   UNL     1       9.317  19.969  52.468  1.00  0.00     0.217 HD
ENDBRANCH  13  16
ENDBRANCH   9  10
ENDBRANCH   7   9
ENDBRANCH   1   7
BRANCH   3  18
HETATM   18  C   UNL     1       4.587  28.139  53.754  1.00  0.00     0.153 A 
HETATM   19  N   UNL     1       5.015  27.501  52.657  1.00  0.00    -0.154 NA
HETATM   20  N   UNL     1       5.033  28.454  51.701  1.00  0.00    -0.275 N 
HETATM   21  C   UNL     1       4.612  29.674  52.151  1.00  0.00     0.116 A 
HETATM   22  C   UNL     1       4.319  29.501  53.482  1.00  0.00     0.071 A 
BRANCH  20  23
HETATM   23  C   UNL     1       5.405  28.115  50.334  1.00  0.00     0.189 C 
BRANCH  23  24
HETATM   24  C   UNL     1       4.228  27.599  49.546  1.00  0.00    -0.038 A 
HETATM   25  C   UNL     1       4.257  26.312  48.987  1.00  0.00     0.009 A 
HETATM   26  C   UNL     1       3.172  25.833  48.252  1.00  0.00     0.001 A 
HETATM   27  C   UNL     1       2.045  26.632  48.072  1.00  0.00     0.000 A 
HETATM   28  C   UNL     1       2.003  27.911  48.623  1.00  0.00     0.001 A 
HETATM   29  C   UNL     1       3.089  28.394  49.354  1.00  0.00     0.009 A 
ENDBRANCH  23  24
ENDBRANCH  20  23
ENDBRANCH   3  18
TORSDOF 7
ENDMDL
MODEL 10
REMARK VINA RESULT:      -8.4      2.679      8.757
REMARK  7 active torsions:
REMARK  status: ('A' for Active; 'I' for Inactive)
REMARK    1  A    between atoms: C_2  and  N_3 
REMARK    2  A    between atoms: C_2  and  C_19 
REMARK       I    between atoms: N_3  and  C_4 
REMARK       I    between atoms: C_4  and  N_5 
REMARK    3  A    between atoms: N_5  and  C_6 
REMARK    4  A    between atoms: N_8  and  C_9 
REMARK    5  A    between atoms: C_9  and  C_10 
REMARK    6  A    between atoms: C_19  and  C_20 
REMARK    7  A    between atoms: C_23  and  O_24 
ROOT
HETATM    1  N   UNL     1       6.686  26.193  54.477  1.00  0.00    -0.338 N 
HETATM    2  C   UNL     1       6.685  27.336  53.743  1.00  0.00     0.322 C 
HETATM    3  N   UNL     1       7.089  28.472  54.377  1.00  0.00    -0.292 N 
HETATM    4  O   UNL     1       6.344  27.388  52.563  1.00  0.00    -0.247 OA
HETATM    5  H   UNL     1       6.980  26.307  55.445  1.00  0.00     0.164 HD
HETATM    6  H   UNL     1       7.053  29.295  53.795  1.00  0.00     0.172 HD
ENDROOT
BRANCH   1   7
HETATM    7  C   UNL     1       6.108  24.934  54.035  1.00  0.00     0.086 C 
HETATM    8  C   UNL     1       4.774  25.210  53.344  1.00  0.00     0.032 C 
BRANCH   7   9
HETATM    9  C   UNL     1       7.066  24.194  53.079  1.00  0.00     0.063 C 
BRANCH   9  10
HETATM   10  C   UNL     1       7.565  22.874  53.624  1.00  0.00    -0.056 A 
HETATM   11  C   UNL     1       8.006  21.867  52.753  1.00  0.00     0.010 A 
HETATM   12  C   UNL     1       8.454  20.643  53.253  1.00  0.00     0.037 A 
HETATM   13  C   UNL     1       8.457  20.423  54.626  1.00  0.00     0.065 A 
HETATM   14  C   UNL     1       8.017  21.405  55.505  1.00  0.00     0.037 A 
HETATM   15  C   UNL     1       7.568  22.628  55.004  1.00  0.00     0.010 A 
BRANCH  13  16
HETATM   16  O   UNL     1       8.883  19.241  55.156  1.00  0.00    -0.361 OA
HETATM   17  H   UNL     1       9.840  19.168  55.006  1.00  0.00     0.217 HD
ENDBRANCH  13  16
ENDBRANCH   9  10
ENDBRANCH   7   9
ENDBRANCH   1   7
BRANCH   3  18
HETATM   18  C   UNL     1       7.473  28.637  55.689  1.00  0.00     0.153 A 
HETATM   19  N   UNL     1       8.473  29.426  56.100  1.00  0.00    -0.154 NA
HETATM   20  N   UNL     1       8.495  29.268  57.441  1.00  0.00    -0.275 N 
HETATM   21  C   UNL     1       7.527  28.418  57.898  1.00  0.00     0.116 A 
HETATM   22  C   UNL     1       6.850  27.989  56.781  1.00  0.00     0.071 A 
BRANCH  20  23
HETATM   23  C   UNL     1       9.439  30.025  58.254  1.00  0.00     0.189 C 
BRANCH  23  24
HETATM   24  C   UNL     1       8.746  30.777  59.361  1.00  0.00    -0.038 A 
HETATM   25  C   UNL     1       9.182  30.644  60.689  1.00  0.00     0.009 A 
HETATM   26  C   UNL     1       8.540  31.334  61.718  1.00  0.00     0.001 A 
HETATM   27  C   UNL     1       7.461  32.168  61.432  1.00  0.00     0.000 A 
HETATM   28  C   UNL     1       7.020  32.309  60.117  1.00  0.00     0.001 A 
HETATM   29  C   UNL     1       7.657  31.617  59.087  1.00  0.00     0.009 A 
ENDBRANCH  23  24
ENDBRANCH  20  23
ENDBRANCH   3  18
TORSDOF 7
ENDMDL
