MODEL 1
REMARK VINA RESULT:     -10.2      0.000      0.000
REMARK  7 active torsions:
REMARK  status: ('A' for Active; 'I' for Inactive)
REMARK    1  A    between atoms: C_7  and  C_8 
REMARK       I    between atoms: C_8  and  N_9 
REMARK    2  A    between atoms: N_9  and  C_10 
REMARK    3  A    between atoms: C_10  and  C_11 
REMARK    4  A    between atoms: C_11  and  O_12 
REMARK    5  A    between atoms: C_11  and  C_13 
REMARK    6  A    between atoms: C_15  and  O_16 
REMARK    7  A    between atoms: O_16  and  C_17 
ROOT
HETATM    1  C   UNL     1       7.455  27.232  57.445  1.00  0.00     0.253 C 
HETATM    2  N   UNL     1       6.465  27.314  56.501  1.00  0.00    -0.354 N 
HETATM    3  O   UNL     1       7.752  26.199  58.035  1.00  0.00    -0.268 OA
HETATM    4  H   UNL     1       6.412  28.113  55.883  1.00  0.00     0.162 HD
ENDROOT
BRANCH   2   5
HETATM    5  C   UNL     1       5.711  26.143  56.077  1.00  0.00     0.159 C 
BRANCH   5   6
HETATM    6  C   UNL     1       5.888  25.841  54.578  1.00  0.00     0.169 C 
BRANCH   6   7
HETATM    7  O   UNL     1       4.602  25.656  53.972  1.00  0.00    -0.389 OA
HETATM    8  H   UNL     1       3.956  25.642  54.701  1.00  0.00     0.210 HD
ENDBRANCH   6   7
BRANCH   6   9
HETATM    9  C   UNL     1       6.782  24.642  54.316  1.00  0.00    -0.025 A 
HETATM   10  C   UNL     1       7.313  23.920  55.401  1.00  0.00     0.046 A 
HETATM   11  C   UNL     1       8.111  22.792  55.189  1.00  0.00     0.075 A 
HETATM   12  C   UNL     1       8.360  22.368  53.883  1.00  0.00     0.037 A 
HETATM   13  C   UNL     1       7.840  23.069  52.797  1.00  0.00     0.003 A 
HETATM   14  C   UNL     1       7.055  24.201  53.012  1.00  0.00     0.010 A 
BRANCH  11  15
HETATM   15  O   UNL     1       8.667  22.008  56.160  1.00  0.00    -0.290 OA
BRANCH  15  16
HETATM   16  C   UNL     1       8.748  20.621  55.883  1.00  0.00     0.505 C 
HETATM   17  F   UNL     1       9.754  20.075  56.609  1.00  0.00    -0.184 F 
HETATM   18  F   UNL     1       7.597  20.051  56.322  1.00  0.00    -0.184 F 
ENDBRANCH  15  16
ENDBRANCH  11  15
ENDBRANCH   6   9
ENDBRANCH   5   6
ENDBRANCH   2   5
BRANCH   1  19
HETATM   19  C   UNL     1       8.222  28.498  57.675  1.00  0.00     0.048 A 
HETATM   20  C   UNL     1       9.494  28.708  56.981  1.00  0.00     0.022 A 
HETATM   21  C   UNL     1      10.230  29.820  57.169  1.00  0.00     0.054 A 
HETATM   22  C   UNL     1       9.770  30.819  58.067  1.00  0.00     0.157 A 
HETATM   23  N   UNL     1       8.576  30.583  58.733  1.00  0.00    -0.291 N 
HETATM   24  N   UNL     1      10.258  31.982  58.433  1.00  0.00    -0.130 NA
HETATM   25  C   UNL     1       8.388  31.696  59.526  1.00  0.00     0.130 A 
HETATM   26  C   UNL     1       7.807  29.435  58.554  1.00  0.00     0.117 A 
HETATM   27  C   UNL     1       7.236  31.901  60.431  1.00  0.00     0.094 C 
HETATM   28  N   UNL     1       9.393  32.532  59.349  1.00  0.00    -0.135 NA
ENDBRANCH   1  19
TORSDOF 7
ENDMDL
MODEL 2
REMARK VINA RESULT:      -9.8      1.432      1.890
REMARK  7 active torsions:
REMARK  status: ('A' for Active; 'I' for Inactive)
REMARK    1  A    between atoms: C_7  and  C_8 
REMARK       I    between atoms: C_8  and  N_9 
REMARK    2  A    between atoms: N_9  and  C_10 
REMARK    3  A    between atoms: C_10  and  C_11 
REMARK    4  A    between atoms: C_11  and  O_12 
REMARK    5  A    between atoms: C_11  and  C_13 
REMARK    6  A    between atoms: C_15  and  O_16 
REMARK    7  A    between atoms: O_16  and  C_17 
ROOT
HETATM    1  C   UNL     1       7.479  28.007  56.244  1.00  0.00     0.253 C 
HETATM    2  N   UNL     1       6.721  27.242  57.093  1.00  0.00    -0.354 N 
HETATM    3  O   UNL     1       7.502  27.856  55.028  1.00  0.00    -0.268 OA
HETATM    4  H   UNL     1       6.554  27.546  58.043  1.00  0.00     0.162 HD
ENDROOT
BRANCH   2   5
HETATM    5  C   UNL     1       5.824  26.207  56.599  1.00  0.00     0.159 C 
BRANCH   5   6
HETATM    6  C   UNL     1       6.445  24.801  56.687  1.00  0.00     0.169 C 
BRANCH   6   7
HETATM    7  O   UNL     1       7.544  24.821  57.607  1.00  0.00    -0.389 OA
HETATM    8  H   UNL     1       8.185  25.464  57.254  1.00  0.00     0.210 HD
ENDBRANCH   6   7
BRANCH   6   9
HETATM    9  C   UNL     1       6.882  24.260  55.338  1.00  0.00    -0.025 A 
HETATM   10  C   UNL     1       7.853  23.243  55.279  1.00  0.00     0.046 A 
HETATM   11  C   UNL     1       8.250  22.702  54.052  1.00  0.00     0.075 A 
HETATM   12  C   UNL     1       7.652  23.165  52.877  1.00  0.00     0.037 A 
HETATM   13  C   UNL     1       6.688  24.169  52.919  1.00  0.00     0.003 A 
HETATM   14  C   UNL     1       6.304  24.714  54.143  1.00  0.00     0.010 A 
BRANCH  11  15
HETATM   15  O   UNL     1       9.168  21.708  53.872  1.00  0.00    -0.290 OA
BRANCH  15  16
HETATM   16  C   UNL     1       8.660  20.390  53.758  1.00  0.00     0.505 C 
HETATM   17  F   UNL     1       7.454  20.318  54.375  1.00  0.00    -0.184 F 
HETATM   18  F   UNL     1       8.438  20.152  52.441  1.00  0.00    -0.184 F 
ENDBRANCH  15  16
ENDBRANCH  11  15
ENDBRANCH   6   9
ENDBRANCH   5   6
ENDBRANCH   2   5
BRANCH   1  19
HETATM   19  C   UNL     1       8.249  29.112  56.898  1.00  0.00     0.048 A 
HETATM   20  C   UNL     1       9.657  29.316  56.550  1.00  0.00     0.022 A 
HETATM   21  C   UNL     1      10.398  30.283  57.123  1.00  0.00     0.054 A 
HETATM   22  C   UNL     1       9.807  31.130  58.098  1.00  0.00     0.157 A 
HETATM   23  N   UNL     1       8.480  30.899  58.431  1.00  0.00    -0.291 N 
HETATM   24  N   UNL     1      10.269  32.138  58.801  1.00  0.00    -0.130 NA
HETATM   25  C   UNL     1       8.185  31.848  59.387  1.00  0.00     0.130 A 
HETATM   26  C   UNL     1       7.703  29.897  57.851  1.00  0.00     0.117 A 
HETATM   27  C   UNL     1       6.870  31.994  60.052  1.00  0.00     0.094 C 
HETATM   28  N   UNL     1       9.252  32.589  59.610  1.00  0.00    -0.135 NA
ENDBRANCH   1  19
TORSDOF 7
ENDMDL
MODEL 3
REMARK VINA RESULT:      -9.5      2.435      3.348
REMARK  7 active torsions:
REMARK  status: ('A' for Active; 'I' for Inactive)
REMARK    1  A    between atoms: C_7  and  C_8 
REMARK       I    between atoms: C_8  and  N_9 
REMARK    2  A    between atoms: N_9  and  C_10 
REMARK    3  A    between atoms: C_10  and  C_11 
REMARK    4  A    between atoms: C_11  and  O_12 
REMARK    5  A    between atoms: C_11  and  C_13 
REMARK    6  A    between atoms: C_15  and  O_16 
REMARK    7  A    between atoms: O_16  and  C_17 
ROOT
HETATM    1  C   UNL     1       7.454  27.687  56.795  1.00  0.00     0.253 C 
HETATM    2  N   UNL     1       7.694  26.512  57.460  1.00  0.00    -0.354 N 
HETATM    3  O   UNL     1       6.635  27.802  55.890  1.00  0.00    -0.268 OA
HETATM    4  H   UNL     1       8.196  26.516  58.338  1.00  0.00     0.162 HD
ENDROOT
BRANCH   2   5
HETATM    5  C   UNL     1       6.940  25.300  57.173  1.00  0.00     0.159 C 
BRANCH   5   6
HETATM    6  C   UNL     1       7.854  24.089  56.907  1.00  0.00     0.169 C 
BRANCH   6   7
HETATM    7  O   UNL     1       9.184  24.388  57.350  1.00  0.00    -0.389 OA
HETATM    8  H   UNL     1       9.352  23.816  58.120  1.00  0.00     0.210 HD
ENDBRANCH   6   7
BRANCH   6   9
HETATM    9  C   UNL     1       7.855  23.656  55.452  1.00  0.00    -0.025 A 
HETATM   10  C   UNL     1       7.508  24.581  54.451  1.00  0.00     0.046 A 
HETATM   11  C   UNL     1       7.534  24.219  53.101  1.00  0.00     0.075 A 
HETATM   12  C   UNL     1       7.935  22.929  52.748  1.00  0.00     0.037 A 
HETATM   13  C   UNL     1       8.285  22.002  53.727  1.00  0.00     0.003 A 
HETATM   14  C   UNL     1       8.246  22.363  55.073  1.00  0.00     0.010 A 
BRANCH  11  15
HETATM   15  O   UNL     1       7.231  25.032  52.046  1.00  0.00    -0.290 OA
BRANCH  15  16
HETATM   16  C   UNL     1       5.893  25.489  51.963  1.00  0.00     0.505 C 
HETATM   17  F   UNL     1       5.634  25.898  50.697  1.00  0.00    -0.184 F 
HETATM   18  F   UNL     1       5.085  24.424  52.201  1.00  0.00    -0.184 F 
ENDBRANCH  15  16
ENDBRANCH  11  15
ENDBRANCH   6   9
ENDBRANCH   5   6
ENDBRANCH   2   5
BRANCH   1  19
HETATM   19  C   UNL     1       8.221  28.871  57.295  1.00  0.00     0.048 A 
HETATM   20  C   UNL     1       9.603  29.074  56.855  1.00  0.00     0.022 A 
HETATM   21  C   UNL     1      10.342  30.112  57.290  1.00  0.00     0.054 A 
HETATM   22  C   UNL     1       9.775  31.038  58.205  1.00  0.00     0.157 A 
HETATM   23  N   UNL     1       8.474  30.808  58.629  1.00  0.00    -0.291 N 
HETATM   24  N   UNL     1      10.240  32.123  58.779  1.00  0.00    -0.130 NA
HETATM   25  C   UNL     1       8.198  31.841  59.500  1.00  0.00     0.130 A 
HETATM   26  C   UNL     1       7.700  29.734  58.192  1.00  0.00     0.117 A 
HETATM   27  C   UNL     1       6.914  32.020  60.214  1.00  0.00     0.094 C 
HETATM   28  N   UNL     1       9.252  32.627  59.591  1.00  0.00    -0.135 NA
ENDBRANCH   1  19
TORSDOF 7
ENDMDL
MODEL 4
REMARK VINA RESULT:      -9.2      4.722      8.888
REMARK  7 active torsions:
REMARK  status: ('A' for Active; 'I' for Inactive)
REMARK    1  A    between atoms: C_7  and  C_8 
REMARK       I    between atoms: C_8  and  N_9 
REMARK    2  A    between atoms: N_9  and  C_10 
REMARK    3  A    between atoms: C_10  and  C_11 
REMARK    4  A    between atoms: C_11  and  O_12 
REMARK    5  A    between atoms: C_11  and  C_13 
REMARK    6  A    between atoms: C_15  and  O_16 
REMARK    7  A    between atoms: O_16  and  C_17 
ROOT
HETATM    1  C   UNL     1       6.788  25.621  54.587  1.00  0.00     0.253 C 
HETATM    2  N   UNL     1       7.379  26.297  55.622  1.00  0.00    -0.354 N 
HETATM    3  O   UNL     1       5.979  26.126  53.816  1.00  0.00    -0.268 OA
HETATM    4  H   UNL     1       8.199  25.918  56.078  1.00  0.00     0.162 HD
ENDROOT
BRANCH   2   5
HETATM    5  C   UNL     1       7.129  27.712  55.856  1.00  0.00     0.159 C 
BRANCH   5   6
HETATM    6  C   UNL     1       7.425  28.129  57.309  1.00  0.00     0.169 C 
BRANCH   6   7
HETATM    7  O   UNL     1       6.246  28.699  57.892  1.00  0.00    -0.389 OA
HETATM    8  H   UNL     1       6.529  29.122  58.722  1.00  0.00     0.210 HD
ENDBRANCH   6   7
BRANCH   6   9
HETATM    9  C   UNL     1       8.598  29.085  57.424  1.00  0.00    -0.025 A 
HETATM   10  C   UNL     1       8.486  30.229  58.236  1.00  0.00     0.046 A 
HETATM   11  C   UNL     1       9.562  31.108  58.387  1.00  0.00     0.075 A 
HETATM   12  C   UNL     1      10.768  30.829  57.741  1.00  0.00     0.037 A 
HETATM   13  C   UNL     1      10.897  29.700  56.936  1.00  0.00     0.003 A 
HETATM   14  C   UNL     1       9.817  28.832  56.777  1.00  0.00     0.010 A 
BRANCH  11  15
HETATM   15  O   UNL     1       9.574  32.237  59.156  1.00  0.00    -0.290 OA
BRANCH  15  16
HETATM   16  C   UNL     1       9.139  32.094  60.497  1.00  0.00     0.505 C 
HETATM   17  F   UNL     1      10.202  32.203  61.329  1.00  0.00    -0.184 F 
HETATM   18  F   UNL     1       8.320  33.141  60.772  1.00  0.00    -0.184 F 
ENDBRANCH  15  16
ENDBRANCH  11  15
ENDBRANCH   6   9
ENDBRANCH   5   6
ENDBRANCH   2   5
BRANCH   1  19
HETATM   19  C   UNL     1       7.247  24.207  54.403  1.00  0.00     0.048 A 
HETATM   20  C   UNL     1       7.342  23.648  53.053  1.00  0.00     0.022 A 
HETATM   21  C   UNL     1       7.732  22.378  52.836  1.00  0.00     0.054 A 
HETATM   22  C   UNL     1       8.055  21.548  53.942  1.00  0.00     0.157 A 
HETATM   23  N   UNL     1       7.930  22.092  55.213  1.00  0.00    -0.291 N 
HETATM   24  N   UNL     1       8.464  20.304  54.034  1.00  0.00    -0.130 NA
HETATM   25  C   UNL     1       8.296  21.077  56.071  1.00  0.00     0.130 A 
HETATM   26  C   UNL     1       7.522  23.404  55.452  1.00  0.00     0.117 A 
HETATM   27  C   UNL     1       8.318  21.187  57.546  1.00  0.00     0.094 C 
HETATM   28  N   UNL     1       8.615  20.007  55.368  1.00  0.00    -0.135 NA
ENDBRANCH   1  19
TORSDOF 7
ENDMDL
MODEL 5
REMARK VINA RESULT:      -8.8      4.448      9.014
REMARK  7 active torsions:
REMARK  status: ('A' for Active; 'I' for Inactive)
REMARK    1  A    between atoms: C_7  and  C_8 
REMARK       I    between atoms: C_8  and  N_9 
REMARK    2  A    between atoms: N_9  and  C_10 
REMARK    3  A    between atoms: C_10  and  C_11 
REMARK    4  A    between atoms: C_11  and  O_12 
REMARK    5  A    between atoms: C_11  and  C_13 
REMARK    6  A    between atoms: C_15  and  O_16 
REMARK    7  A    between atoms: O_16  and  C_17 
ROOT
HETATM    1  C   UNL     1       6.893  25.333  55.784  1.00  0.00     0.253 C 
HETATM    2  N   UNL     1       7.483  26.527  55.461  1.00  0.00    -0.354 N 
HETATM    3  O   UNL     1       6.053  25.204  56.668  1.00  0.00    -0.268 OA
HETATM    4  H   UNL     1       7.985  26.631  54.588  1.00  0.00     0.162 HD
ENDROOT
BRANCH   2   5
HETATM    5  C   UNL     1       7.108  27.771  56.119  1.00  0.00     0.159 C 
BRANCH   5   6
HETATM    6  C   UNL     1       7.994  28.079  57.341  1.00  0.00     0.169 C 
BRANCH   6   7
HETATM    7  O   UNL     1       7.918  26.992  58.273  1.00  0.00    -0.389 OA
HETATM    8  H   UNL     1       6.972  26.858  58.461  1.00  0.00     0.210 HD
ENDBRANCH   6   7
BRANCH   6   9
HETATM    9  C   UNL     1       7.637  29.391  58.015  1.00  0.00    -0.025 A 
HETATM   10  C   UNL     1       8.513  29.944  58.968  1.00  0.00     0.046 A 
HETATM   11  C   UNL     1       8.226  31.168  59.579  1.00  0.00     0.075 A 
HETATM   12  C   UNL     1       7.067  31.857  59.217  1.00  0.00     0.037 A 
HETATM   13  C   UNL     1       6.191  31.325  58.273  1.00  0.00     0.003 A 
HETATM   14  C   UNL     1       6.474  30.098  57.675  1.00  0.00     0.010 A 
BRANCH  11  15
HETATM   15  O   UNL     1       9.004  31.806  60.503  1.00  0.00    -0.290 OA
BRANCH  15  16
HETATM   16  C   UNL     1       8.963  31.296  61.824  1.00  0.00     0.505 C 
HETATM   17  F   UNL     1       7.712  30.849  62.095  1.00  0.00    -0.184 F 
HETATM   18  F   UNL     1       9.781  30.213  61.867  1.00  0.00    -0.184 F 
ENDBRANCH  15  16
ENDBRANCH  11  15
ENDBRANCH   6   9
ENDBRANCH   5   6
ENDBRANCH   2   5
BRANCH   1  19
HETATM   19  C   UNL     1       7.295  24.172  54.928  1.00  0.00     0.048 A 
HETATM   20  C   UNL     1       7.361  24.334  53.474  1.00  0.00     0.022 A 
HETATM   21  C   UNL     1       7.698  23.317  52.660  1.00  0.00     0.054 A 
HETATM   22  C   UNL     1       7.994  22.045  53.218  1.00  0.00     0.157 A 
HETATM   23  N   UNL     1       7.898  21.909  54.595  1.00  0.00    -0.291 N 
HETATM   24  N   UNL     1       8.354  20.900  52.685  1.00  0.00    -0.130 NA
HETATM   25  C   UNL     1       8.228  20.593  54.845  1.00  0.00     0.130 A 
HETATM   26  C   UNL     1       7.544  22.952  55.449  1.00  0.00     0.117 A 
HETATM   27  C   UNL     1       8.262  19.973  56.188  1.00  0.00     0.094 C 
HETATM   28  N   UNL     1       8.500  19.989  53.705  1.00  0.00    -0.135 NA
ENDBRANCH   1  19
TORSDOF 7
ENDMDL
MODEL 6
REMARK VINA RESULT:      -8.7      4.497      8.538
REMARK  7 active torsions:
REMARK  status: ('A' for Active; 'I' for Inactive)
REMARK    1  A    between atoms: C_7  and  C_8 
REMARK       I    between atoms: C_8  and  N_9 
REMARK    2  A    between atoms: N_9  and  C_10 
REMARK    3  A    between atoms: C_10  and  C_11 
REMARK    4  A    between atoms: C_11  and  O_12 
REMARK    5  A    between atoms: C_11  and  C_13 
REMARK    6  A    between atoms: C_15  and  O_16 
REMARK    7  A    between atoms: O_16  and  C_17 
ROOT
HETATM    1  C   UNL     1       6.698  25.462  54.772  1.00  0.00     0.253 C 
HETATM    2  N   UNL     1       7.495  26.561  54.961  1.00  0.00    -0.354 N 
HETATM    3  O   UNL     1       5.600  25.500  54.229  1.00  0.00    -0.268 OA
HETATM    4  H   UNL     1       8.473  26.450  55.194  1.00  0.00     0.162 HD
ENDROOT
BRANCH   2   5
HETATM    5  C   UNL     1       7.113  27.878  54.470  1.00  0.00     0.159 C 
BRANCH   5   6
HETATM    6  C   UNL     1       6.586  28.793  55.591  1.00  0.00     0.169 C 
BRANCH   6   7
HETATM    7  O   UNL     1       5.854  29.882  55.014  1.00  0.00    -0.389 OA
HETATM    8  H   UNL     1       5.572  30.446  55.757  1.00  0.00     0.210 HD
ENDBRANCH   6   7
BRANCH   6   9
HETATM    9  C   UNL     1       7.686  29.307  56.502  1.00  0.00    -0.025 A 
HETATM   10  C   UNL     1       7.384  29.649  57.833  1.00  0.00     0.046 A 
HETATM   11  C   UNL     1       8.384  30.092  58.704  1.00  0.00     0.075 A 
HETATM   12  C   UNL     1       9.701  30.170  58.247  1.00  0.00     0.037 A 
HETATM   13  C   UNL     1      10.018  29.833  56.933  1.00  0.00     0.003 A 
HETATM   14  C   UNL     1       9.016  29.403  56.064  1.00  0.00     0.010 A 
BRANCH  11  15
HETATM   15  O   UNL     1       8.213  30.437  60.014  1.00  0.00    -0.290 OA
BRANCH  15  16
HETATM   16  C   UNL     1       9.380  30.804  60.729  1.00  0.00     0.505 C 
HETATM   17  F   UNL     1       9.277  32.097  61.125  1.00  0.00    -0.184 F 
HETATM   18  F   UNL     1       9.418  30.053  61.858  1.00  0.00    -0.184 F 
ENDBRANCH  15  16
ENDBRANCH  11  15
ENDBRANCH   6   9
ENDBRANCH   5   6
ENDBRANCH   2   5
BRANCH   1  19
HETATM   19  C   UNL     1       7.291  24.161  55.221  1.00  0.00     0.048 A 
HETATM   20  C   UNL     1       7.733  24.009  56.609  1.00  0.00     0.022 A 
HETATM   21  C   UNL     1       8.289  22.868  57.056  1.00  0.00     0.054 A 
HETATM   22  C   UNL     1       8.461  21.778  56.162  1.00  0.00     0.157 A 
HETATM   23  N   UNL     1       8.060  21.956  54.846  1.00  0.00    -0.291 N 
HETATM   24  N   UNL     1       8.951  20.569  56.314  1.00  0.00    -0.130 NA
HETATM   25  C   UNL     1       8.348  20.760  54.223  1.00  0.00     0.130 A 
HETATM   26  C   UNL     1       7.489  23.135  54.368  1.00  0.00     0.117 A 
HETATM   27  C   UNL     1       8.096  20.472  52.793  1.00  0.00     0.094 C 
HETATM   28  N   UNL     1       8.881  19.930  55.098  1.00  0.00    -0.135 NA
ENDBRANCH   1  19
TORSDOF 7
ENDMDL
MODEL 7
REMARK VINA RESULT:      -8.7      3.385      5.392
REMARK  7 active torsions:
REMARK  status: ('A' for Active; 'I' for Inactive)
REMARK    1  A    between atoms: C_7  and  C_8 
REMARK       I    between atoms: C_8  and  N_9 
REMARK    2  A    between atoms: N_9  and  C_10 
REMARK    3  A    between atoms: C_10  and  C_11 
REMARK    4  A    between atoms: C_11  and  O_12 
REMARK    5  A    between atoms: C_11  and  C_13 
REMARK    6  A    between atoms: C_15  and  O_16 
REMARK    7  A    between atoms: O_16  and  C_17 
ROOT
HETATM    1  C   UNL     1       8.100  31.707  60.125  1.00  0.00     0.253 C 
HETATM    2  N   UNL     1       7.826  30.404  59.801  1.00  0.00    -0.354 N 
HETATM    3  O   UNL     1       8.734  32.470  59.404  1.00  0.00    -0.268 OA
HETATM    4  H   UNL     1       7.114  29.890  60.304  1.00  0.00     0.162 HD
ENDROOT
BRANCH   2   5
HETATM    5  C   UNL     1       8.227  29.830  58.524  1.00  0.00     0.159 C 
BRANCH   5   6
HETATM    6  C   UNL     1       7.026  29.554  57.600  1.00  0.00     0.169 C 
BRANCH   6   7
HETATM    7  O   UNL     1       5.849  30.158  58.153  1.00  0.00    -0.389 OA
HETATM    8  H   UNL     1       5.345  29.440  58.575  1.00  0.00     0.210 HD
ENDBRANCH   6   7
BRANCH   6   9
HETATM    9  C   UNL     1       6.802  28.074  57.346  1.00  0.00    -0.025 A 
HETATM   10  C   UNL     1       7.883  27.180  57.447  1.00  0.00     0.046 A 
HETATM   11  C   UNL     1       7.698  25.808  57.252  1.00  0.00     0.075 A 
HETATM   12  C   UNL     1       6.418  25.324  56.979  1.00  0.00     0.037 A 
HETATM   13  C   UNL     1       5.336  26.196  56.878  1.00  0.00     0.003 A 
HETATM   14  C   UNL     1       5.526  27.564  57.061  1.00  0.00     0.010 A 
BRANCH  11  15
HETATM   15  O   UNL     1       8.666  24.847  57.338  1.00  0.00    -0.290 OA
BRANCH  15  16
HETATM   16  C   UNL     1       8.421  23.640  56.639  1.00  0.00     0.505 C 
HETATM   17  F   UNL     1       9.442  23.401  55.780  1.00  0.00    -0.184 F 
HETATM   18  F   UNL     1       8.435  22.633  57.549  1.00  0.00    -0.184 F 
ENDBRANCH  15  16
ENDBRANCH  11  15
ENDBRANCH   6   9
ENDBRANCH   5   6
ENDBRANCH   2   5
BRANCH   1  19
HETATM   19  C   UNL     1       7.508  32.181  61.417  1.00  0.00     0.048 A 
HETATM   20  C   UNL     1       8.353  32.268  62.609  1.00  0.00     0.022 A 
HETATM   21  C   UNL     1       7.865  32.669  63.798  1.00  0.00     0.054 A 
HETATM   22  C   UNL     1       6.492  33.014  63.909  1.00  0.00     0.157 A 
HETATM   23  N   UNL     1       5.706  32.897  62.771  1.00  0.00    -0.291 N 
HETATM   24  N   UNL     1       5.757  33.438  64.911  1.00  0.00    -0.130 NA
HETATM   25  C   UNL     1       4.444  33.284  63.171  1.00  0.00     0.130 A 
HETATM   26  C   UNL     1       6.197  32.476  61.536  1.00  0.00     0.117 A 
HETATM   27  C   UNL     1       3.255  33.320  62.291  1.00  0.00     0.094 C 
HETATM   28  N   UNL     1       4.472  33.607  64.449  1.00  0.00    -0.135 NA
ENDBRANCH   1  19
TORSDOF 7
ENDMDL
MODEL 8
REMARK VINA RESULT:      -8.6      4.751      8.924
REMARK  7 active torsions:
REMARK  status: ('A' for Active; 'I' for Inactive)
REMARK    1  A    between atoms: C_7  and  C_8 
REMARK       I    between atoms: C_8  and  N_9 
REMARK    2  A    between atoms: N_9  and  C_10 
REMARK    3  A    between atoms: C_10  and  C_11 
REMARK    4  A    between atoms: C_11  and  O_12 
REMARK    5  A    between atoms: C_11  and  C_13 
REMARK    6  A    between atoms: C_15  and  O_16 
REMARK    7  A    between atoms: O_16  and  C_17 
ROOT
HETATM    1  C   UNL     1       8.265  24.922  57.474  1.00  0.00     0.253 C 
HETATM    2  N   UNL     1       7.634  26.032  56.976  1.00  0.00    -0.354 N 
HETATM    3  O   UNL     1       8.804  24.879  58.574  1.00  0.00    -0.268 OA
HETATM    4  H   UNL     1       7.012  25.954  56.182  1.00  0.00     0.162 HD
ENDROOT
BRANCH   2   5
HETATM    5  C   UNL     1       7.503  27.254  57.757  1.00  0.00     0.159 C 
BRANCH   5   6
HETATM    6  C   UNL     1       7.545  28.519  56.880  1.00  0.00     0.169 C 
BRANCH   6   7
HETATM    7  O   UNL     1       7.703  28.142  55.506  1.00  0.00    -0.389 OA
HETATM    8  H   UNL     1       7.172  27.336  55.380  1.00  0.00     0.210 HD
ENDBRANCH   6   7
BRANCH   6   9
HETATM    9  C   UNL     1       8.630  29.495  57.298  1.00  0.00    -0.025 A 
HETATM   10  C   UNL     1       8.325  30.528  58.203  1.00  0.00     0.046 A 
HETATM   11  C   UNL     1       9.313  31.419  58.632  1.00  0.00     0.075 A 
HETATM   12  C   UNL     1      10.622  31.261  58.172  1.00  0.00     0.037 A 
HETATM   13  C   UNL     1      10.941  30.241  57.278  1.00  0.00     0.003 A 
HETATM   14  C   UNL     1       9.951  29.362  56.843  1.00  0.00     0.010 A 
BRANCH  11  15
HETATM   15  O   UNL     1       9.138  32.448  59.513  1.00  0.00    -0.290 OA
BRANCH  15  16
HETATM   16  C   UNL     1       9.012  32.095  60.880  1.00  0.00     0.505 C 
HETATM   17  F   UNL     1      10.227  32.165  61.477  1.00  0.00    -0.184 F 
HETATM   18  F   UNL     1       8.233  33.035  61.472  1.00  0.00    -0.184 F 
ENDBRANCH  15  16
ENDBRANCH  11  15
ENDBRANCH   6   9
ENDBRANCH   5   6
ENDBRANCH   2   5
BRANCH   1  19
HETATM   19  C   UNL     1       8.202  23.707  56.600  1.00  0.00     0.048 A 
HETATM   20  C   UNL     1       8.373  22.380  57.194  1.00  0.00     0.022 A 
HETATM   21  C   UNL     1       8.343  21.259  56.449  1.00  0.00     0.054 A 
HETATM   22  C   UNL     1       8.147  21.358  55.046  1.00  0.00     0.157 A 
HETATM   23  N   UNL     1       8.015  22.628  54.503  1.00  0.00    -0.291 N 
HETATM   24  N   UNL     1       8.065  20.460  54.092  1.00  0.00    -0.130 NA
HETATM   25  C   UNL     1       7.848  22.419  53.151  1.00  0.00     0.130 A 
HETATM   26  C   UNL     1       8.051  23.797  55.262  1.00  0.00     0.117 A 
HETATM   27  C   UNL     1       7.668  23.492  52.148  1.00  0.00     0.094 C 
HETATM   28  N   UNL     1       7.878  21.124  52.903  1.00  0.00    -0.135 NA
ENDBRANCH   1  19
TORSDOF 7
ENDMDL
MODEL 9
REMARK VINA RESULT:      -8.5      1.906      2.628
REMARK  7 active torsions:
REMARK  status: ('A' for Active; 'I' for Inactive)
REMARK    1  A    between atoms: C_7  and  C_8 
REMARK       I    between atoms: C_8  and  N_9 
REMARK    2  A    between atoms: N_9  and  C_10 
REMARK    3  A    between atoms: C_10  and  C_11 
REMARK    4  A    between atoms: C_11  and  O_12 
REMARK    5  A    between atoms: C_11  and  C_13 
REMARK    6  A    between atoms: C_15  and  O_16 
REMARK    7  A    between atoms: O_16  and  C_17 
ROOT
HETATM    1  C   UNL     1       8.185  28.617  57.306  1.00  0.00     0.253 C 
HETATM    2  N   UNL     1       7.836  27.367  57.745  1.00  0.00    -0.354 N 
HETATM    3  O   UNL     1       8.839  28.826  56.290  1.00  0.00    -0.268 OA
HETATM    4  H   UNL     1       7.112  27.253  58.442  1.00  0.00     0.162 HD
ENDROOT
BRANCH   2   5
HETATM    5  C   UNL     1       8.175  26.167  56.992  1.00  0.00     0.159 C 
BRANCH   5   6
HETATM    6  C   UNL     1       6.944  25.522  56.329  1.00  0.00     0.169 C 
BRANCH   6   7
HETATM    7  O   UNL     1       6.277  24.679  57.277  1.00  0.00    -0.389 OA
HETATM    8  H   UNL     1       6.272  25.166  58.121  1.00  0.00     0.210 HD
ENDBRANCH   6   7
BRANCH   6   9
HETATM    9  C   UNL     1       7.286  24.749  55.068  1.00  0.00    -0.025 A 
HETATM   10  C   UNL     1       8.155  23.644  55.145  1.00  0.00     0.046 A 
HETATM   11  C   UNL     1       8.460  22.893  54.006  1.00  0.00     0.075 A 
HETATM   12  C   UNL     1       7.873  23.233  52.786  1.00  0.00     0.037 A 
HETATM   13  C   UNL     1       7.009  24.322  52.693  1.00  0.00     0.003 A 
HETATM   14  C   UNL     1       6.717  25.077  53.829  1.00  0.00     0.010 A 
BRANCH  11  15
HETATM   15  O   UNL     1       9.275  21.797  53.962  1.00  0.00    -0.290 OA
BRANCH  15  16
HETATM   16  C   UNL     1       8.635  20.534  53.943  1.00  0.00     0.505 C 
HETATM   17  F   UNL     1       7.378  20.658  54.435  1.00  0.00    -0.184 F 
HETATM   18  F   UNL     1       8.509  20.162  52.644  1.00  0.00    -0.184 F 
ENDBRANCH  15  16
ENDBRANCH  11  15
ENDBRANCH   6   9
ENDBRANCH   5   6
ENDBRANCH   2   5
BRANCH   1  19
HETATM   19  C   UNL     1       7.651  29.752  58.125  1.00  0.00     0.048 A 
HETATM   20  C   UNL     1       6.398  30.400  57.731  1.00  0.00     0.022 A 
HETATM   21  C   UNL     1       5.886  31.436  58.422  1.00  0.00     0.054 A 
HETATM   22  C   UNL     1       6.577  31.923  59.563  1.00  0.00     0.157 A 
HETATM   23  N   UNL     1       7.776  31.311  59.899  1.00  0.00    -0.291 N 
HETATM   24  N   UNL     1       6.320  32.888  60.416  1.00  0.00    -0.130 NA
HETATM   25  C   UNL     1       8.215  31.984  61.020  1.00  0.00     0.130 A 
HETATM   26  C   UNL     1       8.321  30.242  59.189  1.00  0.00     0.117 A 
HETATM   27  C   UNL     1       9.469  31.683  61.746  1.00  0.00     0.094 C 
HETATM   28  N   UNL     1       7.347  32.927  61.330  1.00  0.00    -0.135 NA
ENDBRANCH   1  19
TORSDOF 7
ENDMDL
MODEL 10
REMARK VINA RESULT:      -8.3      5.714      8.598
REMARK  7 active torsions:
REMARK  status: ('A' for Active; 'I' for Inactive)
REMARK    1  A    between atoms: C_7  and  C_8 
REMARK       I    between atoms: C_8  and  N_9 
REMARK    2  A    between atoms: N_9  and  C_10 
REMARK    3  A    between atoms: C_10  and  C_11 
REMARK    4  A    between atoms: C_11  and  O_12 
REMARK    5  A    between atoms: C_11  and  C_13 
REMARK    6  A    between atoms: C_15  and  O_16 
REMARK    7  A    between atoms: O_16  and  C_17 
ROOT
HETATM    1  C   UNL     1       7.152  25.438  53.017  1.00  0.00     0.253 C 
HETATM    2  N   UNL     1       6.432  26.476  53.550  1.00  0.00    -0.354 N 
HETATM    3  O   UNL     1       7.610  25.440  51.880  1.00  0.00    -0.268 OA
HETATM    4  H   UNL     1       6.278  26.532  54.549  1.00  0.00     0.162 HD
ENDROOT
BRANCH   2   5
HETATM    5  C   UNL     1       6.200  27.708  52.811  1.00  0.00     0.159 C 
BRANCH   5   6
HETATM    6  C   UNL     1       4.706  27.948  52.523  1.00  0.00     0.169 C 
BRANCH   6   7
HETATM    7  O   UNL     1       3.929  26.911  53.135  1.00  0.00    -0.389 OA
HETATM    8  H   UNL     1       4.199  26.882  54.071  1.00  0.00     0.210 HD
ENDBRANCH   6   7
BRANCH   6   9
HETATM    9  C   UNL     1       4.396  28.049  51.041  1.00  0.00    -0.025 A 
HETATM   10  C   UNL     1       4.461  26.895  50.237  1.00  0.00     0.046 A 
HETATM   11  C   UNL     1       4.147  26.953  48.876  1.00  0.00     0.075 A 
HETATM   12  C   UNL     1       3.742  28.167  48.319  1.00  0.00     0.037 A 
HETATM   13  C   UNL     1       3.670  29.318  49.101  1.00  0.00     0.003 A 
HETATM   14  C   UNL     1       3.996  29.260  50.455  1.00  0.00     0.010 A 
BRANCH  11  15
HETATM   15  O   UNL     1       4.161  25.901  48.004  1.00  0.00    -0.290 OA
BRANCH  15  16
HETATM   16  C   UNL     1       2.922  25.250  47.779  1.00  0.00     0.505 C 
HETATM   17  F   UNL     1       2.792  24.975  46.458  1.00  0.00    -0.184 F 
HETATM   18  F   UNL     1       2.968  24.056  48.422  1.00  0.00    -0.184 F 
ENDBRANCH  15  16
ENDBRANCH  11  15
ENDBRANCH   6   9
ENDBRANCH   5   6
ENDBRANCH   2   5
BRANCH   1  19
HETATM   19  C   UNL     1       7.411  24.296  53.950  1.00  0.00     0.048 A 
HETATM   20  C   UNL     1       7.323  24.511  55.396  1.00  0.00     0.022 A 
HETATM   21  C   UNL     1       7.565  23.522  56.278  1.00  0.00     0.054 A 
HETATM   22  C   UNL     1       7.923  22.234  55.800  1.00  0.00     0.157 A 
HETATM   23  N   UNL     1       8.027  22.063  54.427  1.00  0.00    -0.291 N 
HETATM   24  N   UNL     1       8.200  21.103  56.407  1.00  0.00    -0.130 NA
HETATM   25  C   UNL     1       8.388  20.742  54.261  1.00  0.00     0.130 A 
HETATM   26  C   UNL     1       7.785  23.079  53.504  1.00  0.00     0.117 A 
HETATM   27  C   UNL     1       8.621  20.090  52.953  1.00  0.00     0.094 C 
HETATM   28  N   UNL     1       8.492  20.167  55.443  1.00  0.00    -0.135 NA
ENDBRANCH   1  19
TORSDOF 7
ENDMDL
