MODEL 1
REMARK VINA RESULT:     -10.5      0.000      0.000
REMARK  5 active torsions:
REMARK  status: ('A' for Active; 'I' for Inactive)
REMARK    1  A    between atoms: C_5  and  C_6 
REMARK    2  A    between atoms: C_11  and  C_12 
REMARK       I    between atoms: C_12  and  N_13 
REMARK    3  A    between atoms: N_13  and  C_14 
REMARK    4  A    between atoms: C_16  and  O_17 
REMARK    5  A    between atoms: C_23  and  C_24 
ROOT
HETATM    1  C   UNL     1       6.502  25.939  54.065  1.00  0.00     0.118 C 
HETATM    2  N   UNL     1       7.608  26.872  54.305  1.00  0.00    -0.366 N 
HETATM    3  C   UNL     1       7.556  27.813  55.270  1.00  0.00     0.123 A 
HETATM    4  N   UNL     1       6.368  28.174  55.836  1.00  0.00    -0.240 N 
HETATM    5  N   UNL     1       6.489  29.004  56.888  1.00  0.00    -0.165 NA
HETATM    6  C   UNL     1       7.820  29.261  56.925  1.00  0.00     0.148 A 
HETATM    7  C   UNL     1       8.514  28.560  55.898  1.00  0.00     0.089 A 
HETATM    8  C   UNL     1       5.107  27.566  55.465  1.00  0.00     0.221 C 
HETATM    9  C   UNL     1       5.364  26.099  55.097  1.00  0.00     0.066 C 
HETATM   10  H   UNL     1       8.500  26.590  53.898  1.00  0.00     0.161 HD
ENDROOT
BRANCH   6  11
HETATM   11  C   UNL     1       8.420  30.119  57.964  1.00  0.00     0.276 C 
HETATM   12  N   UNL     1       7.528  30.386  58.983  1.00  0.00    -0.322 N 
HETATM   13  H   UNL     1       6.606  29.981  58.826  1.00  0.00     0.169 HD
HETATM   14  O   UNL     1       9.584  30.498  57.889  1.00  0.00    -0.266 OA
BRANCH  12  15
HETATM   15  C   UNL     1       7.749  31.084  60.181  1.00  0.00     0.037 A 
HETATM   16  C   UNL     1       7.031  32.221  60.561  1.00  0.00     0.066 A 
HETATM   17  C   UNL     1       7.334  32.862  61.761  1.00  0.00     0.067 A 
HETATM   18  C   UNL     1       8.340  32.389  62.594  1.00  0.00     0.036 A 
HETATM   19  C   UNL     1       9.058  31.256  62.223  1.00  0.00     0.005 A 
HETATM   20  C   UNL     1       8.763  30.607  61.021  1.00  0.00     0.029 A 
BRANCH  17  21
HETATM   21  O   UNL     1       6.655  33.978  62.158  1.00  0.00    -0.361 OA
HETATM   22  H   UNL     1       6.043  34.232  61.446  1.00  0.00     0.217 HD
ENDBRANCH  17  21
ENDBRANCH  12  15
ENDBRANCH   6  11
BRANCH   8  23
HETATM   23  C   UNL     1       4.457  28.348  54.347  1.00  0.00     0.409 C 
HETATM   24  F   UNL     1       5.356  29.058  53.629  1.00  0.00    -0.169 F 
HETATM   25  F   UNL     1       3.751  27.587  53.487  1.00  0.00    -0.169 F 
HETATM   26  F   UNL     1       3.585  29.250  54.869  1.00  0.00    -0.169 F 
ENDBRANCH   8  23
BRANCH   1  27
HETATM   27  C   UNL     1       7.030  24.514  54.090  1.00  0.00    -0.035 A 
HETATM   28  C   UNL     1       7.069  23.777  55.287  1.00  0.00     0.010 A 
HETATM   29  C   UNL     1       7.530  22.460  55.305  1.00  0.00     0.007 A 
HETATM   30  C   UNL     1       7.969  21.850  54.127  1.00  0.00    -0.062 A 
HETATM   31  C   UNL     1       8.429  20.422  54.139  1.00  0.00     0.048 C 
HETATM   32  C   UNL     1       7.916  22.569  52.928  1.00  0.00     0.007 A 
HETATM   33  C   UNL     1       7.455  23.890  52.909  1.00  0.00     0.010 A 
ENDBRANCH   1  27
TORSDOF 5
ENDMDL
MODEL 2
REMARK VINA RESULT:     -10.4      1.742      2.249
REMARK  5 active torsions:
REMARK  status: ('A' for Active; 'I' for Inactive)
REMARK    1  A    between atoms: C_5  and  C_6 
REMARK    2  A    between atoms: C_11  and  C_12 
REMARK       I    between atoms: C_12  and  N_13 
REMARK    3  A    between atoms: N_13  and  C_14 
REMARK    4  A    between atoms: C_16  and  O_17 
REMARK    5  A    between atoms: C_23  and  C_24 
ROOT
HETATM    1  C   UNL     1       6.799  24.987  53.096  1.00  0.00     0.118 C 
HETATM    2  N   UNL     1       7.636  26.067  53.628  1.00  0.00    -0.366 N 
HETATM    3  C   UNL     1       7.109  27.163  54.212  1.00  0.00     0.123 A 
HETATM    4  N   UNL     1       5.795  27.488  54.036  1.00  0.00    -0.240 N 
HETATM    5  N   UNL     1       5.375  28.512  54.801  1.00  0.00    -0.165 NA
HETATM    6  C   UNL     1       6.510  28.920  55.420  1.00  0.00     0.148 A 
HETATM    7  C   UNL     1       7.625  28.120  55.041  1.00  0.00     0.089 A 
HETATM    8  C   UNL     1       4.887  26.682  53.246  1.00  0.00     0.221 C 
HETATM    9  C   UNL     1       5.298  25.211  53.384  1.00  0.00     0.066 C 
HETATM   10  H   UNL     1       8.614  25.816  53.777  1.00  0.00     0.161 HD
ENDROOT
BRANCH   6  11
HETATM   11  C   UNL     1       6.512  30.024  56.399  1.00  0.00     0.276 C 
HETATM   12  N   UNL     1       7.482  29.847  57.364  1.00  0.00    -0.322 N 
HETATM   13  H   UNL     1       8.000  28.977  57.260  1.00  0.00     0.169 HD
HETATM   14  O   UNL     1       5.736  30.969  56.300  1.00  0.00    -0.266 OA
BRANCH  12  15
HETATM   15  C   UNL     1       7.852  30.716  58.405  1.00  0.00     0.037 A 
HETATM   16  C   UNL     1       6.939  31.317  59.275  1.00  0.00     0.066 A 
HETATM   17  C   UNL     1       7.395  32.182  60.268  1.00  0.00     0.067 A 
HETATM   18  C   UNL     1       8.748  32.460  60.412  1.00  0.00     0.036 A 
HETATM   19  C   UNL     1       9.664  31.864  59.549  1.00  0.00     0.005 A 
HETATM   20  C   UNL     1       9.216  30.995  58.550  1.00  0.00     0.029 A 
BRANCH  17  21
HETATM   21  O   UNL     1       6.529  32.789  61.130  1.00  0.00    -0.361 OA
HETATM   22  H   UNL     1       6.725  33.743  61.139  1.00  0.00     0.217 HD
ENDBRANCH  17  21
ENDBRANCH  12  15
ENDBRANCH   6  11
BRANCH   8  23
HETATM   23  C   UNL     1       4.876  27.158  51.812  1.00  0.00     0.409 C 
HETATM   24  F   UNL     1       5.970  27.892  51.507  1.00  0.00    -0.169 F 
HETATM   25  F   UNL     1       4.782  26.163  50.907  1.00  0.00    -0.169 F 
HETATM   26  F   UNL     1       3.802  27.967  51.609  1.00  0.00    -0.169 F 
ENDBRANCH   8  23
BRANCH   1  27
HETATM   27  C   UNL     1       7.251  23.662  53.689  1.00  0.00    -0.035 A 
HETATM   28  C   UNL     1       7.733  22.628  52.866  1.00  0.00     0.010 A 
HETATM   29  C   UNL     1       8.170  21.420  53.412  1.00  0.00     0.007 A 
HETATM   30  C   UNL     1       8.132  21.216  54.794  1.00  0.00    -0.062 A 
HETATM   31  C   UNL     1       8.638  19.933  55.384  1.00  0.00     0.048 C 
HETATM   32  C   UNL     1       7.672  22.246  55.621  1.00  0.00     0.007 A 
HETATM   33  C   UNL     1       7.231  23.456  55.075  1.00  0.00     0.010 A 
ENDBRANCH   1  27
TORSDOF 5
ENDMDL
MODEL 3
REMARK VINA RESULT:      -9.8      2.686      3.481
REMARK  5 active torsions:
REMARK  status: ('A' for Active; 'I' for Inactive)
REMARK    1  A    between atoms: C_5  and  C_6 
REMARK    2  A    between atoms: C_11  and  C_12 
REMARK       I    between atoms: C_12  and  N_13 
REMARK    3  A    between atoms: N_13  and  C_14 
REMARK    4  A    between atoms: C_16  and  O_17 
REMARK    5  A    between atoms: C_23  and  C_24 
ROOT
HETATM    1  C   UNL     1       6.704  24.915  52.812  1.00  0.00     0.118 C 
HETATM    2  N   UNL     1       7.214  26.144  53.429  1.00  0.00    -0.366 N 
HETATM    3  C   UNL     1       6.403  27.170  53.761  1.00  0.00     0.123 A 
HETATM    4  N   UNL     1       5.145  27.268  53.240  1.00  0.00    -0.240 N 
HETATM    5  N   UNL     1       4.401  28.250  53.780  1.00  0.00    -0.165 NA
HETATM    6  C   UNL     1       5.270  28.870  54.617  1.00  0.00     0.148 A 
HETATM    7  C   UNL     1       6.547  28.242  54.598  1.00  0.00     0.089 A 
HETATM    8  C   UNL     1       4.595  26.284  52.331  1.00  0.00     0.221 C 
HETATM    9  C   UNL     1       5.163  24.908  52.702  1.00  0.00     0.066 C 
HETATM   10  H   UNL     1       8.146  26.063  53.835  1.00  0.00     0.161 HD
ENDROOT
BRANCH   6  11
HETATM   11  C   UNL     1       4.862  30.010  55.460  1.00  0.00     0.276 C 
HETATM   12  N   UNL     1       5.204  29.814  56.782  1.00  0.00    -0.322 N 
HETATM   13  H   UNL     1       5.639  28.910  56.956  1.00  0.00     0.169 HD
HETATM   14  O   UNL     1       4.312  30.996  54.981  1.00  0.00    -0.266 OA
BRANCH  12  15
HETATM   15  C   UNL     1       5.066  30.700  57.864  1.00  0.00     0.037 A 
HETATM   16  C   UNL     1       3.845  30.999  58.471  1.00  0.00     0.066 A 
HETATM   17  C   UNL     1       3.800  31.907  59.528  1.00  0.00     0.067 A 
HETATM   18  C   UNL     1       4.955  32.524  59.993  1.00  0.00     0.036 A 
HETATM   19  C   UNL     1       6.176  32.230  59.393  1.00  0.00     0.005 A 
HETATM   20  C   UNL     1       6.231  31.322  58.333  1.00  0.00     0.029 A 
BRANCH  17  21
HETATM   21  O   UNL     1       2.622  32.225  60.139  1.00  0.00    -0.361 OA
HETATM   22  H   UNL     1       1.927  32.268  59.460  1.00  0.00     0.217 HD
ENDBRANCH  17  21
ENDBRANCH  12  15
ENDBRANCH   6  11
BRANCH   8  23
HETATM   23  C   UNL     1       4.883  26.673  50.900  1.00  0.00     0.409 C 
HETATM   24  F   UNL     1       4.017  27.602  50.438  1.00  0.00    -0.169 F 
HETATM   25  F   UNL     1       6.133  27.139  50.701  1.00  0.00    -0.169 F 
HETATM   26  F   UNL     1       4.746  25.585  50.096  1.00  0.00    -0.169 F 
ENDBRANCH   8  23
BRANCH   1  27
HETATM   27  C   UNL     1       7.174  23.715  53.617  1.00  0.00    -0.035 A 
HETATM   28  C   UNL     1       7.705  22.579  52.981  1.00  0.00     0.010 A 
HETATM   29  C   UNL     1       8.159  21.487  53.721  1.00  0.00     0.007 A 
HETATM   30  C   UNL     1       8.090  21.503  55.117  1.00  0.00    -0.062 A 
HETATM   31  C   UNL     1       8.614  20.345  55.915  1.00  0.00     0.048 C 
HETATM   32  C   UNL     1       7.581  22.637  55.759  1.00  0.00     0.007 A 
HETATM   33  C   UNL     1       7.124  23.731  55.018  1.00  0.00     0.010 A 
ENDBRANCH   1  27
TORSDOF 5
ENDMDL
MODEL 4
REMARK VINA RESULT:      -9.8      3.214      8.626
REMARK  5 active torsions:
REMARK  status: ('A' for Active; 'I' for Inactive)
REMARK    1  A    between atoms: C_5  and  C_6 
REMARK    2  A    between atoms: C_11  and  C_12 
REMARK       I    between atoms: C_12  and  N_13 
REMARK    3  A    between atoms: N_13  and  C_14 
REMARK    4  A    between atoms: C_16  and  O_17 
REMARK    5  A    between atoms: C_23  and  C_24 
ROOT
HETATM    1  C   UNL     1       5.718  29.926  57.409  1.00  0.00     0.118 C 
HETATM    2  N   UNL     1       5.608  28.478  57.611  1.00  0.00    -0.366 N 
HETATM    3  C   UNL     1       5.695  27.602  56.589  1.00  0.00     0.123 A 
HETATM    4  N   UNL     1       5.547  28.014  55.296  1.00  0.00    -0.240 N 
HETATM    5  N   UNL     1       5.815  27.064  54.382  1.00  0.00    -0.165 NA
HETATM    6  C   UNL     1       6.048  25.964  55.140  1.00  0.00     0.148 A 
HETATM    7  C   UNL     1       5.941  26.258  56.528  1.00  0.00     0.089 A 
HETATM    8  C   UNL     1       5.313  29.398  54.937  1.00  0.00     0.221 C 
HETATM    9  C   UNL     1       6.047  30.292  55.944  1.00  0.00     0.066 C 
HETATM   10  H   UNL     1       5.738  28.170  58.575  1.00  0.00     0.161 HD
ENDROOT
BRANCH   6  11
HETATM   11  C   UNL     1       6.422  24.669  54.540  1.00  0.00     0.276 C 
HETATM   12  N   UNL     1       7.220  23.928  55.387  1.00  0.00    -0.322 N 
HETATM   13  H   UNL     1       7.445  24.411  56.254  1.00  0.00     0.169 HD
HETATM   14  O   UNL     1       6.019  24.337  53.430  1.00  0.00    -0.266 OA
BRANCH  12  15
HETATM   15  C   UNL     1       7.702  22.619  55.214  1.00  0.00     0.037 A 
HETATM   16  C   UNL     1       7.744  21.964  53.981  1.00  0.00     0.066 A 
HETATM   17  C   UNL     1       8.221  20.656  53.908  1.00  0.00     0.067 A 
HETATM   18  C   UNL     1       8.659  19.987  55.043  1.00  0.00     0.036 A 
HETATM   19  C   UNL     1       8.621  20.634  56.276  1.00  0.00     0.005 A 
HETATM   20  C   UNL     1       8.144  21.945  56.360  1.00  0.00     0.029 A 
BRANCH  17  21
HETATM   21  O   UNL     1       8.270  19.987  52.720  1.00  0.00    -0.361 OA
HETATM   22  H   UNL     1       7.502  19.391  52.672  1.00  0.00     0.217 HD
ENDBRANCH  17  21
ENDBRANCH  12  15
ENDBRANCH   6  11
BRANCH   8  23
HETATM   23  C   UNL     1       3.830  29.679  54.871  1.00  0.00     0.409 C 
HETATM   24  F   UNL     1       3.305  29.383  53.662  1.00  0.00    -0.169 F 
HETATM   25  F   UNL     1       3.108  29.027  55.805  1.00  0.00    -0.169 F 
HETATM   26  F   UNL     1       3.609  31.006  55.072  1.00  0.00    -0.169 F 
ENDBRANCH   8  23
BRANCH   1  27
HETATM   27  C   UNL     1       6.784  30.485  58.337  1.00  0.00    -0.035 A 
HETATM   28  C   UNL     1       6.569  31.676  59.052  1.00  0.00     0.010 A 
HETATM   29  C   UNL     1       7.538  32.176  59.923  1.00  0.00     0.007 A 
HETATM   30  C   UNL     1       8.748  31.498  60.097  1.00  0.00    -0.062 A 
HETATM   31  C   UNL     1       9.774  32.014  61.062  1.00  0.00     0.048 C 
HETATM   32  C   UNL     1       8.962  30.302  59.403  1.00  0.00     0.007 A 
HETATM   33  C   UNL     1       7.993  29.802  58.528  1.00  0.00     0.010 A 
ENDBRANCH   1  27
TORSDOF 5
ENDMDL
MODEL 5
REMARK VINA RESULT:      -9.7      1.375      2.043
REMARK  5 active torsions:
REMARK  status: ('A' for Active; 'I' for Inactive)
REMARK    1  A    between atoms: C_5  and  C_6 
REMARK    2  A    between atoms: C_11  and  C_12 
REMARK       I    between atoms: C_12  and  N_13 
REMARK    3  A    between atoms: N_13  and  C_14 
REMARK    4  A    between atoms: C_16  and  O_17 
REMARK    5  A    between atoms: C_23  and  C_24 
ROOT
HETATM    1  C   UNL     1       6.575  26.453  55.188  1.00  0.00     0.118 C 
HETATM    2  N   UNL     1       7.578  27.479  55.493  1.00  0.00    -0.366 N 
HETATM    3  C   UNL     1       7.305  28.537  56.284  1.00  0.00     0.123 A 
HETATM    4  N   UNL     1       6.017  28.894  56.559  1.00  0.00    -0.240 N 
HETATM    5  N   UNL     1       5.901  29.865  57.482  1.00  0.00    -0.165 NA
HETATM    6  C   UNL     1       7.188  30.210  57.730  1.00  0.00     0.148 A 
HETATM    7  C   UNL     1       8.094  29.423  56.964  1.00  0.00     0.089 A 
HETATM    8  C   UNL     1       4.875  28.161  56.051  1.00  0.00     0.221 C 
HETATM    9  C   UNL     1       5.253  26.677  55.955  1.00  0.00     0.066 C 
HETATM   10  H   UNL     1       8.542  27.202  55.305  1.00  0.00     0.161 HD
ENDROOT
BRANCH   6  11
HETATM   11  C   UNL     1       7.543  31.238  58.727  1.00  0.00     0.276 C 
HETATM   12  N   UNL     1       6.515  31.455  59.623  1.00  0.00    -0.322 N 
HETATM   13  H   UNL     1       5.684  30.903  59.422  1.00  0.00     0.169 HD
HETATM   14  O   UNL     1       8.642  31.781  58.724  1.00  0.00    -0.266 OA
BRANCH  12  15
HETATM   15  C   UNL     1       6.503  32.283  60.758  1.00  0.00     0.037 A 
HETATM   16  C   UNL     1       7.360  32.117  61.848  1.00  0.00     0.066 A 
HETATM   17  C   UNL     1       7.263  32.976  62.942  1.00  0.00     0.067 A 
HETATM   18  C   UNL     1       6.326  34.002  62.969  1.00  0.00     0.036 A 
HETATM   19  C   UNL     1       5.470  34.174  61.885  1.00  0.00     0.005 A 
HETATM   20  C   UNL     1       5.559  33.317  60.784  1.00  0.00     0.029 A 
BRANCH  17  21
HETATM   21  O   UNL     1       8.081  32.838  64.025  1.00  0.00    -0.361 OA
HETATM   22  H   UNL     1       8.898  32.394  63.737  1.00  0.00     0.217 HD
ENDBRANCH  17  21
ENDBRANCH  12  15
ENDBRANCH   6  11
BRANCH   8  23
HETATM   23  C   UNL     1       4.427  28.741  54.729  1.00  0.00     0.409 C 
HETATM   24  F   UNL     1       3.516  29.727  54.885  1.00  0.00    -0.169 F 
HETATM   25  F   UNL     1       5.434  29.225  53.975  1.00  0.00    -0.169 F 
HETATM   26  F   UNL     1       3.823  27.773  53.989  1.00  0.00    -0.169 F 
ENDBRANCH   8  23
BRANCH   1  27
HETATM   27  C   UNL     1       7.141  25.081  55.519  1.00  0.00    -0.035 A 
HETATM   28  C   UNL     1       7.847  24.858  56.714  1.00  0.00     0.010 A 
HETATM   29  C   UNL     1       8.345  23.592  57.029  1.00  0.00     0.007 A 
HETATM   30  C   UNL     1       8.153  22.521  56.153  1.00  0.00    -0.062 A 
HETATM   31  C   UNL     1       8.654  21.152  56.509  1.00  0.00     0.048 C 
HETATM   32  C   UNL     1       7.436  22.730  54.970  1.00  0.00     0.007 A 
HETATM   33  C   UNL     1       6.938  23.998  54.653  1.00  0.00     0.010 A 
ENDBRANCH   1  27
TORSDOF 5
ENDMDL
MODEL 6
REMARK VINA RESULT:      -9.6      5.012     11.095
REMARK  5 active torsions:
REMARK  status: ('A' for Active; 'I' for Inactive)
REMARK    1  A    between atoms: C_5  and  C_6 
REMARK    2  A    between atoms: C_11  and  C_12 
REMARK       I    between atoms: C_12  and  N_13 
REMARK    3  A    between atoms: N_13  and  C_14 
REMARK    4  A    between atoms: C_16  and  O_17 
REMARK    5  A    between atoms: C_23  and  C_24 
ROOT
HETATM    1  C   UNL     1       4.574  33.482  64.582  1.00  0.00     0.118 C 
HETATM    2  N   UNL     1       5.403  32.396  64.050  1.00  0.00    -0.366 N 
HETATM    3  C   UNL     1       5.950  32.448  62.818  1.00  0.00     0.123 A 
HETATM    4  N   UNL     1       5.493  33.333  61.884  1.00  0.00    -0.240 N 
HETATM    5  N   UNL     1       6.234  33.379  60.762  1.00  0.00    -0.165 NA
HETATM    6  C   UNL     1       7.150  32.399  60.957  1.00  0.00     0.148 A 
HETATM    7  C   UNL     1       6.974  31.767  62.221  1.00  0.00     0.089 A 
HETATM    8  C   UNL     1       4.427  34.275  62.153  1.00  0.00     0.221 C 
HETATM    9  C   UNL     1       4.508  34.694  63.627  1.00  0.00     0.066 C 
HETATM   10  H   UNL     1       5.759  31.747  64.752  1.00  0.00     0.161 HD
ENDROOT
BRANCH   6  11
HETATM   11  C   UNL     1       8.209  32.113  59.970  1.00  0.00     0.276 C 
HETATM   12  N   UNL     1       7.976  30.927  59.303  1.00  0.00    -0.322 N 
HETATM   13  H   UNL     1       7.145  30.438  59.630  1.00  0.00     0.169 HD
HETATM   14  O   UNL     1       9.144  32.886  59.791  1.00  0.00    -0.266 OA
BRANCH  12  15
HETATM   15  C   UNL     1       8.702  30.363  58.240  1.00  0.00     0.037 A 
HETATM   16  C   UNL     1      10.097  30.333  58.183  1.00  0.00     0.066 A 
HETATM   17  C   UNL     1      10.732  29.769  57.078  1.00  0.00     0.067 A 
HETATM   18  C   UNL     1      10.002  29.231  56.026  1.00  0.00     0.036 A 
HETATM   19  C   UNL     1       8.611  29.256  56.077  1.00  0.00     0.005 A 
HETATM   20  C   UNL     1       7.964  29.820  57.181  1.00  0.00     0.029 A 
BRANCH  17  21
HETATM   21  O   UNL     1      12.094  29.730  56.988  1.00  0.00    -0.361 OA
HETATM   22  H   UNL     1      12.448  29.439  57.846  1.00  0.00     0.217 HD
ENDBRANCH  17  21
ENDBRANCH  12  15
ENDBRANCH   6  11
BRANCH   8  23
HETATM   23  C   UNL     1       3.091  33.674  61.785  1.00  0.00     0.409 C 
HETATM   24  F   UNL     1       3.197  32.379  61.413  1.00  0.00    -0.169 F 
HETATM   25  F   UNL     1       2.170  33.746  62.768  1.00  0.00    -0.169 F 
HETATM   26  F   UNL     1       2.570  34.339  60.720  1.00  0.00    -0.169 F 
ENDBRANCH   8  23
BRANCH   1  27
HETATM   27  C   UNL     1       5.119  33.915  65.934  1.00  0.00    -0.035 A 
HETATM   28  C   UNL     1       4.252  34.236  66.994  1.00  0.00     0.010 A 
HETATM   29  C   UNL     1       4.752  34.610  68.243  1.00  0.00     0.007 A 
HETATM   30  C   UNL     1       6.131  34.675  68.460  1.00  0.00    -0.062 A 
HETATM   31  C   UNL     1       6.669  35.039  69.812  1.00  0.00     0.048 C 
HETATM   32  C   UNL     1       7.000  34.339  67.416  1.00  0.00     0.007 A 
HETATM   33  C   UNL     1       6.500  33.967  66.164  1.00  0.00     0.010 A 
ENDBRANCH   1  27
TORSDOF 5
ENDMDL
MODEL 7
REMARK VINA RESULT:      -9.6      4.893      8.501
REMARK  5 active torsions:
REMARK  status: ('A' for Active; 'I' for Inactive)
REMARK    1  A    between atoms: C_5  and  C_6 
REMARK    2  A    between atoms: C_11  and  C_12 
REMARK       I    between atoms: C_12  and  N_13 
REMARK    3  A    between atoms: N_13  and  C_14 
REMARK    4  A    between atoms: C_16  and  O_17 
REMARK    5  A    between atoms: C_23  and  C_24 
ROOT
HETATM    1  C   UNL     1       6.628  25.568  55.000  1.00  0.00     0.118 C 
HETATM    2  N   UNL     1       5.278  25.741  54.454  1.00  0.00    -0.366 N 
HETATM    3  C   UNL     1       4.940  26.808  53.702  1.00  0.00     0.123 A 
HETATM    4  N   UNL     1       5.712  27.934  53.692  1.00  0.00    -0.240 N 
HETATM    5  N   UNL     1       5.339  28.849  52.780  1.00  0.00    -0.165 NA
HETATM    6  C   UNL     1       4.209  28.316  52.253  1.00  0.00     0.148 A 
HETATM    7  C   UNL     1       3.908  27.054  52.838  1.00  0.00     0.089 A 
HETATM    8  C   UNL     1       6.937  28.050  54.456  1.00  0.00     0.221 C 
HETATM    9  C   UNL     1       7.601  26.668  54.523  1.00  0.00     0.066 C 
HETATM   10  H   UNL     1       4.709  24.894  54.444  1.00  0.00     0.161 HD
ENDROOT
BRANCH   6  11
HETATM   11  C   UNL     1       3.464  28.983  51.168  1.00  0.00     0.276 C 
HETATM   12  N   UNL     1       3.349  28.173  50.057  1.00  0.00    -0.322 N 
HETATM   13  H   UNL     1       3.825  27.279  50.159  1.00  0.00     0.169 HD
HETATM   14  O   UNL     1       3.005  30.112  51.306  1.00  0.00    -0.266 OA
BRANCH  12  15
HETATM   15  C   UNL     1       2.641  28.413  48.867  1.00  0.00     0.037 A 
HETATM   16  C   UNL     1       3.035  29.346  47.905  1.00  0.00     0.066 A 
HETATM   17  C   UNL     1       2.260  29.532  46.762  1.00  0.00     0.067 A 
HETATM   18  C   UNL     1       1.096  28.802  46.557  1.00  0.00     0.036 A 
HETATM   19  C   UNL     1       0.698  27.869  47.511  1.00  0.00     0.005 A 
HETATM   20  C   UNL     1       1.468  27.676  48.661  1.00  0.00     0.029 A 
BRANCH  17  21
HETATM   21  O   UNL     1       2.614  30.439  45.806  1.00  0.00    -0.361 OA
HETATM   22  H   UNL     1       1.961  30.395  45.086  1.00  0.00     0.217 HD
ENDBRANCH  17  21
ENDBRANCH  12  15
ENDBRANCH   6  11
BRANCH   8  23
HETATM   23  C   UNL     1       6.651  28.632  55.821  1.00  0.00     0.409 C 
HETATM   24  F   UNL     1       6.777  29.977  55.841  1.00  0.00    -0.169 F 
HETATM   25  F   UNL     1       5.429  28.325  56.300  1.00  0.00    -0.169 F 
HETATM   26  F   UNL     1       7.549  28.148  56.720  1.00  0.00    -0.169 F 
ENDBRANCH   8  23
BRANCH   1  27
HETATM   27  C   UNL     1       7.158  24.198  54.607  1.00  0.00    -0.035 A 
HETATM   28  C   UNL     1       7.336  23.188  55.569  1.00  0.00     0.010 A 
HETATM   29  C   UNL     1       7.799  21.922  55.204  1.00  0.00     0.007 A 
HETATM   30  C   UNL     1       8.100  21.639  53.869  1.00  0.00    -0.062 A 
HETATM   31  C   UNL     1       8.561  20.268  53.471  1.00  0.00     0.048 C 
HETATM   32  C   UNL     1       7.908  22.633  52.904  1.00  0.00     0.007 A 
HETATM   33  C   UNL     1       7.446  23.902  53.268  1.00  0.00     0.010 A 
ENDBRANCH   1  27
TORSDOF 5
ENDMDL
MODEL 8
REMARK VINA RESULT:      -9.5      4.410      7.303
REMARK  5 active torsions:
REMARK  status: ('A' for Active; 'I' for Inactive)
REMARK    1  A    between atoms: C_5  and  C_6 
REMARK    2  A    between atoms: C_11  and  C_12 
REMARK       I    between atoms: C_12  and  N_13 
REMARK    3  A    between atoms: N_13  and  C_14 
REMARK    4  A    between atoms: C_16  and  O_17 
REMARK    5  A    between atoms: C_23  and  C_24 
ROOT
HETATM    1  C   UNL     1       6.495  25.051  55.522  1.00  0.00     0.118 C 
HETATM    2  N   UNL     1       5.326  25.533  54.779  1.00  0.00    -0.366 N 
HETATM    3  C   UNL     1       5.233  26.802  54.332  1.00  0.00     0.123 A 
HETATM    4  N   UNL     1       6.041  27.783  54.831  1.00  0.00    -0.240 N 
HETATM    5  N   UNL     1       5.944  28.958  54.183  1.00  0.00    -0.165 NA
HETATM    6  C   UNL     1       4.948  28.736  53.290  1.00  0.00     0.148 A 
HETATM    7  C   UNL     1       4.452  27.405  53.385  1.00  0.00     0.089 A 
HETATM    8  C   UNL     1       7.051  27.530  55.838  1.00  0.00     0.221 C 
HETATM    9  C   UNL     1       7.609  26.117  55.622  1.00  0.00     0.066 C 
HETATM   10  H   UNL     1       4.735  24.798  54.390  1.00  0.00     0.161 HD
ENDROOT
BRANCH   6  11
HETATM   11  C   UNL     1       4.520  29.767  52.326  1.00  0.00     0.276 C 
HETATM   12  N   UNL     1       5.450  29.943  51.321  1.00  0.00    -0.322 N 
HETATM   13  H   UNL     1       6.281  29.366  51.437  1.00  0.00     0.169 HD
HETATM   14  O   UNL     1       3.445  30.346  52.442  1.00  0.00    -0.266 OA
BRANCH  12  15
HETATM   15  C   UNL     1       5.365  30.761  50.182  1.00  0.00     0.037 A 
HETATM   16  C   UNL     1       4.926  30.310  48.935  1.00  0.00     0.066 A 
HETATM   17  C   UNL     1       4.893  31.189  47.854  1.00  0.00     0.067 A 
HETATM   18  C   UNL     1       5.288  32.514  47.992  1.00  0.00     0.036 A 
HETATM   19  C   UNL     1       5.725  32.970  49.233  1.00  0.00     0.005 A 
HETATM   20  C   UNL     1       5.763  32.096  50.323  1.00  0.00     0.029 A 
BRANCH  17  21
HETATM   21  O   UNL     1       4.475  30.780  46.620  1.00  0.00    -0.361 OA
HETATM   22  H   UNL     1       5.059  30.059  46.324  1.00  0.00     0.217 HD
ENDBRANCH  17  21
ENDBRANCH  12  15
ENDBRANCH   6  11
BRANCH   8  23
HETATM   23  C   UNL     1       6.475  27.730  57.220  1.00  0.00     0.409 C 
HETATM   24  F   UNL     1       6.673  28.985  57.681  1.00  0.00    -0.169 F 
HETATM   25  F   UNL     1       5.156  27.463  57.307  1.00  0.00    -0.169 F 
HETATM   26  F   UNL     1       7.095  26.897  58.097  1.00  0.00    -0.169 F 
ENDBRANCH   8  23
BRANCH   1  27
HETATM   27  C   UNL     1       7.035  23.797  54.855  1.00  0.00    -0.035 A 
HETATM   28  C   UNL     1       7.226  23.743  53.463  1.00  0.00     0.010 A 
HETATM   29  C   UNL     1       7.745  22.599  52.852  1.00  0.00     0.007 A 
HETATM   30  C   UNL     1       8.080  21.481  53.620  1.00  0.00    -0.062 A 
HETATM   31  C   UNL     1       8.674  20.266  52.969  1.00  0.00     0.048 C 
HETATM   32  C   UNL     1       7.911  21.533  55.008  1.00  0.00     0.007 A 
HETATM   33  C   UNL     1       7.389  22.677  55.620  1.00  0.00     0.010 A 
ENDBRANCH   1  27
TORSDOF 5
ENDMDL
MODEL 9
REMARK VINA RESULT:      -9.5      2.749      3.970
REMARK  5 active torsions:
REMARK  status: ('A' for Active; 'I' for Inactive)
REMARK    1  A    between atoms: C_5  and  C_6 
REMARK    2  A    between atoms: C_11  and  C_12 
REMARK       I    between atoms: C_12  and  N_13 
REMARK    3  A    between atoms: N_13  and  C_14 
REMARK    4  A    between atoms: C_16  and  O_17 
REMARK    5  A    between atoms: C_23  and  C_24 
ROOT
HETATM    1  C   UNL     1       5.725  26.069  53.982  1.00  0.00     0.118 C 
HETATM    2  N   UNL     1       5.438  27.153  54.927  1.00  0.00    -0.366 N 
HETATM    3  C   UNL     1       6.342  27.570  55.837  1.00  0.00     0.123 A 
HETATM    4  N   UNL     1       7.421  26.799  56.159  1.00  0.00    -0.240 N 
HETATM    5  N   UNL     1       8.314  27.409  56.959  1.00  0.00    -0.165 NA
HETATM    6  C   UNL     1       7.717  28.594  57.239  1.00  0.00     0.148 A 
HETATM    7  C   UNL     1       6.459  28.710  56.583  1.00  0.00     0.089 A 
HETATM    8  C   UNL     1       7.679  25.515  55.539  1.00  0.00     0.221 C 
HETATM    9  C   UNL     1       7.182  25.567  54.089  1.00  0.00     0.066 C 
HETATM   10  H   UNL     1       4.642  27.740  54.674  1.00  0.00     0.161 HD
ENDROOT
BRANCH   6  11
HETATM   11  C   UNL     1       8.370  29.617  58.077  1.00  0.00     0.276 C 
HETATM   12  N   UNL     1       7.584  29.970  59.155  1.00  0.00    -0.322 N 
HETATM   13  H   UNL     1       6.682  29.499  59.167  1.00  0.00     0.169 HD
HETATM   14  O   UNL     1       9.488  30.045  57.811  1.00  0.00    -0.266 OA
BRANCH  12  15
HETATM   15  C   UNL     1       7.892  30.837  60.218  1.00  0.00     0.037 A 
HETATM   16  C   UNL     1       7.105  31.933  60.577  1.00  0.00     0.066 A 
HETATM   17  C   UNL     1       7.500  32.751  61.635  1.00  0.00     0.067 A 
HETATM   18  C   UNL     1       8.666  32.495  62.345  1.00  0.00     0.036 A 
HETATM   19  C   UNL     1       9.454  31.402  61.993  1.00  0.00     0.005 A 
HETATM   20  C   UNL     1       9.068  30.577  60.933  1.00  0.00     0.029 A 
BRANCH  17  21
HETATM   21  O   UNL     1       6.757  33.834  62.008  1.00  0.00    -0.361 OA
HETATM   22  H   UNL     1       5.900  33.789  61.548  1.00  0.00     0.217 HD
ENDBRANCH  17  21
ENDBRANCH  12  15
ENDBRANCH   6  11
BRANCH   8  23
HETATM   23  C   UNL     1       7.039  24.407  56.342  1.00  0.00     0.409 C 
HETATM   24  F   UNL     1       5.986  24.843  57.068  1.00  0.00    -0.169 F 
HETATM   25  F   UNL     1       6.623  23.363  55.598  1.00  0.00    -0.169 F 
HETATM   26  F   UNL     1       7.940  23.911  57.232  1.00  0.00    -0.169 F 
ENDBRANCH   8  23
BRANCH   1  27
HETATM   27  C   UNL     1       5.443  26.547  52.566  1.00  0.00    -0.035 A 
HETATM   28  C   UNL     1       5.491  27.914  52.241  1.00  0.00     0.010 A 
HETATM   29  C   UNL     1       5.256  28.350  50.936  1.00  0.00     0.007 A 
HETATM   30  C   UNL     1       4.963  27.430  49.926  1.00  0.00    -0.062 A 
HETATM   31  C   UNL     1       4.749  27.895  48.516  1.00  0.00     0.048 C 
HETATM   32  C   UNL     1       4.932  26.066  50.238  1.00  0.00     0.007 A 
HETATM   33  C   UNL     1       5.165  25.628  51.545  1.00  0.00     0.010 A 
ENDBRANCH   1  27
TORSDOF 5
ENDMDL
MODEL 10
REMARK VINA RESULT:      -9.4      6.474      9.584
REMARK  5 active torsions:
REMARK  status: ('A' for Active; 'I' for Inactive)
REMARK    1  A    between atoms: C_5  and  C_6 
REMARK    2  A    between atoms: C_11  and  C_12 
REMARK       I    between atoms: C_12  and  N_13 
REMARK    3  A    between atoms: N_13  and  C_14 
REMARK    4  A    between atoms: C_16  and  O_17 
REMARK    5  A    between atoms: C_23  and  C_24 
ROOT
HETATM    1  C   UNL     1       4.156  29.127  48.851  1.00  0.00     0.118 C 
HETATM    2  N   UNL     1       4.001  28.847  50.282  1.00  0.00    -0.366 N 
HETATM    3  C   UNL     1       4.431  27.696  50.839  1.00  0.00     0.123 A 
HETATM    4  N   UNL     1       4.715  26.606  50.068  1.00  0.00    -0.240 N 
HETATM    5  N   UNL     1       5.281  25.589  50.742  1.00  0.00    -0.165 NA
HETATM    6  C   UNL     1       5.262  26.021  52.026  1.00  0.00     0.148 A 
HETATM    7  C   UNL     1       4.697  27.324  52.128  1.00  0.00     0.089 A 
HETATM    8  C   UNL     1       4.600  26.616  48.624  1.00  0.00     0.221 C 
HETATM    9  C   UNL     1       4.949  28.022  48.118  1.00  0.00     0.066 C 
HETATM   10  H   UNL     1       3.807  29.666  50.859  1.00  0.00     0.161 HD
ENDROOT
BRANCH   6  11
HETATM   11  C   UNL     1       5.826  25.219  53.128  1.00  0.00     0.276 C 
HETATM   12  N   UNL     1       6.731  24.285  52.667  1.00  0.00    -0.322 N 
HETATM   13  H   UNL     1       6.824  24.282  51.653  1.00  0.00     0.169 HD
HETATM   14  O   UNL     1       5.510  25.422  54.296  1.00  0.00    -0.266 OA
BRANCH  12  15
HETATM   15  C   UNL     1       7.537  23.405  53.408  1.00  0.00     0.037 A 
HETATM   16  C   UNL     1       7.742  22.066  53.066  1.00  0.00     0.066 A 
HETATM   17  C   UNL     1       8.544  21.260  53.873  1.00  0.00     0.067 A 
HETATM   18  C   UNL     1       9.148  21.765  55.018  1.00  0.00     0.036 A 
HETATM   19  C   UNL     1       8.949  23.099  55.364  1.00  0.00     0.005 A 
HETATM   20  C   UNL     1       8.146  23.915  54.562  1.00  0.00     0.029 A 
BRANCH  17  21
HETATM   21  O   UNL     1       8.760  19.947  53.570  1.00  0.00    -0.361 OA
HETATM   22  H   UNL     1       8.445  19.787  52.663  1.00  0.00     0.217 HD
ENDBRANCH  17  21
ENDBRANCH  12  15
ENDBRANCH   6  11
BRANCH   8  23
HETATM   23  C   UNL     1       3.220  26.166  48.206  1.00  0.00     0.409 C 
HETATM   24  F   UNL     1       3.022  24.847  48.425  1.00  0.00    -0.169 F 
HETATM   25  F   UNL     1       2.219  26.839  48.809  1.00  0.00    -0.169 F 
HETATM   26  F   UNL     1       3.063  26.361  46.869  1.00  0.00    -0.169 F 
ENDBRANCH   8  23
BRANCH   1  27
HETATM   27  C   UNL     1       4.849  30.469  48.673  1.00  0.00    -0.035 A 
HETATM   28  C   UNL     1       5.778  30.935  49.620  1.00  0.00     0.010 A 
HETATM   29  C   UNL     1       6.432  32.155  49.444  1.00  0.00     0.007 A 
HETATM   30  C   UNL     1       6.170  32.941  48.318  1.00  0.00    -0.062 A 
HETATM   31  C   UNL     1       6.901  34.234  48.109  1.00  0.00     0.048 C 
HETATM   32  C   UNL     1       5.261  32.475  47.362  1.00  0.00     0.007 A 
HETATM   33  C   UNL     1       4.603  31.254  47.538  1.00  0.00     0.010 A 
ENDBRANCH   1  27
TORSDOF 5
ENDMDL
