MODEL 1
REMARK VINA RESULT:      -9.7      0.000      0.000
REMARK  6 active torsions:
REMARK  status: ('A' for Active; 'I' for Inactive)
REMARK    1  A    between atoms: O_2  and  C_3 
REMARK    2  A    between atoms: C_6  and  C_7 
REMARK    3  A    between atoms: C_13  and  C_14 
REMARK       I    between atoms: C_14  and  N_15 
REMARK    4  A    between atoms: N_15  and  C_16 
REMARK    5  A    between atoms: C_18  and  O_19 
REMARK    6  A    between atoms: C_24  and  C_25 
ROOT
HETATM    1  C   UNL     1       5.795  25.828  54.974  1.00  0.00     0.118 C 
HETATM    2  N   UNL     1       6.460  26.810  55.846  1.00  0.00    -0.365 N 
HETATM    3  C   UNL     1       5.890  28.042  55.983  1.00  0.00     0.138 C 
HETATM    4  N   UNL     1       4.882  28.455  55.136  1.00  0.00    -0.240 N 
HETATM    5  N   UNL     1       4.298  29.600  55.518  1.00  0.00    -0.181 NA
HETATM    6  C   UNL     1       5.058  30.010  56.533  1.00  0.00     0.160 C 
HETATM    7  C   UNL     1       6.093  29.098  56.858  1.00  0.00     0.096 C 
HETATM    8  C   UNL     1       4.330  27.657  54.057  1.00  0.00     0.221 C 
HETATM    9  C   UNL     1       5.292  26.516  53.700  1.00  0.00     0.066 C 
HETATM   10  H   UNL     1       6.820  26.355  56.687  1.00  0.00     0.161 HD
ENDROOT
BRANCH   7  11
HETATM   11  C   UNL     1       7.082  29.294  57.906  1.00  0.00     0.261 C 
HETATM   12  N   UNL     1       7.072  30.558  58.465  1.00  0.00    -0.323 N 
HETATM   13  H   UNL     1       6.363  31.189  58.111  1.00  0.00     0.169 HD
HETATM   14  O   UNL     1       7.819  28.371  58.237  1.00  0.00    -0.267 OA
BRANCH  12  15
HETATM   15  C   UNL     1       7.896  31.047  59.502  1.00  0.00     0.037 A 
HETATM   16  C   UNL     1       7.480  31.184  60.830  1.00  0.00     0.066 A 
HETATM   17  C   UNL     1       8.361  31.686  61.787  1.00  0.00     0.067 A 
HETATM   18  C   UNL     1       9.659  32.045  61.449  1.00  0.00     0.036 A 
HETATM   19  C   UNL     1      10.083  31.910  60.130  1.00  0.00     0.005 A 
HETATM   20  C   UNL     1       9.202  31.421  59.159  1.00  0.00     0.029 A 
BRANCH  17  21
HETATM   21  O   UNL     1       7.976  31.849  63.086  1.00  0.00    -0.361 OA
HETATM   22  H   UNL     1       8.767  31.802  63.649  1.00  0.00     0.217 HD
ENDBRANCH  17  21
ENDBRANCH  12  15
ENDBRANCH   7  11
BRANCH   1  23
HETATM   23  C   UNL     1       6.750  24.704  54.621  1.00  0.00    -0.035 A 
HETATM   24  C   UNL     1       7.510  24.085  55.625  1.00  0.00     0.012 A 
HETATM   25  C   UNL     1       8.325  22.984  55.336  1.00  0.00     0.037 A 
HETATM   26  C   UNL     1       8.388  22.480  54.038  1.00  0.00     0.068 A 
HETATM   27  C   UNL     1       7.656  23.105  53.028  1.00  0.00     0.037 A 
HETATM   28  C   UNL     1       6.841  24.204  53.313  1.00  0.00     0.012 A 
BRANCH  26  29
HETATM   29  O   UNL     1       9.121  21.399  53.633  1.00  0.00    -0.356 OA
HETATM   30  C   UNL     1       8.430  20.401  52.891  1.00  0.00     0.210 C 
ENDBRANCH  26  29
ENDBRANCH   1  23
BRANCH   8  31
HETATM   31  C   UNL     1       4.048  28.486  52.822  1.00  0.00     0.409 C 
HETATM   32  F   UNL     1       4.929  29.501  52.670  1.00  0.00    -0.169 F 
HETATM   33  F   UNL     1       4.167  27.701  51.716  1.00  0.00    -0.169 F 
HETATM   34  F   UNL     1       2.800  28.994  52.785  1.00  0.00    -0.169 F 
ENDBRANCH   8  31
TORSDOF 6
ENDMDL
MODEL 2
REMARK VINA RESULT:      -9.6      4.590      8.391
REMARK  6 active torsions:
REMARK  status: ('A' for Active; 'I' for Inactive)
REMARK    1  A    between atoms: O_2  and  C_3 
REMARK    2  A    between atoms: C_6  and  C_7 
REMARK    3  A    between atoms: C_13  and  C_14 
REMARK       I    between atoms: C_14  and  N_15 
REMARK    4  A    between atoms: N_15  and  C_16 
REMARK    5  A    between atoms: C_18  and  O_19 
REMARK    6  A    between atoms: C_24  and  C_25 
ROOT
HETATM    1  C   UNL     1       7.047  26.227  53.940  1.00  0.00     0.118 C 
HETATM    2  N   UNL     1       6.196  26.530  52.778  1.00  0.00    -0.365 N 
HETATM    3  C   UNL     1       5.520  27.716  52.765  1.00  0.00     0.138 C 
HETATM    4  N   UNL     1       5.415  28.485  53.906  1.00  0.00    -0.240 N 
HETATM    5  N   UNL     1       4.894  29.700  53.687  1.00  0.00    -0.181 NA
HETATM    6  C   UNL     1       4.505  29.643  52.413  1.00  0.00     0.160 C 
HETATM    7  C   UNL     1       4.838  28.417  51.783  1.00  0.00     0.096 C 
HETATM    8  C   UNL     1       5.997  28.141  55.191  1.00  0.00     0.221 C 
HETATM    9  C   UNL     1       6.336  26.644  55.232  1.00  0.00     0.066 C 
HETATM   10  H   UNL     1       6.652  26.233  51.913  1.00  0.00     0.161 HD
ENDROOT
BRANCH   7  11
HETATM   11  C   UNL     1       4.520  28.071  50.407  1.00  0.00     0.261 C 
HETATM   12  N   UNL     1       3.181  27.814  50.182  1.00  0.00    -0.323 N 
HETATM   13  H   UNL     1       2.572  27.927  50.983  1.00  0.00     0.169 HD
HETATM   14  O   UNL     1       5.406  28.049  49.559  1.00  0.00    -0.267 OA
BRANCH  12  15
HETATM   15  C   UNL     1       2.565  27.467  48.960  1.00  0.00     0.037 A 
HETATM   16  C   UNL     1       2.976  26.400  48.155  1.00  0.00     0.066 A 
HETATM   17  C   UNL     1       2.313  26.137  46.957  1.00  0.00     0.067 A 
HETATM   18  C   UNL     1       1.236  26.911  46.548  1.00  0.00     0.036 A 
HETATM   19  C   UNL     1       0.818  27.974  47.344  1.00  0.00     0.005 A 
HETATM   20  C   UNL     1       1.485  28.256  48.541  1.00  0.00     0.029 A 
BRANCH  17  21
HETATM   21  O   UNL     1       2.705  25.114  46.142  1.00  0.00    -0.361 OA
HETATM   22  H   UNL     1       3.436  24.641  46.574  1.00  0.00     0.217 HD
ENDBRANCH  17  21
ENDBRANCH  12  15
ENDBRANCH   7  11
BRANCH   1  23
HETATM   23  C   UNL     1       7.378  24.747  53.979  1.00  0.00    -0.035 A 
HETATM   24  C   UNL     1       7.256  24.030  55.179  1.00  0.00     0.012 A 
HETATM   25  C   UNL     1       7.463  22.646  55.214  1.00  0.00     0.037 A 
HETATM   26  C   UNL     1       7.790  21.955  54.048  1.00  0.00     0.068 A 
HETATM   27  C   UNL     1       7.939  22.664  52.856  1.00  0.00     0.037 A 
HETATM   28  C   UNL     1       7.732  24.045  52.817  1.00  0.00     0.012 A 
BRANCH  26  29
HETATM   29  O   UNL     1       7.990  20.606  53.945  1.00  0.00    -0.356 OA
HETATM   30  C   UNL     1       8.794  20.001  54.951  1.00  0.00     0.210 C 
ENDBRANCH  26  29
ENDBRANCH   1  23
BRANCH   8  31
HETATM   31  C   UNL     1       5.075  28.482  56.342  1.00  0.00     0.409 C 
HETATM   32  F   UNL     1       3.779  28.211  56.064  1.00  0.00    -0.169 F 
HETATM   33  F   UNL     1       5.405  27.723  57.424  1.00  0.00    -0.169 F 
HETATM   34  F   UNL     1       5.166  29.765  56.747  1.00  0.00    -0.169 F 
ENDBRANCH   8  31
TORSDOF 6
ENDMDL
MODEL 3
REMARK VINA RESULT:      -9.4      4.136      9.267
REMARK  6 active torsions:
REMARK  status: ('A' for Active; 'I' for Inactive)
REMARK    1  A    between atoms: O_2  and  C_3 
REMARK    2  A    between atoms: C_6  and  C_7 
REMARK    3  A    between atoms: C_13  and  C_14 
REMARK       I    between atoms: C_14  and  N_15 
REMARK    4  A    between atoms: N_15  and  C_16 
REMARK    5  A    between atoms: C_18  and  O_19 
REMARK    6  A    between atoms: C_24  and  C_25 
ROOT
HETATM    1  C   UNL     1       6.439  27.244  56.896  1.00  0.00     0.118 C 
HETATM    2  N   UNL     1       6.111  27.337  55.463  1.00  0.00    -0.365 N 
HETATM    3  C   UNL     1       6.110  26.189  54.725  1.00  0.00     0.138 C 
HETATM    4  N   UNL     1       6.654  25.024  55.226  1.00  0.00    -0.240 N 
HETATM    5  N   UNL     1       6.404  23.947  54.468  1.00  0.00    -0.181 NA
HETATM    6  C   UNL     1       5.833  24.464  53.379  1.00  0.00     0.160 C 
HETATM    7  C   UNL     1       5.647  25.866  53.459  1.00  0.00     0.096 C 
HETATM    8  C   UNL     1       7.253  24.890  56.541  1.00  0.00     0.221 C 
HETATM    9  C   UNL     1       7.606  26.274  57.103  1.00  0.00     0.066 C 
HETATM   10  H   UNL     1       5.349  28.001  55.313  1.00  0.00     0.161 HD
ENDROOT
BRANCH   7  11
HETATM   11  C   UNL     1       5.068  26.694  52.413  1.00  0.00     0.261 C 
HETATM   12  N   UNL     1       5.430  26.324  51.132  1.00  0.00    -0.323 N 
HETATM   13  H   UNL     1       6.024  25.507  51.063  1.00  0.00     0.169 HD
HETATM   14  O   UNL     1       4.311  27.614  52.706  1.00  0.00    -0.267 OA
BRANCH  12  15
HETATM   15  C   UNL     1       5.026  26.920  49.918  1.00  0.00     0.037 A 
HETATM   16  C   UNL     1       4.298  26.254  48.927  1.00  0.00     0.066 A 
HETATM   17  C   UNL     1       3.950  26.921  47.753  1.00  0.00     0.067 A 
HETATM   18  C   UNL     1       4.303  28.248  47.550  1.00  0.00     0.036 A 
HETATM   19  C   UNL     1       5.026  28.920  48.531  1.00  0.00     0.005 A 
HETATM   20  C   UNL     1       5.393  28.256  49.707  1.00  0.00     0.029 A 
BRANCH  17  21
HETATM   21  O   UNL     1       3.256  26.290  46.760  1.00  0.00    -0.361 OA
HETATM   22  H   UNL     1       3.654  25.414  46.617  1.00  0.00     0.217 HD
ENDBRANCH  17  21
ENDBRANCH  12  15
ENDBRANCH   7  11
BRANCH   1  23
HETATM   23  C   UNL     1       6.790  28.613  57.446  1.00  0.00    -0.035 A 
HETATM   24  C   UNL     1       5.852  29.655  57.390  1.00  0.00     0.012 A 
HETATM   25  C   UNL     1       6.121  30.897  57.977  1.00  0.00     0.037 A 
HETATM   26  C   UNL     1       7.330  31.115  58.636  1.00  0.00     0.068 A 
HETATM   27  C   UNL     1       8.279  30.093  58.674  1.00  0.00     0.037 A 
HETATM   28  C   UNL     1       8.014  28.852  58.089  1.00  0.00     0.012 A 
BRANCH  26  29
HETATM   29  O   UNL     1       7.701  32.268  59.271  1.00  0.00    -0.356 OA
HETATM   30  C   UNL     1       8.871  32.205  60.078  1.00  0.00     0.210 C 
ENDBRANCH  26  29
ENDBRANCH   1  23
BRANCH   8  31
HETATM   31  C   UNL     1       8.494  24.023  56.515  1.00  0.00     0.409 C 
HETATM   32  F   UNL     1       9.045  23.946  55.283  1.00  0.00    -0.169 F 
HETATM   33  F   UNL     1       9.440  24.566  57.329  1.00  0.00    -0.169 F 
HETATM   34  F   UNL     1       8.288  22.770  56.970  1.00  0.00    -0.169 F 
ENDBRANCH   8  31
TORSDOF 6
ENDMDL
MODEL 4
REMARK VINA RESULT:      -9.3      3.697      5.664
REMARK  6 active torsions:
REMARK  status: ('A' for Active; 'I' for Inactive)
REMARK    1  A    between atoms: O_2  and  C_3 
REMARK    2  A    between atoms: C_6  and  C_7 
REMARK    3  A    between atoms: C_13  and  C_14 
REMARK       I    between atoms: C_14  and  N_15 
REMARK    4  A    between atoms: N_15  and  C_16 
REMARK    5  A    between atoms: C_18  and  O_19 
REMARK    6  A    between atoms: C_24  and  C_25 
ROOT
HETATM    1  C   UNL     1       7.415  25.529  52.939  1.00  0.00     0.118 C 
HETATM    2  N   UNL     1       7.386  25.994  54.336  1.00  0.00    -0.365 N 
HETATM    3  C   UNL     1       8.006  25.232  55.284  1.00  0.00     0.138 C 
HETATM    4  N   UNL     1       8.413  23.944  55.002  1.00  0.00    -0.240 N 
HETATM    5  N   UNL     1       9.173  23.401  55.964  1.00  0.00    -0.181 NA
HETATM    6  C   UNL     1       9.110  24.298  56.949  1.00  0.00     0.160 C 
HETATM    7  C   UNL     1       8.369  25.455  56.602  1.00  0.00     0.096 C 
HETATM    8  C   UNL     1       8.245  23.285  53.720  1.00  0.00     0.221 C 
HETATM    9  C   UNL     1       7.182  24.015  52.888  1.00  0.00     0.066 C 
HETATM   10  H   UNL     1       7.516  27.007  54.378  1.00  0.00     0.161 HD
ENDROOT
BRANCH   7  11
HETATM   11  C   UNL     1       8.121  26.584  57.485  1.00  0.00     0.261 C 
HETATM   12  N   UNL     1       8.596  27.791  57.008  1.00  0.00    -0.323 N 
HETATM   13  H   UNL     1       9.029  27.762  56.093  1.00  0.00     0.169 HD
HETATM   14  O   UNL     1       7.516  26.419  58.539  1.00  0.00    -0.267 OA
BRANCH  12  15
HETATM   15  C   UNL     1       8.500  29.058  57.624  1.00  0.00     0.037 A 
HETATM   16  C   UNL     1       9.589  29.911  57.828  1.00  0.00     0.066 A 
HETATM   17  C   UNL     1       9.400  31.142  58.455  1.00  0.00     0.067 A 
HETATM   18  C   UNL     1       8.141  31.548  58.874  1.00  0.00     0.036 A 
HETATM   19  C   UNL     1       7.050  30.707  58.673  1.00  0.00     0.005 A 
HETATM   20  C   UNL     1       7.230  29.463  58.058  1.00  0.00     0.029 A 
BRANCH  17  21
HETATM   21  O   UNL     1      10.448  31.986  58.685  1.00  0.00    -0.361 OA
HETATM   22  H   UNL     1      10.105  32.894  58.735  1.00  0.00     0.217 HD
ENDBRANCH  17  21
ENDBRANCH  12  15
ENDBRANCH   7  11
BRANCH   1  23
HETATM   23  C   UNL     1       6.362  26.250  52.122  1.00  0.00    -0.035 A 
HETATM   24  C   UNL     1       6.031  27.582  52.417  1.00  0.00     0.012 A 
HETATM   25  C   UNL     1       5.132  28.295  51.615  1.00  0.00     0.037 A 
HETATM   26  C   UNL     1       4.553  27.690  50.500  1.00  0.00     0.068 A 
HETATM   27  C   UNL     1       4.855  26.358  50.215  1.00  0.00     0.037 A 
HETATM   28  C   UNL     1       5.753  25.643  51.013  1.00  0.00     0.012 A 
BRANCH  26  29
HETATM   29  O   UNL     1       3.685  28.283  49.626  1.00  0.00    -0.356 OA
HETATM   30  C   UNL     1       2.931  27.417  48.788  1.00  0.00     0.210 C 
ENDBRANCH  26  29
ENDBRANCH   1  23
BRANCH   8  31
HETATM   31  C   UNL     1       7.856  21.831  53.874  1.00  0.00     0.409 C 
HETATM   32  F   UNL     1       7.139  21.373  52.823  1.00  0.00    -0.169 F 
HETATM   33  F   UNL     1       8.981  21.067  53.937  1.00  0.00    -0.169 F 
HETATM   34  F   UNL     1       7.169  21.571  55.005  1.00  0.00    -0.169 F 
ENDBRANCH   8  31
TORSDOF 6
ENDMDL
MODEL 5
REMARK VINA RESULT:      -8.9      3.597      5.395
REMARK  6 active torsions:
REMARK  status: ('A' for Active; 'I' for Inactive)
REMARK    1  A    between atoms: O_2  and  C_3 
REMARK    2  A    between atoms: C_6  and  C_7 
REMARK    3  A    between atoms: C_13  and  C_14 
REMARK       I    between atoms: C_14  and  N_15 
REMARK    4  A    between atoms: N_15  and  C_16 
REMARK    5  A    between atoms: C_18  and  O_19 
REMARK    6  A    between atoms: C_24  and  C_25 
ROOT
HETATM    1  C   UNL     1       6.978  26.234  52.878  1.00  0.00     0.118 C 
HETATM    2  N   UNL     1       6.683  26.815  54.198  1.00  0.00    -0.365 N 
HETATM    3  C   UNL     1       7.267  26.252  55.296  1.00  0.00     0.138 C 
HETATM    4  N   UNL     1       7.894  25.026  55.216  1.00  0.00    -0.240 N 
HETATM    5  N   UNL     1       8.580  24.702  56.320  1.00  0.00    -0.181 NA
HETATM    6  C   UNL     1       8.248  25.663  57.182  1.00  0.00     0.160 C 
HETATM    7  C   UNL     1       7.402  26.651  56.617  1.00  0.00     0.096 C 
HETATM    8  C   UNL     1       8.008  24.234  54.005  1.00  0.00     0.221 C 
HETATM    9  C   UNL     1       6.978  24.705  52.968  1.00  0.00     0.066 C 
HETATM   10  H   UNL     1       6.657  27.835  54.142  1.00  0.00     0.161 HD
ENDROOT
BRANCH   7  11
HETATM   11  C   UNL     1       6.869  27.802  57.328  1.00  0.00     0.261 C 
HETATM   12  N   UNL     1       7.829  28.703  57.748  1.00  0.00    -0.323 N 
HETATM   13  H   UNL     1       8.782  28.482  57.486  1.00  0.00     0.169 HD
HETATM   14  O   UNL     1       5.659  27.917  57.491  1.00  0.00    -0.267 OA
BRANCH  12  15
HETATM   15  C   UNL     1       7.626  29.913  58.446  1.00  0.00     0.037 A 
HETATM   16  C   UNL     1       6.705  30.891  58.060  1.00  0.00     0.066 A 
HETATM   17  C   UNL     1       6.579  32.062  58.807  1.00  0.00     0.067 A 
HETATM   18  C   UNL     1       7.348  32.274  59.943  1.00  0.00     0.036 A 
HETATM   19  C   UNL     1       8.266  31.305  60.337  1.00  0.00     0.005 A 
HETATM   20  C   UNL     1       8.410  30.133  59.586  1.00  0.00     0.029 A 
BRANCH  17  21
HETATM   21  O   UNL     1       5.702  33.042  58.442  1.00  0.00    -0.361 OA
HETATM   22  H   UNL     1       4.921  32.623  58.044  1.00  0.00     0.217 HD
ENDBRANCH  17  21
ENDBRANCH  12  15
ENDBRANCH   7  11
BRANCH   1  23
HETATM   23  C   UNL     1       5.957  26.699  51.858  1.00  0.00    -0.035 A 
HETATM   24  C   UNL     1       5.573  28.048  51.811  1.00  0.00     0.012 A 
HETATM   25  C   UNL     1       4.706  28.516  50.817  1.00  0.00     0.037 A 
HETATM   26  C   UNL     1       4.213  27.643  49.848  1.00  0.00     0.068 A 
HETATM   27  C   UNL     1       4.568  26.294  49.902  1.00  0.00     0.037 A 
HETATM   28  C   UNL     1       5.435  25.825  50.893  1.00  0.00     0.012 A 
BRANCH  26  29
HETATM   29  O   UNL     1       3.385  27.978  48.813  1.00  0.00    -0.356 OA
HETATM   30  C   UNL     1       3.266  29.364  48.513  1.00  0.00     0.210 C 
ENDBRANCH  26  29
ENDBRANCH   1  23
BRANCH   8  31
HETATM   31  C   UNL     1       7.817  22.756  54.271  1.00  0.00     0.409 C 
HETATM   32  F   UNL     1       6.937  22.520  55.270  1.00  0.00    -0.169 F 
HETATM   33  F   UNL     1       7.309  22.159  53.158  1.00  0.00    -0.169 F 
HETATM   34  F   UNL     1       8.964  22.104  54.551  1.00  0.00    -0.169 F 
ENDBRANCH   8  31
TORSDOF 6
ENDMDL
MODEL 6
REMARK VINA RESULT:      -8.9      1.885      8.342
REMARK  6 active torsions:
REMARK  status: ('A' for Active; 'I' for Inactive)
REMARK    1  A    between atoms: O_2  and  C_3 
REMARK    2  A    between atoms: C_6  and  C_7 
REMARK    3  A    between atoms: C_13  and  C_14 
REMARK       I    between atoms: C_14  and  N_15 
REMARK    4  A    between atoms: N_15  and  C_16 
REMARK    5  A    between atoms: C_18  and  O_19 
REMARK    6  A    between atoms: C_24  and  C_25 
ROOT
HETATM    1  C   UNL     1       6.809  30.773  57.741  1.00  0.00     0.118 C 
HETATM    2  N   UNL     1       6.972  29.347  57.419  1.00  0.00    -0.365 N 
HETATM    3  C   UNL     1       6.284  28.842  56.353  1.00  0.00     0.138 C 
HETATM    4  N   UNL     1       5.267  29.564  55.761  1.00  0.00    -0.240 N 
HETATM    5  N   UNL     1       4.824  29.024  54.617  1.00  0.00    -0.181 NA
HETATM    6  C   UNL     1       5.454  27.850  54.567  1.00  0.00     0.160 C 
HETATM    7  C   UNL     1       6.360  27.657  55.639  1.00  0.00     0.096 C 
HETATM    8  C   UNL     1       4.840  30.886  56.179  1.00  0.00     0.221 C 
HETATM    9  C   UNL     1       5.337  31.176  57.602  1.00  0.00     0.066 C 
HETATM   10  H   UNL     1       7.948  29.063  57.532  1.00  0.00     0.161 HD
ENDROOT
BRANCH   7  11
HETATM   11  C   UNL     1       7.168  26.465  55.847  1.00  0.00     0.261 C 
HETATM   12  N   UNL     1       6.853  25.414  55.007  1.00  0.00    -0.323 N 
HETATM   13  H   UNL     1       6.129  25.599  54.325  1.00  0.00     0.169 HD
HETATM   14  O   UNL     1       8.052  26.463  56.697  1.00  0.00    -0.267 OA
BRANCH  12  15
HETATM   15  C   UNL     1       7.461  24.141  54.958  1.00  0.00     0.037 A 
HETATM   16  C   UNL     1       7.592  23.296  56.065  1.00  0.00     0.066 A 
HETATM   17  C   UNL     1       8.217  22.057  55.924  1.00  0.00     0.067 A 
HETATM   18  C   UNL     1       8.704  21.635  54.695  1.00  0.00     0.036 A 
HETATM   19  C   UNL     1       8.576  22.468  53.587  1.00  0.00     0.005 A 
HETATM   20  C   UNL     1       7.964  23.719  53.720  1.00  0.00     0.029 A 
BRANCH  17  21
HETATM   21  O   UNL     1       8.376  21.221  56.992  1.00  0.00    -0.361 OA
HETATM   22  H   UNL     1       9.159  20.667  56.833  1.00  0.00     0.217 HD
ENDBRANCH  17  21
ENDBRANCH  12  15
ENDBRANCH   7  11
BRANCH   1  23
HETATM   23  C   UNL     1       7.299  31.054  59.149  1.00  0.00    -0.035 A 
HETATM   24  C   UNL     1       8.453  30.419  59.632  1.00  0.00     0.012 A 
HETATM   25  C   UNL     1       8.975  30.737  60.892  1.00  0.00     0.037 A 
HETATM   26  C   UNL     1       8.354  31.699  61.687  1.00  0.00     0.068 A 
HETATM   27  C   UNL     1       7.191  32.316  61.226  1.00  0.00     0.037 A 
HETATM   28  C   UNL     1       6.668  32.002  59.968  1.00  0.00     0.012 A 
BRANCH  26  29
HETATM   29  O   UNL     1       8.778  32.116  62.918  1.00  0.00    -0.356 OA
HETATM   30  C   UNL     1       7.827  32.806  63.721  1.00  0.00     0.210 C 
ENDBRANCH  26  29
ENDBRANCH   1  23
BRANCH   8  31
HETATM   31  C   UNL     1       3.335  31.041  56.128  1.00  0.00     0.409 C 
HETATM   32  F   UNL     1       2.693  30.086  56.837  1.00  0.00    -0.169 F 
HETATM   33  F   UNL     1       2.986  32.235  56.682  1.00  0.00    -0.169 F 
HETATM   34  F   UNL     1       2.835  31.052  54.876  1.00  0.00    -0.169 F 
ENDBRANCH   8  31
TORSDOF 6
ENDMDL
MODEL 7
REMARK VINA RESULT:      -8.7      4.295      9.151
REMARK  6 active torsions:
REMARK  status: ('A' for Active; 'I' for Inactive)
REMARK    1  A    between atoms: O_2  and  C_3 
REMARK    2  A    between atoms: C_6  and  C_7 
REMARK    3  A    between atoms: C_13  and  C_14 
REMARK       I    between atoms: C_14  and  N_15 
REMARK    4  A    between atoms: N_15  and  C_16 
REMARK    5  A    between atoms: C_18  and  O_19 
REMARK    6  A    between atoms: C_24  and  C_25 
ROOT
HETATM    1  C   UNL     1       6.278  27.028  55.864  1.00  0.00     0.118 C 
HETATM    2  N   UNL     1       5.920  27.437  54.496  1.00  0.00    -0.365 N 
HETATM    3  C   UNL     1       5.699  26.461  53.567  1.00  0.00     0.138 C 
HETATM    4  N   UNL     1       6.057  25.152  53.815  1.00  0.00    -0.240 N 
HETATM    5  N   UNL     1       5.602  24.289  52.896  1.00  0.00    -0.181 NA
HETATM    6  C   UNL     1       5.087  25.083  51.957  1.00  0.00     0.160 C 
HETATM    7  C   UNL     1       5.143  26.458  52.297  1.00  0.00     0.096 C 
HETATM    8  C   UNL     1       6.673  24.682  55.043  1.00  0.00     0.221 C 
HETATM    9  C   UNL     1       7.273  25.863  55.817  1.00  0.00     0.066 C 
HETATM   10  H   UNL     1       5.275  28.229  54.517  1.00  0.00     0.161 HD
ENDROOT
BRANCH   7  11
HETATM   11  C   UNL     1       4.673  27.547  51.456  1.00  0.00     0.261 C 
HETATM   12  N   UNL     1       4.268  27.155  50.194  1.00  0.00    -0.323 N 
HETATM   13  H   UNL     1       4.311  26.160  50.009  1.00  0.00     0.169 HD
HETATM   14  O   UNL     1       4.641  28.692  51.894  1.00  0.00    -0.267 OA
BRANCH  12  15
HETATM   15  C   UNL     1       3.757  27.971  49.162  1.00  0.00     0.037 A 
HETATM   16  C   UNL     1       4.545  28.804  48.363  1.00  0.00     0.066 A 
HETATM   17  C   UNL     1       3.951  29.584  47.372  1.00  0.00     0.067 A 
HETATM   18  C   UNL     1       2.581  29.541  47.151  1.00  0.00     0.036 A 
HETATM   19  C   UNL     1       1.788  28.712  47.939  1.00  0.00     0.005 A 
HETATM   20  C   UNL     1       2.372  27.937  48.946  1.00  0.00     0.029 A 
BRANCH  17  21
HETATM   21  O   UNL     1       4.694  30.421  46.590  1.00  0.00    -0.361 OA
HETATM   22  H   UNL     1       4.268  30.486  45.719  1.00  0.00     0.217 HD
ENDBRANCH  17  21
ENDBRANCH  12  15
ENDBRANCH   7  11
BRANCH   1  23
HETATM   23  C   UNL     1       6.874  28.197  56.624  1.00  0.00    -0.035 A 
HETATM   24  C   UNL     1       6.055  29.259  57.036  1.00  0.00     0.012 A 
HETATM   25  C   UNL     1       6.566  30.299  57.821  1.00  0.00     0.037 A 
HETATM   26  C   UNL     1       7.905  30.292  58.211  1.00  0.00     0.068 A 
HETATM   27  C   UNL     1       8.733  29.253  57.784  1.00  0.00     0.037 A 
HETATM   28  C   UNL     1       8.226  28.213  57.001  1.00  0.00     0.012 A 
BRANCH  26  29
HETATM   29  O   UNL     1       8.516  31.230  58.996  1.00  0.00    -0.356 OA
HETATM   30  C   UNL     1       9.855  31.571  58.657  1.00  0.00     0.210 C 
ENDBRANCH  26  29
ENDBRANCH   1  23
BRANCH   8  31
HETATM   31  C   UNL     1       7.748  23.650  54.781  1.00  0.00     0.409 C 
HETATM   32  F   UNL     1       8.402  23.869  53.618  1.00  0.00    -0.169 F 
HETATM   33  F   UNL     1       8.683  23.713  55.768  1.00  0.00    -0.169 F 
HETATM   34  F   UNL     1       7.292  22.381  54.782  1.00  0.00    -0.169 F 
ENDBRANCH   8  31
TORSDOF 6
ENDMDL
MODEL 8
REMARK VINA RESULT:      -8.6      6.988     12.458
REMARK  6 active torsions:
REMARK  status: ('A' for Active; 'I' for Inactive)
REMARK    1  A    between atoms: O_2  and  C_3 
REMARK    2  A    between atoms: C_6  and  C_7 
REMARK    3  A    between atoms: C_13  and  C_14 
REMARK       I    between atoms: C_14  and  N_15 
REMARK    4  A    between atoms: N_15  and  C_16 
REMARK    5  A    between atoms: C_18  and  O_19 
REMARK    6  A    between atoms: C_24  and  C_25 
ROOT
HETATM    1  C   UNL     1       5.074  36.251  62.838  1.00  0.00     0.118 C 
HETATM    2  N   UNL     1       5.722  35.204  62.031  1.00  0.00    -0.365 N 
HETATM    3  C   UNL     1       5.647  33.913  62.467  1.00  0.00     0.138 C 
HETATM    4  N   UNL     1       5.219  33.621  63.746  1.00  0.00    -0.240 N 
HETATM    5  N   UNL     1       5.016  32.313  63.957  1.00  0.00    -0.181 NA
HETATM    6  C   UNL     1       5.483  31.746  62.844  1.00  0.00     0.160 C 
HETATM    7  C   UNL     1       5.923  32.687  61.881  1.00  0.00     0.096 C 
HETATM    8  C   UNL     1       4.808  34.609  64.726  1.00  0.00     0.221 C 
HETATM    9  C   UNL     1       5.330  35.996  64.327  1.00  0.00     0.066 C 
HETATM   10  H   UNL     1       5.577  35.379  61.034  1.00  0.00     0.161 HD
ENDROOT
BRANCH   7  11
HETATM   11  C   UNL     1       6.495  32.354  60.586  1.00  0.00     0.261 C 
HETATM   12  N   UNL     1       7.558  31.473  60.646  1.00  0.00    -0.323 N 
HETATM   13  H   UNL     1       7.796  31.135  61.571  1.00  0.00     0.169 HD
HETATM   14  O   UNL     1       6.016  32.829  59.562  1.00  0.00    -0.267 OA
BRANCH  12  15
HETATM   15  C   UNL     1       8.308  30.955  59.569  1.00  0.00     0.037 A 
HETATM   16  C   UNL     1       7.977  29.784  58.879  1.00  0.00     0.066 A 
HETATM   17  C   UNL     1       8.784  29.342  57.831  1.00  0.00     0.067 A 
HETATM   18  C   UNL     1       9.912  30.052  57.446  1.00  0.00     0.036 A 
HETATM   19  C   UNL     1      10.249  31.220  58.124  1.00  0.00     0.005 A 
HETATM   20  C   UNL     1       9.454  31.665  59.187  1.00  0.00     0.029 A 
BRANCH  17  21
HETATM   21  O   UNL     1       8.495  28.192  57.154  1.00  0.00    -0.361 OA
HETATM   22  H   UNL     1       8.903  28.245  56.273  1.00  0.00     0.217 HD
ENDBRANCH  17  21
ENDBRANCH  12  15
ENDBRANCH   7  11
BRANCH   1  23
HETATM   23  C   UNL     1       5.595  37.619  62.443  1.00  0.00    -0.035 A 
HETATM   24  C   UNL     1       6.272  38.412  63.382  1.00  0.00     0.012 A 
HETATM   25  C   UNL     1       6.844  39.635  63.012  1.00  0.00     0.037 A 
HETATM   26  C   UNL     1       6.754  40.082  61.694  1.00  0.00     0.068 A 
HETATM   27  C   UNL     1       6.060  39.313  60.760  1.00  0.00     0.037 A 
HETATM   28  C   UNL     1       5.489  38.091  61.126  1.00  0.00     0.012 A 
BRANCH  26  29
HETATM   29  O   UNL     1       7.290  41.240  61.202  1.00  0.00    -0.356 OA
HETATM   30  C   UNL     1       6.556  41.898  60.177  1.00  0.00     0.210 C 
ENDBRANCH  26  29
ENDBRANCH   1  23
BRANCH   8  31
HETATM   31  C   UNL     1       5.295  34.267  66.118  1.00  0.00     0.409 C 
HETATM   32  F   UNL     1       5.386  35.355  66.916  1.00  0.00    -0.169 F 
HETATM   33  F   UNL     1       4.404  33.425  66.713  1.00  0.00    -0.169 F 
HETATM   34  F   UNL     1       6.480  33.624  66.134  1.00  0.00    -0.169 F 
ENDBRANCH   8  31
TORSDOF 6
ENDMDL
MODEL 9
REMARK VINA RESULT:      -8.5      2.941      3.351
REMARK  6 active torsions:
REMARK  status: ('A' for Active; 'I' for Inactive)
REMARK    1  A    between atoms: O_2  and  C_3 
REMARK    2  A    between atoms: C_6  and  C_7 
REMARK    3  A    between atoms: C_13  and  C_14 
REMARK       I    between atoms: C_14  and  N_15 
REMARK    4  A    between atoms: N_15  and  C_16 
REMARK    5  A    between atoms: C_18  and  O_19 
REMARK    6  A    between atoms: C_24  and  C_25 
ROOT
HETATM    1  C   UNL     1       5.298  25.801  53.050  1.00  0.00     0.118 C 
HETATM    2  N   UNL     1       5.431  26.988  53.911  1.00  0.00    -0.365 N 
HETATM    3  C   UNL     1       4.857  28.155  53.495  1.00  0.00     0.138 C 
HETATM    4  N   UNL     1       4.402  28.299  52.200  1.00  0.00    -0.240 N 
HETATM    5  N   UNL     1       3.695  29.421  52.003  1.00  0.00    -0.181 NA
HETATM    6  C   UNL     1       3.845  30.084  53.150  1.00  0.00     0.160 C 
HETATM    7  C   UNL     1       4.588  29.364  54.118  1.00  0.00     0.096 C 
HETATM    8  C   UNL     1       4.468  27.268  51.181  1.00  0.00     0.221 C 
HETATM    9  C   UNL     1       5.491  26.195  51.582  1.00  0.00     0.066 C 
HETATM   10  H   UNL     1       5.328  26.731  54.894  1.00  0.00     0.161 HD
ENDROOT
BRANCH   7  11
HETATM   11  C   UNL     1       4.921  29.849  55.448  1.00  0.00     0.261 C 
HETATM   12  N   UNL     1       4.073  30.832  55.921  1.00  0.00    -0.323 N 
HETATM   13  H   UNL     1       3.303  31.078  55.311  1.00  0.00     0.169 HD
HETATM   14  O   UNL     1       5.873  29.371  56.056  1.00  0.00    -0.267 OA
BRANCH  12  15
HETATM   15  C   UNL     1       4.128  31.488  57.170  1.00  0.00     0.037 A 
HETATM   16  C   UNL     1       3.550  30.986  58.340  1.00  0.00     0.066 A 
HETATM   17  C   UNL     1       3.646  31.708  59.529  1.00  0.00     0.067 A 
HETATM   18  C   UNL     1       4.320  32.920  59.579  1.00  0.00     0.036 A 
HETATM   19  C   UNL     1       4.900  33.427  58.420  1.00  0.00     0.005 A 
HETATM   20  C   UNL     1       4.798  32.717  57.219  1.00  0.00     0.029 A 
BRANCH  17  21
HETATM   21  O   UNL     1       3.074  31.252  60.682  1.00  0.00    -0.361 OA
HETATM   22  H   UNL     1       3.771  31.157  61.353  1.00  0.00     0.217 HD
ENDBRANCH  17  21
ENDBRANCH  12  15
ENDBRANCH   7  11
BRANCH   1  23
HETATM   23  C   UNL     1       6.312  24.746  53.448  1.00  0.00    -0.035 A 
HETATM   24  C   UNL     1       6.431  24.356  54.790  1.00  0.00     0.012 A 
HETATM   25  C   UNL     1       7.292  23.316  55.164  1.00  0.00     0.037 A 
HETATM   26  C   UNL     1       8.043  22.647  54.199  1.00  0.00     0.068 A 
HETATM   27  C   UNL     1       7.951  23.046  52.866  1.00  0.00     0.037 A 
HETATM   28  C   UNL     1       7.092  24.082  52.489  1.00  0.00     0.012 A 
BRANCH  26  29
HETATM   29  O   UNL     1       8.896  21.603  54.430  1.00  0.00    -0.356 OA
HETATM   30  C   UNL     1       8.766  20.472  53.577  1.00  0.00     0.210 C 
ENDBRANCH  26  29
ENDBRANCH   1  23
BRANCH   8  31
HETATM   31  C   UNL     1       4.833  27.831  49.824  1.00  0.00     0.409 C 
HETATM   32  F   UNL     1       5.875  28.691  49.884  1.00  0.00    -0.169 F 
HETATM   33  F   UNL     1       5.216  26.815  49.002  1.00  0.00    -0.169 F 
HETATM   34  F   UNL     1       3.807  28.446  49.201  1.00  0.00    -0.169 F 
ENDBRANCH   8  31
TORSDOF 6
ENDMDL
MODEL 10
REMARK VINA RESULT:      -8.1      3.845      8.263
REMARK  6 active torsions:
REMARK  status: ('A' for Active; 'I' for Inactive)
REMARK    1  A    between atoms: O_2  and  C_3 
REMARK    2  A    between atoms: C_6  and  C_7 
REMARK    3  A    between atoms: C_13  and  C_14 
REMARK       I    between atoms: C_14  and  N_15 
REMARK    4  A    between atoms: N_15  and  C_16 
REMARK    5  A    between atoms: C_18  and  O_19 
REMARK    6  A    between atoms: C_24  and  C_25 
ROOT
HETATM    1  C   UNL     1       6.883  26.867  55.782  1.00  0.00     0.118 C 
HETATM    2  N   UNL     1       6.429  27.374  54.476  1.00  0.00    -0.365 N 
HETATM    3  C   UNL     1       6.023  26.469  53.538  1.00  0.00     0.138 C 
HETATM    4  N   UNL     1       6.277  25.122  53.696  1.00  0.00    -0.240 N 
HETATM    5  N   UNL     1       5.651  24.351  52.796  1.00  0.00    -0.181 NA
HETATM    6  C   UNL     1       5.123  25.234  51.948  1.00  0.00     0.160 C 
HETATM    7  C   UNL     1       5.344  26.579  52.335  1.00  0.00     0.096 C 
HETATM    8  C   UNL     1       6.966  24.539  54.832  1.00  0.00     0.221 C 
HETATM    9  C   UNL     1       7.752  25.621  55.585  1.00  0.00     0.066 C 
HETATM   10  H   UNL     1       5.868  28.220  54.596  1.00  0.00     0.161 HD
ENDROOT
BRANCH   7  11
HETATM   11  C   UNL     1       4.898  27.747  51.591  1.00  0.00     0.261 C 
HETATM   12  N   UNL     1       3.619  28.165  51.906  1.00  0.00    -0.323 N 
HETATM   13  H   UNL     1       3.153  27.640  52.636  1.00  0.00     0.169 HD
HETATM   14  O   UNL     1       5.648  28.283  50.783  1.00  0.00    -0.267 OA
BRANCH  12  15
HETATM   15  C   UNL     1       2.917  29.265  51.369  1.00  0.00     0.037 A 
HETATM   16  C   UNL     1       3.109  30.589  51.777  1.00  0.00     0.066 A 
HETATM   17  C   UNL     1       2.362  31.612  51.196  1.00  0.00     0.067 A 
HETATM   18  C   UNL     1       1.431  31.344  50.202  1.00  0.00     0.036 A 
HETATM   19  C   UNL     1       1.234  30.030  49.786  1.00  0.00     0.005 A 
HETATM   20  C   UNL     1       1.968  28.994  50.373  1.00  0.00     0.029 A 
BRANCH  17  21
HETATM   21  O   UNL     1       2.515  32.910  51.589  1.00  0.00    -0.361 OA
HETATM   22  H   UNL     1       2.263  32.979  52.525  1.00  0.00     0.217 HD
ENDBRANCH  17  21
ENDBRANCH  12  15
ENDBRANCH   7  11
BRANCH   1  23
HETATM   23  C   UNL     1       7.662  27.938  56.520  1.00  0.00    -0.035 A 
HETATM   24  C   UNL     1       8.702  28.623  55.874  1.00  0.00     0.012 A 
HETATM   25  C   UNL     1       9.370  29.680  56.506  1.00  0.00     0.037 A 
HETATM   26  C   UNL     1       9.002  30.073  57.792  1.00  0.00     0.068 A 
HETATM   27  C   UNL     1       7.987  29.381  58.452  1.00  0.00     0.037 A 
HETATM   28  C   UNL     1       7.318  28.327  57.824  1.00  0.00     0.012 A 
BRANCH  26  29
HETATM   29  O   UNL     1       9.554  31.102  58.503  1.00  0.00    -0.356 OA
HETATM   30  C   UNL     1       9.212  31.181  59.882  1.00  0.00     0.210 C 
ENDBRANCH  26  29
ENDBRANCH   1  23
BRANCH   8  31
HETATM   31  C   UNL     1       7.905  23.426  54.419  1.00  0.00     0.409 C 
HETATM   32  F   UNL     1       8.972  23.318  55.242  1.00  0.00    -0.169 F 
HETATM   33  F   UNL     1       7.248  22.235  54.478  1.00  0.00    -0.169 F 
HETATM   34  F   UNL     1       8.354  23.540  53.152  1.00  0.00    -0.169 F 
ENDBRANCH   8  31
TORSDOF 6
ENDMDL
