MODEL 1
REMARK VINA RESULT:      -7.8      0.000      0.000
REMARK  4 active torsions:
REMARK  status: ('A' for Active; 'I' for Inactive)
REMARK    1  A    between atoms: O_2  and  C_3 
REMARK    2  A    between atoms: C_5  and  C_6 
REMARK    3  A    between atoms: C_10  and  N_11 
REMARK    4  A    between atoms: C_14  and  C_15 
ROOT
HETATM    1  C   UNL     1       6.266  26.876  55.674  1.00  0.00     0.164 C 
HETATM    2  N   UNL     1       7.389  27.643  56.203  1.00  0.00    -0.074 N 
HETATM    3  C   UNL     1       8.295  27.164  57.109  1.00  0.00     0.736 A 
HETATM    4  N   UNL     1       9.182  28.095  57.351  1.00  0.00     0.131 NA
HETATM    5  C   UNL     1       8.731  29.151  56.614  1.00  0.00     0.753 A 
HETATM    6  N   UNL     1       7.639  28.926  55.886  1.00  0.00     0.037 NA
HETATM    7  N   UNL     1       8.195  25.922  57.615  1.00  0.00    -0.214 N 
HETATM    8  C   UNL     1       7.137  25.007  57.216  1.00  0.00     0.135 C 
HETATM    9  C   UNL     1       5.902  25.789  56.710  1.00  0.00     0.063 C 
HETATM   10  H   UNL     1       8.939  25.561  58.204  1.00  0.00     0.178 HD
ENDROOT
BRANCH   1  11
HETATM   11  C   UNL     1       6.488  26.339  54.259  1.00  0.00    -0.030 A 
HETATM   12  C   UNL     1       5.436  26.089  53.353  1.00  0.00     0.046 A 
HETATM   13  C   UNL     1       5.686  25.621  52.060  1.00  0.00     0.068 A 
HETATM   14  C   UNL     1       7.001  25.388  51.659  1.00  0.00     0.037 A 
HETATM   15  C   UNL     1       8.055  25.599  52.542  1.00  0.00     0.003 A 
HETATM   16  C   UNL     1       7.800  26.061  53.833  1.00  0.00     0.009 A 
BRANCH  13  17
HETATM   17  O   UNL     1       4.743  25.362  51.102  1.00  0.00    -0.356 OA
HETATM   18  C   UNL     1       4.727  26.219  49.967  1.00  0.00     0.210 C 
ENDBRANCH  13  17
ENDBRANCH   1  11
BRANCH   8  19
HETATM   19  C   UNL     1       7.613  23.927  56.256  1.00  0.00    -0.035 A 
HETATM   20  C   UNL     1       8.957  23.532  56.152  1.00  0.00     0.010 A 
HETATM   21  C   UNL     1       9.353  22.569  55.220  1.00  0.00     0.019 A 
HETATM   22  C   UNL     1       8.407  21.979  54.388  1.00  0.00     0.011 A 
HETATM   23 BR   UNL     1       8.945  20.686  53.118  1.00  0.00    -0.051 Br
HETATM   24  C   UNL     1       7.066  22.336  54.485  1.00  0.00     0.019 A 
HETATM   25  C   UNL     1       6.673  23.303  55.415  1.00  0.00     0.010 A 
ENDBRANCH   8  19
BRANCH   5  26
HETATM   26  N   UNL     1       9.413  30.290  56.649  1.00  0.00    -0.229 N 
HETATM   27  H   UNL     1       9.157  30.961  57.361  1.00  0.00     0.174 HD
HETATM   28  H   UNL     1      10.397  30.249  56.423  1.00  0.00     0.174 HD
ENDBRANCH   5  26
TORSDOF 4
ENDMDL
MODEL 2
REMARK VINA RESULT:      -7.7      3.386      5.911
REMARK  4 active torsions:
REMARK  status: ('A' for Active; 'I' for Inactive)
REMARK    1  A    between atoms: O_2  and  C_3 
REMARK    2  A    between atoms: C_5  and  C_6 
REMARK    3  A    between atoms: C_10  and  N_11 
REMARK    4  A    between atoms: C_14  and  C_15 
ROOT
HETATM    1  C   UNL     1       5.066  26.549  55.460  1.00  0.00     0.164 C 
HETATM    2  N   UNL     1       5.047  26.614  54.002  1.00  0.00    -0.074 N 
HETATM    3  C   UNL     1       5.269  27.751  53.275  1.00  0.00     0.736 A 
HETATM    4  N   UNL     1       5.204  27.457  52.002  1.00  0.00     0.131 NA
HETATM    5  C   UNL     1       4.871  26.134  52.006  1.00  0.00     0.753 A 
HETATM    6  N   UNL     1       4.768  25.566  53.206  1.00  0.00     0.037 NA
HETATM    7  N   UNL     1       5.502  28.933  53.872  1.00  0.00    -0.214 N 
HETATM    8  C   UNL     1       5.552  29.073  55.319  1.00  0.00     0.135 C 
HETATM    9  C   UNL     1       4.731  27.956  56.004  1.00  0.00     0.063 C 
HETATM   10  H   UNL     1       5.766  29.735  53.308  1.00  0.00     0.178 HD
ENDROOT
BRANCH   1  11
HETATM   11  C   UNL     1       6.346  25.945  56.040  1.00  0.00    -0.030 A 
HETATM   12  C   UNL     1       7.143  25.010  55.346  1.00  0.00     0.046 A 
HETATM   13  C   UNL     1       8.319  24.500  55.904  1.00  0.00     0.068 A 
HETATM   14  C   UNL     1       8.710  24.918  57.175  1.00  0.00     0.037 A 
HETATM   15  C   UNL     1       7.928  25.819  57.893  1.00  0.00     0.003 A 
HETATM   16  C   UNL     1       6.752  26.319  57.334  1.00  0.00     0.009 A 
BRANCH  13  17
HETATM   17  O   UNL     1       9.167  23.605  55.311  1.00  0.00    -0.356 OA
HETATM   18  C   UNL     1       8.571  22.549  54.568  1.00  0.00     0.210 C 
ENDBRANCH  13  17
ENDBRANCH   1  11
BRANCH   8  19
HETATM   19  C   UNL     1       6.970  29.207  55.856  1.00  0.00    -0.035 A 
HETATM   20  C   UNL     1       7.260  29.670  57.150  1.00  0.00     0.010 A 
HETATM   21  C   UNL     1       8.581  29.822  57.580  1.00  0.00     0.019 A 
HETATM   22  C   UNL     1       9.630  29.500  56.725  1.00  0.00     0.011 A 
HETATM   23 BR   UNL     1      11.416  29.718  57.302  1.00  0.00    -0.051 Br
HETATM   24  C   UNL     1       9.371  29.019  55.446  1.00  0.00     0.019 A 
HETATM   25  C   UNL     1       8.049  28.872  55.016  1.00  0.00     0.010 A 
ENDBRANCH   8  19
BRANCH   5  26
HETATM   26  N   UNL     1       4.708  25.515  50.843  1.00  0.00    -0.229 N 
HETATM   27  H   UNL     1       3.880  25.744  50.309  1.00  0.00     0.174 HD
HETATM   28  H   UNL     1       5.537  25.321  50.299  1.00  0.00     0.174 HD
ENDBRANCH   5  26
TORSDOF 4
ENDMDL
MODEL 3
REMARK VINA RESULT:      -7.5     10.677     13.802
REMARK  4 active torsions:
REMARK  status: ('A' for Active; 'I' for Inactive)
REMARK    1  A    between atoms: O_2  and  C_3 
REMARK    2  A    between atoms: C_5  and  C_6 
REMARK    3  A    between atoms: C_10  and  N_11 
REMARK    4  A    between atoms: C_14  and  C_15 
ROOT
HETATM    1  C   UNL     1       3.339  33.027  63.019  1.00  0.00     0.164 C 
HETATM    2  N   UNL     1       3.303  32.688  61.599  1.00  0.00    -0.074 N 
HETATM    3  C   UNL     1       2.936  33.555  60.607  1.00  0.00     0.736 A 
HETATM    4  N   UNL     1       3.038  32.943  59.454  1.00  0.00     0.131 NA
HETATM    5  C   UNL     1       3.408  31.678  59.807  1.00  0.00     0.753 A 
HETATM    6  N   UNL     1       3.591  31.469  61.109  1.00  0.00     0.037 NA
HETATM    7  N   UNL     1       2.543  34.811  60.879  1.00  0.00    -0.214 N 
HETATM    8  C   UNL     1       2.503  35.333  62.237  1.00  0.00     0.135 C 
HETATM    9  C   UNL     1       2.342  34.183  63.258  1.00  0.00     0.063 C 
HETATM   10  H   UNL     1       2.377  35.460  60.116  1.00  0.00     0.178 HD
ENDROOT
BRANCH   1  11
HETATM   11  C   UNL     1       4.744  33.293  63.561  1.00  0.00    -0.030 A 
HETATM   12  C   UNL     1       5.010  33.562  64.920  1.00  0.00     0.046 A 
HETATM   13  C   UNL     1       6.314  33.775  65.378  1.00  0.00     0.068 A 
HETATM   14  C   UNL     1       7.372  33.730  64.472  1.00  0.00     0.037 A 
HETATM   15  C   UNL     1       7.135  33.494  63.121  1.00  0.00     0.003 A 
HETATM   16  C   UNL     1       5.832  33.287  62.669  1.00  0.00     0.009 A 
BRANCH  13  17
HETATM   17  O   UNL     1       6.680  34.028  66.672  1.00  0.00    -0.356 OA
HETATM   18  C   UNL     1       5.643  34.396  67.573  1.00  0.00     0.210 C 
ENDBRANCH  13  17
ENDBRANCH   1  11
BRANCH   8  19
HETATM   19  C   UNL     1       3.661  36.271  62.548  1.00  0.00    -0.035 A 
HETATM   20  C   UNL     1       3.960  36.714  63.847  1.00  0.00     0.010 A 
HETATM   21  C   UNL     1       5.004  37.614  64.077  1.00  0.00     0.019 A 
HETATM   22  C   UNL     1       5.771  38.073  63.010  1.00  0.00     0.011 A 
HETATM   23 BR   UNL     1       7.174  39.300  63.319  1.00  0.00    -0.051 Br
HETATM   24  C   UNL     1       5.510  37.632  61.717  1.00  0.00     0.019 A 
HETATM   25  C   UNL     1       4.462  36.736  61.489  1.00  0.00     0.010 A 
ENDBRANCH   8  19
BRANCH   5  26
HETATM   26  N   UNL     1       3.587  30.777  58.848  1.00  0.00    -0.229 N 
HETATM   27  H   UNL     1       3.997  31.098  57.982  1.00  0.00     0.174 HD
HETATM   28  H   UNL     1       3.844  29.841  59.131  1.00  0.00     0.174 HD
ENDBRANCH   5  26
TORSDOF 4
ENDMDL
MODEL 4
REMARK VINA RESULT:      -7.3      9.291     11.539
REMARK  4 active torsions:
REMARK  status: ('A' for Active; 'I' for Inactive)
REMARK    1  A    between atoms: O_2  and  C_3 
REMARK    2  A    between atoms: C_5  and  C_6 
REMARK    3  A    between atoms: C_10  and  N_11 
REMARK    4  A    between atoms: C_14  and  C_15 
ROOT
HETATM    1  C   UNL     1       6.221  34.786  63.169  1.00  0.00     0.164 C 
HETATM    2  N   UNL     1       5.417  34.476  64.347  1.00  0.00    -0.074 N 
HETATM    3  C   UNL     1       4.049  34.488  64.374  1.00  0.00     0.736 A 
HETATM    4  N   UNL     1       3.648  34.140  65.570  1.00  0.00     0.131 NA
HETATM    5  C   UNL     1       4.818  33.991  66.257  1.00  0.00     0.753 A 
HETATM    6  N   UNL     1       5.932  34.178  65.553  1.00  0.00     0.037 NA
HETATM    7  N   UNL     1       3.326  34.825  63.292  1.00  0.00    -0.214 N 
HETATM    8  C   UNL     1       3.949  35.176  62.024  1.00  0.00     0.135 C 
HETATM    9  C   UNL     1       5.385  35.703  62.249  1.00  0.00     0.063 C 
HETATM   10  H   UNL     1       2.316  34.725  63.313  1.00  0.00     0.178 HD
ENDROOT
BRANCH   1  11
HETATM   11  C   UNL     1       6.798  33.557  62.466  1.00  0.00    -0.030 A 
HETATM   12  C   UNL     1       7.286  33.581  61.143  1.00  0.00     0.046 A 
HETATM   13  C   UNL     1       7.828  32.438  60.546  1.00  0.00     0.068 A 
HETATM   14  C   UNL     1       7.880  31.249  61.270  1.00  0.00     0.037 A 
HETATM   15  C   UNL     1       7.380  31.190  62.567  1.00  0.00     0.003 A 
HETATM   16  C   UNL     1       6.836  32.331  63.156  1.00  0.00     0.009 A 
BRANCH  13  17
HETATM   17  O   UNL     1       8.340  32.360  59.279  1.00  0.00    -0.356 OA
HETATM   18  C   UNL     1       9.542  31.618  59.116  1.00  0.00     0.210 C 
ENDBRANCH  13  17
ENDBRANCH   1  11
BRANCH   8  19
HETATM   19  C   UNL     1       3.860  34.063  60.990  1.00  0.00    -0.035 A 
HETATM   20  C   UNL     1       3.501  32.744  61.311  1.00  0.00     0.010 A 
HETATM   21  C   UNL     1       3.481  31.746  60.333  1.00  0.00     0.019 A 
HETATM   22  C   UNL     1       3.808  32.058  59.017  1.00  0.00     0.011 A 
HETATM   23 BR   UNL     1       3.794  30.706  57.697  1.00  0.00    -0.051 Br
HETATM   24  C   UNL     1       4.146  33.361  58.668  1.00  0.00     0.019 A 
HETATM   25  C   UNL     1       4.170  34.357  59.648  1.00  0.00     0.010 A 
ENDBRANCH   8  19
BRANCH   5  26
HETATM   26  N   UNL     1       4.764  33.646  67.539  1.00  0.00    -0.229 N 
HETATM   27  H   UNL     1       3.990  34.005  68.081  1.00  0.00     0.174 HD
HETATM   28  H   UNL     1       5.073  32.716  67.784  1.00  0.00     0.174 HD
ENDBRANCH   5  26
TORSDOF 4
ENDMDL
MODEL 5
REMARK VINA RESULT:      -7.1     10.506     13.782
REMARK  4 active torsions:
REMARK  status: ('A' for Active; 'I' for Inactive)
REMARK    1  A    between atoms: O_2  and  C_3 
REMARK    2  A    between atoms: C_5  and  C_6 
REMARK    3  A    between atoms: C_10  and  N_11 
REMARK    4  A    between atoms: C_14  and  C_15 
ROOT
HETATM    1  C   UNL     1       4.980  32.473  62.806  1.00  0.00     0.164 C 
HETATM    2  N   UNL     1       5.928  32.249  61.719  1.00  0.00    -0.074 N 
HETATM    3  C   UNL     1       6.040  33.047  60.614  1.00  0.00     0.736 A 
HETATM    4  N   UNL     1       6.997  32.581  59.853  1.00  0.00     0.131 NA
HETATM    5  C   UNL     1       7.394  31.453  60.510  1.00  0.00     0.753 A 
HETATM    6  N   UNL     1       6.775  31.206  61.664  1.00  0.00     0.037 NA
HETATM    7  N   UNL     1       5.240  34.112  60.430  1.00  0.00    -0.214 N 
HETATM    8  C   UNL     1       4.226  34.494  61.401  1.00  0.00     0.135 C 
HETATM    9  C   UNL     1       3.785  33.272  62.239  1.00  0.00     0.063 C 
HETATM   10  H   UNL     1       5.417  34.742  59.654  1.00  0.00     0.178 HD
ENDROOT
BRANCH   1  11
HETATM   11  C   UNL     1       5.603  33.090  64.059  1.00  0.00    -0.030 A 
HETATM   12  C   UNL     1       4.857  33.421  65.211  1.00  0.00     0.046 A 
HETATM   13  C   UNL     1       5.472  33.962  66.344  1.00  0.00     0.068 A 
HETATM   14  C   UNL     1       6.847  34.186  66.336  1.00  0.00     0.037 A 
HETATM   15  C   UNL     1       7.602  33.894  65.203  1.00  0.00     0.003 A 
HETATM   16  C   UNL     1       6.984  33.361  64.073  1.00  0.00     0.009 A 
BRANCH  13  17
HETATM   17  O   UNL     1       4.844  34.302  67.512  1.00  0.00    -0.356 OA
HETATM   18  C   UNL     1       5.654  34.866  68.537  1.00  0.00     0.210 C 
ENDBRANCH  13  17
ENDBRANCH   1  11
BRANCH   8  19
HETATM   19  C   UNL     1       4.627  35.699  62.240  1.00  0.00    -0.035 A 
HETATM   20  C   UNL     1       3.859  36.175  63.315  1.00  0.00     0.010 A 
HETATM   21  C   UNL     1       4.245  37.315  64.025  1.00  0.00     0.019 A 
HETATM   22  C   UNL     1       5.413  37.987  63.676  1.00  0.00     0.011 A 
HETATM   23 BR   UNL     1       5.928  39.536  64.628  1.00  0.00    -0.051 Br
HETATM   24  C   UNL     1       6.203  37.523  62.630  1.00  0.00     0.019 A 
HETATM   25  C   UNL     1       5.813  36.385  61.918  1.00  0.00     0.010 A 
ENDBRANCH   8  19
BRANCH   5  26
HETATM   26  N   UNL     1       8.365  30.717  59.983  1.00  0.00    -0.229 N 
HETATM   27  H   UNL     1       8.104  29.831  59.573  1.00  0.00     0.174 HD
HETATM   28  H   UNL     1       9.119  31.205  59.520  1.00  0.00     0.174 HD
ENDBRANCH   5  26
TORSDOF 4
ENDMDL
MODEL 6
REMARK VINA RESULT:      -6.9     10.022     12.532
REMARK  4 active torsions:
REMARK  status: ('A' for Active; 'I' for Inactive)
REMARK    1  A    between atoms: O_2  and  C_3 
REMARK    2  A    between atoms: C_5  and  C_6 
REMARK    3  A    between atoms: C_10  and  N_11 
REMARK    4  A    between atoms: C_14  and  C_15 
ROOT
HETATM    1  C   UNL     1       5.127  32.620  62.778  1.00  0.00     0.164 C 
HETATM    2  N   UNL     1       6.355  32.286  62.064  1.00  0.00    -0.074 N 
HETATM    3  C   UNL     1       6.427  32.047  60.719  1.00  0.00     0.736 A 
HETATM    4  N   UNL     1       7.673  31.802  60.400  1.00  0.00     0.131 NA
HETATM    5  C   UNL     1       8.313  31.838  61.605  1.00  0.00     0.753 A 
HETATM    6  N   UNL     1       7.553  32.136  62.657  1.00  0.00     0.037 NA
HETATM    7  N   UNL     1       5.333  32.077  59.939  1.00  0.00    -0.214 N 
HETATM    8  C   UNL     1       4.013  32.384  60.469  1.00  0.00     0.135 C 
HETATM    9  C   UNL     1       3.939  32.045  61.976  1.00  0.00     0.063 C 
HETATM   10  H   UNL     1       5.433  31.999  58.932  1.00  0.00     0.178 HD
ENDROOT
BRANCH   1  11
HETATM   11  C   UNL     1       4.989  34.105  63.120  1.00  0.00    -0.030 A 
HETATM   12  C   UNL     1       5.765  35.113  62.511  1.00  0.00     0.046 A 
HETATM   13  C   UNL     1       5.589  36.462  62.836  1.00  0.00     0.068 A 
HETATM   14  C   UNL     1       4.634  36.817  63.786  1.00  0.00     0.037 A 
HETATM   15  C   UNL     1       3.874  35.840  64.422  1.00  0.00     0.003 A 
HETATM   16  C   UNL     1       4.057  34.496  64.099  1.00  0.00     0.009 A 
BRANCH  13  17
HETATM   17  O   UNL     1       6.277  37.515  62.295  1.00  0.00    -0.356 OA
HETATM   18  C   UNL     1       5.573  38.337  61.373  1.00  0.00     0.210 C 
ENDBRANCH  13  17
ENDBRANCH   1  11
BRANCH   8  19
HETATM   19  C   UNL     1       3.551  33.795  60.136  1.00  0.00    -0.035 A 
HETATM   20  C   UNL     1       4.226  34.630  59.231  1.00  0.00     0.010 A 
HETATM   21  C   UNL     1       3.790  35.936  58.994  1.00  0.00     0.019 A 
HETATM   22  C   UNL     1       2.663  36.421  59.651  1.00  0.00     0.011 A 
HETATM   23 BR   UNL     1       2.081  38.192  59.341  1.00  0.00    -0.051 Br
HETATM   24  C   UNL     1       1.963  35.608  60.536  1.00  0.00     0.019 A 
HETATM   25  C   UNL     1       2.403  34.303  60.775  1.00  0.00     0.010 A 
ENDBRANCH   8  19
BRANCH   5  26
HETATM   26  N   UNL     1       9.621  31.609  61.637  1.00  0.00    -0.229 N 
HETATM   27  H   UNL     1      10.093  31.756  62.519  1.00  0.00     0.174 HD
HETATM   28  H   UNL     1       9.974  30.848  61.075  1.00  0.00     0.174 HD
ENDBRANCH   5  26
TORSDOF 4
ENDMDL
MODEL 7
REMARK VINA RESULT:      -6.8      5.100      7.910
REMARK  4 active torsions:
REMARK  status: ('A' for Active; 'I' for Inactive)
REMARK    1  A    between atoms: O_2  and  C_3 
REMARK    2  A    between atoms: C_5  and  C_6 
REMARK    3  A    between atoms: C_10  and  N_11 
REMARK    4  A    between atoms: C_14  and  C_15 
ROOT
HETATM    1  C   UNL     1       5.653  29.186  51.113  1.00  0.00     0.164 C 
HETATM    2  N   UNL     1       5.124  28.687  52.379  1.00  0.00    -0.074 N 
HETATM    3  C   UNL     1       4.026  29.199  53.014  1.00  0.00     0.736 A 
HETATM    4  N   UNL     1       3.810  28.509  54.105  1.00  0.00     0.131 NA
HETATM    5  C   UNL     1       4.850  27.626  54.123  1.00  0.00     0.753 A 
HETATM    6  N   UNL     1       5.682  27.688  53.085  1.00  0.00     0.037 NA
HETATM    7  N   UNL     1       3.351  30.249  52.516  1.00  0.00    -0.214 N 
HETATM    8  C   UNL     1       3.730  30.891  51.266  1.00  0.00     0.135 C 
HETATM    9  C   UNL     1       5.231  30.666  50.971  1.00  0.00     0.063 C 
HETATM   10  H   UNL     1       2.482  30.539  52.954  1.00  0.00     0.178 HD
ENDROOT
BRANCH   1  11
HETATM   11  C   UNL     1       5.299  28.318  49.904  1.00  0.00    -0.030 A 
HETATM   12  C   UNL     1       4.604  27.095  50.007  1.00  0.00     0.046 A 
HETATM   13  C   UNL     1       4.279  26.345  48.873  1.00  0.00     0.068 A 
HETATM   14  C   UNL     1       4.657  26.810  47.615  1.00  0.00     0.037 A 
HETATM   15  C   UNL     1       5.368  28.000  47.486  1.00  0.00     0.003 A 
HETATM   16  C   UNL     1       5.695  28.741  48.621  1.00  0.00     0.009 A 
BRANCH  13  17
HETATM   17  O   UNL     1       3.597  25.159  48.863  1.00  0.00    -0.356 OA
HETATM   18  C   UNL     1       2.890  24.834  47.672  1.00  0.00     0.210 C 
ENDBRANCH  13  17
ENDBRANCH   1  11
BRANCH   8  19
HETATM   19  C   UNL     1       2.816  30.524  50.106  1.00  0.00    -0.035 A 
HETATM   20  C   UNL     1       1.841  29.516  50.188  1.00  0.00     0.010 A 
HETATM   21  C   UNL     1       1.059  29.182  49.079  1.00  0.00     0.019 A 
HETATM   22  C   UNL     1       1.233  29.861  47.877  1.00  0.00     0.011 A 
HETATM   23 BR   UNL     1       0.184  29.400  46.374  1.00  0.00    -0.051 Br
HETATM   24  C   UNL     1       2.176  30.878  47.776  1.00  0.00     0.019 A 
HETATM   25  C   UNL     1       2.961  31.208  48.884  1.00  0.00     0.010 A 
ENDBRANCH   8  19
BRANCH   5  26
HETATM   26  N   UNL     1       4.939  26.769  55.133  1.00  0.00    -0.229 N 
HETATM   27  H   UNL     1       5.565  25.983  55.019  1.00  0.00     0.174 HD
HETATM   28  H   UNL     1       4.880  27.145  56.070  1.00  0.00     0.174 HD
ENDBRANCH   5  26
TORSDOF 4
ENDMDL
MODEL 8
REMARK VINA RESULT:      -6.5      9.426     11.522
REMARK  4 active torsions:
REMARK  status: ('A' for Active; 'I' for Inactive)
REMARK    1  A    between atoms: O_2  and  C_3 
REMARK    2  A    between atoms: C_5  and  C_6 
REMARK    3  A    between atoms: C_10  and  N_11 
REMARK    4  A    between atoms: C_14  and  C_15 
ROOT
HETATM    1  C   UNL     1       2.731  35.263  62.337  1.00  0.00     0.164 C 
HETATM    2  N   UNL     1       3.896  35.849  62.992  1.00  0.00    -0.074 N 
HETATM    3  C   UNL     1       5.007  35.146  63.368  1.00  0.00     0.736 A 
HETATM    4  N   UNL     1       5.869  35.974  63.902  1.00  0.00     0.131 NA
HETATM    5  C   UNL     1       5.204  37.165  63.889  1.00  0.00     0.753 A 
HETATM    6  N   UNL     1       3.993  37.146  63.336  1.00  0.00     0.037 NA
HETATM    7  N   UNL     1       5.097  33.818  63.180  1.00  0.00    -0.214 N 
HETATM    8  C   UNL     1       4.032  33.052  62.550  1.00  0.00     0.135 C 
HETATM    9  C   UNL     1       2.672  33.767  62.720  1.00  0.00     0.063 C 
HETATM   10  H   UNL     1       5.973  33.343  63.374  1.00  0.00     0.178 HD
ENDROOT
BRANCH   1  11
HETATM   11  C   UNL     1       2.665  35.524  60.831  1.00  0.00    -0.030 A 
HETATM   12  C   UNL     1       1.522  35.256  60.050  1.00  0.00     0.046 A 
HETATM   13  C   UNL     1       1.496  35.533  58.680  1.00  0.00     0.068 A 
HETATM   14  C   UNL     1       2.624  36.078  58.071  1.00  0.00     0.037 A 
HETATM   15  C   UNL     1       3.775  36.327  58.813  1.00  0.00     0.003 A 
HETATM   16  C   UNL     1       3.798  36.043  60.178  1.00  0.00     0.009 A 
BRANCH  13  17
HETATM   17  O   UNL     1       0.437  35.325  57.838  1.00  0.00    -0.356 OA
HETATM   18  C   UNL     1       0.709  35.354  56.442  1.00  0.00     0.210 C 
ENDBRANCH  13  17
ENDBRANCH   1  11
BRANCH   8  19
HETATM   19  C   UNL     1       4.347  32.668  61.111  1.00  0.00    -0.035 A 
HETATM   20  C   UNL     1       5.576  32.950  60.494  1.00  0.00     0.010 A 
HETATM   21  C   UNL     1       5.800  32.620  59.154  1.00  0.00     0.019 A 
HETATM   22  C   UNL     1       4.800  31.991  58.418  1.00  0.00     0.011 A 
HETATM   23 BR   UNL     1       5.098  31.557  56.603  1.00  0.00    -0.051 Br
HETATM   24  C   UNL     1       3.582  31.680  59.013  1.00  0.00     0.019 A 
HETATM   25  C   UNL     1       3.358  32.015  60.351  1.00  0.00     0.010 A 
ENDBRANCH   8  19
BRANCH   5  26
HETATM   26  N   UNL     1       5.808  38.237  64.386  1.00  0.00    -0.229 N 
HETATM   27  H   UNL     1       6.766  38.399  64.107  1.00  0.00     0.174 HD
HETATM   28  H   UNL     1       5.248  39.067  64.520  1.00  0.00     0.174 HD
ENDBRANCH   5  26
TORSDOF 4
ENDMDL
MODEL 9
REMARK VINA RESULT:      -6.5     12.945     15.068
REMARK  4 active torsions:
REMARK  status: ('A' for Active; 'I' for Inactive)
REMARK    1  A    between atoms: O_2  and  C_3 
REMARK    2  A    between atoms: C_5  and  C_6 
REMARK    3  A    between atoms: C_10  and  N_11 
REMARK    4  A    between atoms: C_14  and  C_15 
ROOT
HETATM    1  C   UNL     1      -4.635  32.783  54.437  1.00  0.00     0.164 C 
HETATM    2  N   UNL     1      -3.258  33.230  54.618  1.00  0.00    -0.074 N 
HETATM    3  C   UNL     1      -2.202  32.808  53.858  1.00  0.00     0.736 A 
HETATM    4  N   UNL     1      -1.119  33.419  54.265  1.00  0.00     0.131 NA
HETATM    5  C   UNL     1      -1.559  34.157  55.325  1.00  0.00     0.753 A 
HETATM    6  N   UNL     1      -2.864  34.082  55.580  1.00  0.00     0.037 NA
HETATM    7  N   UNL     1      -2.358  31.901  52.878  1.00  0.00    -0.214 N 
HETATM    8  C   UNL     1      -3.656  31.330  52.551  1.00  0.00     0.135 C 
HETATM    9  C   UNL     1      -4.600  31.388  53.774  1.00  0.00     0.063 C 
HETATM   10  H   UNL     1      -1.576  31.686  52.266  1.00  0.00     0.178 HD
ENDROOT
BRANCH   1  11
HETATM   11  C   UNL     1      -5.530  33.793  53.716  1.00  0.00    -0.030 A 
HETATM   12  C   UNL     1      -6.875  33.534  53.382  1.00  0.00     0.046 A 
HETATM   13  C   UNL     1      -7.665  34.495  52.744  1.00  0.00     0.068 A 
HETATM   14  C   UNL     1      -7.110  35.733  52.425  1.00  0.00     0.037 A 
HETATM   15  C   UNL     1      -5.776  36.005  52.718  1.00  0.00     0.003 A 
HETATM   16  C   UNL     1      -4.992  35.041  53.349  1.00  0.00     0.009 A 
BRANCH  13  17
HETATM   17  O   UNL     1      -8.979  34.350  52.391  1.00  0.00    -0.356 OA
HETATM   18  C   UNL     1      -9.260  33.482  51.301  1.00  0.00     0.210 C 
ENDBRANCH  13  17
ENDBRANCH   1  11
BRANCH   8  19
HETATM   19  C   UNL     1      -4.260  31.913  51.282  1.00  0.00    -0.035 A 
HETATM   20  C   UNL     1      -3.696  32.999  50.593  1.00  0.00     0.010 A 
HETATM   21  C   UNL     1      -4.316  33.531  49.459  1.00  0.00     0.019 A 
HETATM   22  C   UNL     1      -5.502  32.974  48.992  1.00  0.00     0.011 A 
HETATM   23 BR   UNL     1      -6.347  33.701  47.465  1.00  0.00    -0.051 Br
HETATM   24  C   UNL     1      -6.070  31.884  49.643  1.00  0.00     0.019 A 
HETATM   25  C   UNL     1      -5.452  31.357  50.780  1.00  0.00     0.010 A 
ENDBRANCH   8  19
BRANCH   5  26
HETATM   26  N   UNL     1      -0.684  34.902  55.990  1.00  0.00    -0.229 N 
HETATM   27  H   UNL     1       0.295  34.762  55.780  1.00  0.00     0.174 HD
HETATM   28  H   UNL     1      -0.951  35.852  56.206  1.00  0.00     0.174 HD
ENDBRANCH   5  26
TORSDOF 4
ENDMDL
MODEL 10
REMARK VINA RESULT:      -6.4     12.946     15.077
REMARK  4 active torsions:
REMARK  status: ('A' for Active; 'I' for Inactive)
REMARK    1  A    between atoms: O_2  and  C_3 
REMARK    2  A    between atoms: C_5  and  C_6 
REMARK    3  A    between atoms: C_10  and  N_11 
REMARK    4  A    between atoms: C_14  and  C_15 
ROOT
HETATM    1  C   UNL     1      -4.533  32.867  54.503  1.00  0.00     0.164 C 
HETATM    2  N   UNL     1      -3.153  33.320  54.643  1.00  0.00    -0.074 N 
HETATM    3  C   UNL     1      -2.116  32.892  53.861  1.00  0.00     0.736 A 
HETATM    4  N   UNL     1      -1.024  33.511  54.233  1.00  0.00     0.131 NA
HETATM    5  C   UNL     1      -1.440  34.260  55.295  1.00  0.00     0.753 A 
HETATM    6  N   UNL     1      -2.737  34.185  55.585  1.00  0.00     0.037 NA
HETATM    7  N   UNL     1      -2.294  31.973  52.896  1.00  0.00    -0.214 N 
HETATM    8  C   UNL     1      -3.598  31.395  52.610  1.00  0.00     0.135 C 
HETATM    9  C   UNL     1      -4.511  31.464  53.856  1.00  0.00     0.063 C 
HETATM   10  H   UNL     1      -1.529  31.753  52.267  1.00  0.00     0.178 HD
ENDROOT
BRANCH   1  11
HETATM   11  C   UNL     1      -5.449  33.866  53.794  1.00  0.00    -0.030 A 
HETATM   12  C   UNL     1      -5.007  35.119  53.321  1.00  0.00     0.046 A 
HETATM   13  C   UNL     1      -5.872  35.993  52.656  1.00  0.00     0.068 A 
HETATM   14  C   UNL     1      -7.202  35.623  52.463  1.00  0.00     0.037 A 
HETATM   15  C   UNL     1      -7.672  34.404  52.945  1.00  0.00     0.003 A 
HETATM   16  C   UNL     1      -6.806  33.539  53.613  1.00  0.00     0.009 A 
BRANCH  13  17
HETATM   17  O   UNL     1      -5.541  37.219  52.146  1.00  0.00    -0.356 OA
HETATM   18  C   UNL     1      -6.093  38.356  52.798  1.00  0.00     0.210 C 
ENDBRANCH  13  17
ENDBRANCH   1  11
BRANCH   8  19
HETATM   19  C   UNL     1      -4.238  31.961  51.351  1.00  0.00    -0.035 A 
HETATM   20  C   UNL     1      -3.668  33.006  50.605  1.00  0.00     0.010 A 
HETATM   21  C   UNL     1      -4.318  33.526  49.482  1.00  0.00     0.019 A 
HETATM   22  C   UNL     1      -5.542  32.997  49.083  1.00  0.00     0.011 A 
HETATM   23 BR   UNL     1      -6.427  33.707  47.572  1.00  0.00    -0.051 Br
HETATM   24  C   UNL     1      -6.117  31.947  49.791  1.00  0.00     0.019 A 
HETATM   25  C   UNL     1      -5.468  31.432  50.916  1.00  0.00     0.010 A 
ENDBRANCH   8  19
BRANCH   5  26
HETATM   26  N   UNL     1      -0.550  35.016  55.928  1.00  0.00    -0.229 N 
HETATM   27  H   UNL     1       0.401  34.994  55.586  1.00  0.00     0.174 HD
HETATM   28  H   UNL     1      -0.865  35.908  56.281  1.00  0.00     0.174 HD
ENDBRANCH   5  26
TORSDOF 4
ENDMDL
