MODEL 1
REMARK VINA RESULT:     -10.1      0.000      0.000
REMARK  4 active torsions:
REMARK  status: ('A' for Active; 'I' for Inactive)
REMARK    1  A    between atoms: C_6  and  C_7 
REMARK       I    between atoms: C_7  and  N_8 
REMARK    2  A    between atoms: N_8  and  N_9 
REMARK    3  A    between atoms: N_9  and  C_10 
REMARK    4  A    between atoms: C_21  and  C_22 
ROOT
HETATM    1  C   UNL     1       8.083  30.181  58.920  1.00  0.00     0.124 A 
HETATM    2  N   UNL     1       8.602  30.512  60.117  1.00  0.00    -0.223 NA
HETATM    3  C   UNL     1       8.061  31.560  60.767  1.00  0.00     0.129 A 
HETATM    4 CL   UNL     1       8.787  31.914  62.279  1.00  0.00    -0.062 Cl
HETATM    5  C   UNL     1       7.006  32.314  60.299  1.00  0.00     0.067 A 
HETATM    6  C   UNL     1       6.468  31.953  59.070  1.00  0.00     0.051 A 
HETATM    7  C   UNL     1       5.364  32.682  58.525  1.00  0.00     0.099 C 
HETATM    8  N   UNL     1       4.469  33.277  58.088  1.00  0.00    -0.191 NA
HETATM    9  C   UNL     1       7.005  30.871  58.372  1.00  0.00     0.068 A 
ENDROOT
BRANCH   1  10
HETATM   10  N   UNL     1       8.636  29.056  58.276  1.00  0.00    -0.186 NA
HETATM   11  H   UNL     1       9.446  29.411  57.745  1.00  0.00     0.154 HD
BRANCH  10  12
HETATM   12  N   UNL     1       7.723  28.396  57.429  1.00  0.00    -0.281 N 
HETATM   13  C   UNL     1       7.980  28.404  56.072  1.00  0.00     0.271 C 
HETATM   14  O   UNL     1       8.850  29.111  55.565  1.00  0.00    -0.266 OA
HETATM   15  H   UNL     1       7.132  27.671  57.845  1.00  0.00     0.184 HD
BRANCH  13  16
HETATM   16  C   UNL     1       7.135  27.477  55.266  1.00  0.00     0.102 A 
HETATM   17  C   UNL     1       5.882  27.899  54.584  1.00  0.00     0.261 A 
HETATM   18  N   UNL     1       5.217  26.932  53.873  1.00  0.00    -0.326 N 
HETATM   19  O   UNL     1       5.459  29.051  54.653  1.00  0.00    -0.267 OA
HETATM   20  C   UNL     1       5.615  25.614  53.761  1.00  0.00     0.019 A 
HETATM   21  H   UNL     1       4.366  27.238  53.414  1.00  0.00     0.169 HD
HETATM   22  C   UNL     1       4.703  24.751  52.930  1.00  0.00     0.069 C 
HETATM   23  C   UNL     1       6.747  25.212  54.384  1.00  0.00    -0.003 A 
HETATM   24  C   UNL     1       7.513  26.191  55.150  1.00  0.00     0.037 A 
BRANCH  23  25
HETATM   25  C   UNL     1       7.208  23.814  54.290  1.00  0.00    -0.024 A 
HETATM   26  C   UNL     1       7.631  23.292  53.060  1.00  0.00     0.012 A 
HETATM   27  C   UNL     1       8.070  21.970  52.972  1.00  0.00     0.001 A 
HETATM   28  C   UNL     1       8.094  21.166  54.111  1.00  0.00     0.000 A 
HETATM   29  C   UNL     1       7.683  21.681  55.340  1.00  0.00     0.001 A 
HETATM   30  C   UNL     1       7.244  23.003  55.431  1.00  0.00     0.012 A 
ENDBRANCH  23  25
ENDBRANCH  13  16
ENDBRANCH  10  12
ENDBRANCH   1  10
TORSDOF 4
ENDMDL
MODEL 2
REMARK VINA RESULT:     -10.0      1.785      2.546
REMARK  4 active torsions:
REMARK  status: ('A' for Active; 'I' for Inactive)
REMARK    1  A    between atoms: C_6  and  C_7 
REMARK       I    between atoms: C_7  and  N_8 
REMARK    2  A    between atoms: N_8  and  N_9 
REMARK    3  A    between atoms: N_9  and  C_10 
REMARK    4  A    between atoms: C_21  and  C_22 
ROOT
HETATM    1  C   UNL     1       7.692  30.813  59.871  1.00  0.00     0.124 A 
HETATM    2  N   UNL     1       6.770  31.482  59.155  1.00  0.00    -0.223 NA
HETATM    3  C   UNL     1       6.161  32.531  59.740  1.00  0.00     0.129 A 
HETATM    4 CL   UNL     1       4.997  33.319  58.759  1.00  0.00    -0.062 Cl
HETATM    5  C   UNL     1       6.422  32.976  61.018  1.00  0.00     0.067 A 
HETATM    6  C   UNL     1       7.388  32.289  61.742  1.00  0.00     0.051 A 
HETATM    7  C   UNL     1       7.720  32.700  63.071  1.00  0.00     0.099 C 
HETATM    8  N   UNL     1       7.985  33.038  64.149  1.00  0.00    -0.191 NA
HETATM    9  C   UNL     1       8.037  31.198  61.163  1.00  0.00     0.068 A 
ENDROOT
BRANCH   1  10
HETATM   10  N   UNL     1       8.347  29.745  59.226  1.00  0.00    -0.186 NA
HETATM   11  H   UNL     1       9.242  30.129  58.891  1.00  0.00     0.154 HD
BRANCH  10  12
HETATM   12  N   UNL     1       7.600  29.195  58.163  1.00  0.00    -0.281 N 
HETATM   13  C   UNL     1       8.290  28.538  57.164  1.00  0.00     0.271 C 
HETATM   14  O   UNL     1       9.515  28.577  57.066  1.00  0.00    -0.266 OA
HETATM   15  H   UNL     1       6.611  28.997  58.334  1.00  0.00     0.184 HD
BRANCH  13  16
HETATM   16  C   UNL     1       7.438  27.760  56.219  1.00  0.00     0.102 A 
HETATM   17  C   UNL     1       6.223  28.316  55.567  1.00  0.00     0.261 A 
HETATM   18  N   UNL     1       5.546  27.479  54.717  1.00  0.00    -0.326 N 
HETATM   19  O   UNL     1       5.838  29.464  55.779  1.00  0.00    -0.267 OA
HETATM   20  C   UNL     1       5.901  26.172  54.439  1.00  0.00     0.019 A 
HETATM   21  H   UNL     1       4.721  27.876  54.280  1.00  0.00     0.169 HD
HETATM   22  C   UNL     1       4.985  25.463  53.477  1.00  0.00     0.069 C 
HETATM   23  C   UNL     1       6.999  25.648  55.032  1.00  0.00    -0.003 A 
HETATM   24  C   UNL     1       7.774  26.487  55.942  1.00  0.00     0.037 A 
BRANCH  23  25
HETATM   25  C   UNL     1       7.414  24.258  54.764  1.00  0.00    -0.024 A 
HETATM   26  C   UNL     1       7.236  23.269  55.739  1.00  0.00     0.012 A 
HETATM   27  C   UNL     1       7.625  21.953  55.484  1.00  0.00     0.001 A 
HETATM   28  C   UNL     1       8.189  21.618  54.253  1.00  0.00     0.000 A 
HETATM   29  C   UNL     1       8.361  22.596  53.274  1.00  0.00     0.001 A 
HETATM   30  C   UNL     1       7.972  23.913  53.526  1.00  0.00     0.012 A 
ENDBRANCH  23  25
ENDBRANCH  13  16
ENDBRANCH  10  12
ENDBRANCH   1  10
TORSDOF 4
ENDMDL
MODEL 3
REMARK VINA RESULT:      -9.6      5.517      7.547
REMARK  4 active torsions:
REMARK  status: ('A' for Active; 'I' for Inactive)
REMARK    1  A    between atoms: C_6  and  C_7 
REMARK       I    between atoms: C_7  and  N_8 
REMARK    2  A    between atoms: N_8  and  N_9 
REMARK    3  A    between atoms: N_9  and  C_10 
REMARK    4  A    between atoms: C_21  and  C_22 
ROOT
HETATM    1  C   UNL     1       4.027  27.991  49.542  1.00  0.00     0.124 A 
HETATM    2  N   UNL     1       3.076  27.411  48.787  1.00  0.00    -0.223 NA
HETATM    3  C   UNL     1       1.867  28.003  48.737  1.00  0.00     0.129 A 
HETATM    4 CL   UNL     1       0.716  27.195  47.758  1.00  0.00    -0.062 Cl
HETATM    5  C   UNL     1       1.536  29.167  49.397  1.00  0.00     0.067 A 
HETATM    6  C   UNL     1       2.531  29.765  50.160  1.00  0.00     0.051 A 
HETATM    7  C   UNL     1       2.264  30.982  50.865  1.00  0.00     0.099 C 
HETATM    8  N   UNL     1       2.042  31.968  51.435  1.00  0.00    -0.191 NA
HETATM    9  C   UNL     1       3.794  29.177  50.231  1.00  0.00     0.068 A 
ENDROOT
BRANCH   1  10
HETATM   10  N   UNL     1       5.296  27.378  49.547  1.00  0.00    -0.186 NA
HETATM   11  H   UNL     1       5.183  26.499  49.021  1.00  0.00     0.154 HD
BRANCH  10  12
HETATM   12  N   UNL     1       5.790  27.133  50.845  1.00  0.00    -0.281 N 
HETATM   13  C   UNL     1       5.470  25.929  51.439  1.00  0.00     0.271 C 
HETATM   14  O   UNL     1       4.633  25.158  50.971  1.00  0.00    -0.266 OA
HETATM   15  H   UNL     1       6.613  27.662  51.144  1.00  0.00     0.184 HD
BRANCH  13  16
HETATM   16  C   UNL     1       6.230  25.620  52.684  1.00  0.00     0.102 A 
HETATM   17  C   UNL     1       6.590  26.648  53.697  1.00  0.00     0.261 A 
HETATM   18  N   UNL     1       7.286  26.209  54.795  1.00  0.00    -0.326 N 
HETATM   19  O   UNL     1       6.287  27.831  53.561  1.00  0.00    -0.267 OA
HETATM   20  C   UNL     1       7.681  24.903  55.015  1.00  0.00     0.019 A 
HETATM   21  H   UNL     1       7.522  26.923  55.475  1.00  0.00     0.169 HD
HETATM   22  C   UNL     1       8.442  24.684  56.295  1.00  0.00     0.069 C 
HETATM   23  C   UNL     1       7.369  23.957  54.098  1.00  0.00    -0.003 A 
HETATM   24  C   UNL     1       6.619  24.352  52.909  1.00  0.00     0.037 A 
BRANCH  23  25
HETATM   25  C   UNL     1       7.771  22.551  54.293  1.00  0.00    -0.024 A 
HETATM   26  C   UNL     1       8.388  21.844  53.253  1.00  0.00     0.012 A 
HETATM   27  C   UNL     1       8.771  20.515  53.439  1.00  0.00     0.001 A 
HETATM   28  C   UNL     1       8.545  19.888  54.665  1.00  0.00     0.000 A 
HETATM   29  C   UNL     1       7.939  20.589  55.707  1.00  0.00     0.001 A 
HETATM   30  C   UNL     1       7.555  21.919  55.524  1.00  0.00     0.012 A 
ENDBRANCH  23  25
ENDBRANCH  13  16
ENDBRANCH  10  12
ENDBRANCH   1  10
TORSDOF 4
ENDMDL
MODEL 4
REMARK VINA RESULT:      -9.5      1.715      2.333
REMARK  4 active torsions:
REMARK  status: ('A' for Active; 'I' for Inactive)
REMARK    1  A    between atoms: C_6  and  C_7 
REMARK       I    between atoms: C_7  and  N_8 
REMARK    2  A    between atoms: N_8  and  N_9 
REMARK    3  A    between atoms: N_9  and  C_10 
REMARK    4  A    between atoms: C_21  and  C_22 
ROOT
HETATM    1  C   UNL     1       7.358  31.516  60.669  1.00  0.00     0.124 A 
HETATM    2  N   UNL     1       7.834  31.758  61.904  1.00  0.00    -0.223 NA
HETATM    3  C   UNL     1       7.274  32.761  62.607  1.00  0.00     0.129 A 
HETATM    4 CL   UNL     1       7.946  33.002  64.166  1.00  0.00    -0.062 Cl
HETATM    5  C   UNL     1       6.240  33.553  62.156  1.00  0.00     0.067 A 
HETATM    6  C   UNL     1       5.745  33.283  60.886  1.00  0.00     0.051 A 
HETATM    7  C   UNL     1       4.665  34.057  60.356  1.00  0.00     0.099 C 
HETATM    8  N   UNL     1       3.789  34.688  59.930  1.00  0.00    -0.191 NA
HETATM    9  C   UNL     1       6.304  32.250  60.133  1.00  0.00     0.068 A 
ENDROOT
BRANCH   1  10
HETATM   10  N   UNL     1       7.929  30.436  59.967  1.00  0.00    -0.186 NA
HETATM   11  H   UNL     1       8.919  30.689  59.826  1.00  0.00     0.154 HD
BRANCH  10  12
HETATM   12  N   UNL     1       7.292  30.173  58.737  1.00  0.00    -0.281 N 
HETATM   13  C   UNL     1       7.973  29.413  57.808  1.00  0.00     0.271 C 
HETATM   14  O   UNL     1       9.163  29.123  57.930  1.00  0.00    -0.266 OA
HETATM   15  H   UNL     1       6.272  30.242  58.710  1.00  0.00     0.184 HD
BRANCH  13  16
HETATM   16  C   UNL     1       7.155  28.952  56.650  1.00  0.00     0.102 A 
HETATM   17  C   UNL     1       6.019  29.732  56.090  1.00  0.00     0.261 A 
HETATM   18  N   UNL     1       5.365  29.179  55.019  1.00  0.00    -0.326 N 
HETATM   19  O   UNL     1       5.677  30.814  56.562  1.00  0.00    -0.267 OA
HETATM   20  C   UNL     1       5.674  27.962  54.442  1.00  0.00     0.019 A 
HETATM   21  H   UNL     1       4.594  29.725  54.650  1.00  0.00     0.169 HD
HETATM   22  C   UNL     1       4.796  27.576  53.281  1.00  0.00     0.069 C 
HETATM   23  C   UNL     1       6.699  27.235  54.945  1.00  0.00    -0.003 A 
HETATM   24  C   UNL     1       7.447  27.769  56.080  1.00  0.00     0.037 A 
BRANCH  23  25
HETATM   25  C   UNL     1       7.063  25.931  54.359  1.00  0.00    -0.024 A 
HETATM   26  C   UNL     1       7.700  25.872  53.113  1.00  0.00     0.012 A 
HETATM   27  C   UNL     1       8.047  24.638  52.560  1.00  0.00     0.001 A 
HETATM   28  C   UNL     1       7.764  23.459  53.251  1.00  0.00     0.000 A 
HETATM   29  C   UNL     1       7.137  23.512  54.496  1.00  0.00     0.001 A 
HETATM   30  C   UNL     1       6.789  24.745  55.051  1.00  0.00     0.012 A 
ENDBRANCH  23  25
ENDBRANCH  13  16
ENDBRANCH  10  12
ENDBRANCH   1  10
TORSDOF 4
ENDMDL
MODEL 5
REMARK VINA RESULT:      -9.3      4.058      5.665
REMARK  4 active torsions:
REMARK  status: ('A' for Active; 'I' for Inactive)
REMARK    1  A    between atoms: C_6  and  C_7 
REMARK       I    between atoms: C_7  and  N_8 
REMARK    2  A    between atoms: N_8  and  N_9 
REMARK    3  A    between atoms: N_9  and  C_10 
REMARK    4  A    between atoms: C_21  and  C_22 
ROOT
HETATM    1  C   UNL     1       3.246  29.219  52.661  1.00  0.00     0.124 A 
HETATM    2  N   UNL     1       3.139  29.928  51.522  1.00  0.00    -0.223 NA
HETATM    3  C   UNL     1       3.300  31.263  51.598  1.00  0.00     0.129 A 
HETATM    4 CL   UNL     1       3.140  32.087  50.102  1.00  0.00    -0.062 Cl
HETATM    5  C   UNL     1       3.577  31.955  52.757  1.00  0.00     0.067 A 
HETATM    6  C   UNL     1       3.702  31.211  53.923  1.00  0.00     0.051 A 
HETATM    7  C   UNL     1       4.000  31.860  55.162  1.00  0.00     0.099 C 
HETATM    8  N   UNL     1       4.242  32.392  56.165  1.00  0.00    -0.191 NA
HETATM    9  C   UNL     1       3.542  29.825  53.878  1.00  0.00     0.068 A 
ENDROOT
BRANCH   1  10
HETATM   10  N   UNL     1       3.115  27.819  52.553  1.00  0.00    -0.186 NA
HETATM   11  H   UNL     1       2.121  27.619  52.735  1.00  0.00     0.154 HD
BRANCH  10  12
HETATM   12  N   UNL     1       3.947  27.113  53.446  1.00  0.00    -0.281 N 
HETATM   13  C   UNL     1       5.033  26.442  52.921  1.00  0.00     0.271 C 
HETATM   14  O   UNL     1       5.192  26.279  51.711  1.00  0.00    -0.266 OA
HETATM   15  H   UNL     1       3.933  27.397  54.429  1.00  0.00     0.184 HD
BRANCH  13  16
HETATM   16  C   UNL     1       6.012  25.941  53.928  1.00  0.00     0.102 A 
HETATM   17  C   UNL     1       6.576  26.791  55.011  1.00  0.00     0.261 A 
HETATM   18  N   UNL     1       7.462  26.187  55.865  1.00  0.00    -0.326 N 
HETATM   19  O   UNL     1       6.270  27.975  55.136  1.00  0.00    -0.267 OA
HETATM   20  C   UNL     1       7.871  24.869  55.783  1.00  0.00     0.019 A 
HETATM   21  H   UNL     1       7.835  26.780  56.598  1.00  0.00     0.169 HD
HETATM   22  C   UNL     1       8.860  24.451  56.839  1.00  0.00     0.069 C 
HETATM   23  C   UNL     1       7.375  24.085  54.797  1.00  0.00    -0.003 A 
HETATM   24  C   UNL     1       6.418  24.661  53.857  1.00  0.00     0.037 A 
BRANCH  23  25
HETATM   25  C   UNL     1       7.785  22.673  54.673  1.00  0.00    -0.024 A 
HETATM   26  C   UNL     1       7.478  21.759  55.688  1.00  0.00     0.012 A 
HETATM   27  C   UNL     1       7.863  20.422  55.570  1.00  0.00     0.001 A 
HETATM   28  C   UNL     1       8.552  19.993  54.435  1.00  0.00     0.000 A 
HETATM   29  C   UNL     1       8.854  20.897  53.417  1.00  0.00     0.001 A 
HETATM   30  C   UNL     1       8.469  22.234  53.533  1.00  0.00     0.012 A 
ENDBRANCH  23  25
ENDBRANCH  13  16
ENDBRANCH  10  12
ENDBRANCH   1  10
TORSDOF 4
ENDMDL
MODEL 6
REMARK VINA RESULT:      -9.2      5.440      8.549
REMARK  4 active torsions:
REMARK  status: ('A' for Active; 'I' for Inactive)
REMARK    1  A    between atoms: C_6  and  C_7 
REMARK       I    between atoms: C_7  and  N_8 
REMARK    2  A    between atoms: N_8  and  N_9 
REMARK    3  A    between atoms: N_9  and  C_10 
REMARK    4  A    between atoms: C_21  and  C_22 
ROOT
HETATM    1  C   UNL     1       2.942  28.230  49.111  1.00  0.00     0.124 A 
HETATM    2  N   UNL     1       3.213  26.933  48.879  1.00  0.00    -0.223 NA
HETATM    3  C   UNL     1       2.568  26.330  47.862  1.00  0.00     0.129 A 
HETATM    4 CL   UNL     1       2.968  24.677  47.643  1.00  0.00    -0.062 Cl
HETATM    5  C   UNL     1       1.657  26.949  47.033  1.00  0.00     0.067 A 
HETATM    6  C   UNL     1       1.398  28.293  47.272  1.00  0.00     0.051 A 
HETATM    7  C   UNL     1       0.472  29.005  46.446  1.00  0.00     0.099 C 
HETATM    8  N   UNL     1      -0.280  29.578  45.773  1.00  0.00    -0.191 NA
HETATM    9  C   UNL     1       2.051  28.947  48.318  1.00  0.00     0.068 A 
ENDROOT
BRANCH   1  10
HETATM   10  N   UNL     1       3.658  28.854  50.153  1.00  0.00    -0.186 NA
HETATM   11  H   UNL     1       4.512  29.232  49.716  1.00  0.00     0.154 HD
BRANCH  10  12
HETATM   12  N   UNL     1       3.974  27.978  51.211  1.00  0.00    -0.281 N 
HETATM   13  C   UNL     1       5.165  28.179  51.881  1.00  0.00     0.271 C 
HETATM   14  O   UNL     1       6.031  28.954  51.477  1.00  0.00    -0.266 OA
HETATM   15  H   UNL     1       3.201  27.479  51.658  1.00  0.00     0.184 HD
BRANCH  13  16
HETATM   16  C   UNL     1       5.318  27.399  53.142  1.00  0.00     0.102 A 
HETATM   17  C   UNL     1       4.634  27.759  54.413  1.00  0.00     0.261 A 
HETATM   18  N   UNL     1       4.869  26.941  55.489  1.00  0.00    -0.326 N 
HETATM   19  O   UNL     1       3.898  28.740  54.501  1.00  0.00    -0.267 OA
HETATM   20  C   UNL     1       5.694  25.833  55.478  1.00  0.00     0.019 A 
HETATM   21  H   UNL     1       4.393  27.201  56.345  1.00  0.00     0.169 HD
HETATM   22  C   UNL     1       5.790  25.108  56.794  1.00  0.00     0.069 C 
HETATM   23  C   UNL     1       6.332  25.498  54.332  1.00  0.00    -0.003 A 
HETATM   24  C   UNL     1       6.119  26.319  53.143  1.00  0.00     0.037 A 
BRANCH  23  25
HETATM   25  C   UNL     1       7.222  24.322  54.277  1.00  0.00    -0.024 A 
HETATM   26  C   UNL     1       7.111  23.403  53.226  1.00  0.00     0.012 A 
HETATM   27  C   UNL     1       7.955  22.293  53.172  1.00  0.00     0.001 A 
HETATM   28  C   UNL     1       8.917  22.099  54.163  1.00  0.00     0.000 A 
HETATM   29  C   UNL     1       9.038  23.014  55.208  1.00  0.00     0.001 A 
HETATM   30  C   UNL     1       8.196  24.126  55.264  1.00  0.00     0.012 A 
ENDBRANCH  23  25
ENDBRANCH  13  16
ENDBRANCH  10  12
ENDBRANCH   1  10
TORSDOF 4
ENDMDL
MODEL 7
REMARK VINA RESULT:      -9.2      3.614      5.747
REMARK  4 active torsions:
REMARK  status: ('A' for Active; 'I' for Inactive)
REMARK    1  A    between atoms: C_6  and  C_7 
REMARK       I    between atoms: C_7  and  N_8 
REMARK    2  A    between atoms: N_8  and  N_9 
REMARK    3  A    between atoms: N_9  and  C_10 
REMARK    4  A    between atoms: C_21  and  C_22 
ROOT
HETATM    1  C   UNL     1       5.868  32.905  62.609  1.00  0.00     0.124 A 
HETATM    2  N   UNL     1       6.261  32.883  63.896  1.00  0.00    -0.223 NA
HETATM    3  C   UNL     1       6.353  34.060  64.544  1.00  0.00     0.129 A 
HETATM    4 CL   UNL     1       6.867  33.939  66.175  1.00  0.00    -0.062 Cl
HETATM    5  C   UNL     1       6.063  35.287  63.987  1.00  0.00     0.067 A 
HETATM    6  C   UNL     1       5.642  35.296  62.663  1.00  0.00     0.051 A 
HETATM    7  C   UNL     1       5.312  36.531  62.021  1.00  0.00     0.099 C 
HETATM    8  N   UNL     1       5.047  37.536  61.505  1.00  0.00    -0.191 NA
HETATM    9  C   UNL     1       5.536  34.093  61.964  1.00  0.00     0.068 A 
ENDROOT
BRANCH   1  10
HETATM   10  N   UNL     1       5.739  31.660  61.962  1.00  0.00    -0.186 NA
HETATM   11  H   UNL     1       6.015  30.954  62.660  1.00  0.00     0.154 HD
BRANCH  10  12
HETATM   12  N   UNL     1       6.526  31.555  60.796  1.00  0.00    -0.281 N 
HETATM   13  C   UNL     1       7.796  31.029  60.920  1.00  0.00     0.271 C 
HETATM   14  O   UNL     1       8.329  30.830  62.011  1.00  0.00    -0.266 OA
HETATM   15  H   UNL     1       6.037  31.536  59.897  1.00  0.00     0.184 HD
BRANCH  13  16
HETATM   16  C   UNL     1       8.471  30.702  59.632  1.00  0.00     0.102 A 
HETATM   17  C   UNL     1       9.639  31.457  59.107  1.00  0.00     0.261 A 
HETATM   18  N   UNL     1      10.155  31.033  57.908  1.00  0.00    -0.326 N 
HETATM   19  O   UNL     1      10.119  32.415  59.708  1.00  0.00    -0.267 OA
HETATM   20  C   UNL     1       9.665  29.978  57.161  1.00  0.00     0.019 A 
HETATM   21  H   UNL     1      10.953  31.558  57.567  1.00  0.00     0.169 HD
HETATM   22  C   UNL     1      10.406  29.720  55.877  1.00  0.00     0.069 C 
HETATM   23  C   UNL     1       8.595  29.287  57.621  1.00  0.00    -0.003 A 
HETATM   24  C   UNL     1       8.001  29.678  58.896  1.00  0.00     0.037 A 
BRANCH  23  25
HETATM   25  C   UNL     1       8.040  28.155  56.855  1.00  0.00    -0.024 A 
HETATM   26  C   UNL     1       8.319  26.838  57.242  1.00  0.00     0.012 A 
HETATM   27  C   UNL     1       7.791  25.767  56.519  1.00  0.00     0.001 A 
HETATM   28  C   UNL     1       6.977  26.006  55.412  1.00  0.00     0.000 A 
HETATM   29  C   UNL     1       6.688  27.315  55.026  1.00  0.00     0.001 A 
HETATM   30  C   UNL     1       7.215  28.388  55.747  1.00  0.00     0.012 A 
ENDBRANCH  23  25
ENDBRANCH  13  16
ENDBRANCH  10  12
ENDBRANCH   1  10
TORSDOF 4
ENDMDL
MODEL 8
REMARK VINA RESULT:      -9.0      3.657      5.876
REMARK  4 active torsions:
REMARK  status: ('A' for Active; 'I' for Inactive)
REMARK    1  A    between atoms: C_6  and  C_7 
REMARK       I    between atoms: C_7  and  N_8 
REMARK    2  A    between atoms: N_8  and  N_9 
REMARK    3  A    between atoms: N_9  and  C_10 
REMARK    4  A    between atoms: C_21  and  C_22 
ROOT
HETATM    1  C   UNL     1       4.290  33.313  61.067  1.00  0.00     0.124 A 
HETATM    2  N   UNL     1       5.004  34.306  61.627  1.00  0.00    -0.223 NA
HETATM    3  C   UNL     1       4.469  35.542  61.624  1.00  0.00     0.129 A 
HETATM    4 CL   UNL     1       5.449  36.746  62.350  1.00  0.00    -0.062 Cl
HETATM    5  C   UNL     1       3.236  35.862  61.097  1.00  0.00     0.067 A 
HETATM    6  C   UNL     1       2.500  34.825  60.537  1.00  0.00     0.051 A 
HETATM    7  C   UNL     1       1.206  35.079  59.981  1.00  0.00     0.099 C 
HETATM    8  N   UNL     1       0.158  35.290  59.531  1.00  0.00    -0.191 NA
HETATM    9  C   UNL     1       3.027  33.533  60.526  1.00  0.00     0.068 A 
ENDROOT
BRANCH   1  10
HETATM   10  N   UNL     1       4.849  32.020  61.117  1.00  0.00    -0.186 NA
HETATM   11  H   UNL     1       5.210  31.911  62.077  1.00  0.00     0.154 HD
BRANCH  10  12
HETATM   12  N   UNL     1       5.869  31.818  60.165  1.00  0.00    -0.281 N 
HETATM   13  C   UNL     1       7.107  31.411  60.623  1.00  0.00     0.271 C 
HETATM   14  O   UNL     1       7.403  31.403  61.817  1.00  0.00    -0.266 OA
HETATM   15  H   UNL     1       5.584  31.640  59.199  1.00  0.00     0.184 HD
BRANCH  13  16
HETATM   16  C   UNL     1       8.054  30.964  59.562  1.00  0.00     0.102 A 
HETATM   17  C   UNL     1       9.384  31.591  59.338  1.00  0.00     0.261 A 
HETATM   18  N   UNL     1      10.147  31.066  58.326  1.00  0.00    -0.326 N 
HETATM   19  O   UNL     1       9.782  32.535  60.018  1.00  0.00    -0.267 OA
HETATM   20  C   UNL     1       9.766  30.020  57.506  1.00  0.00     0.019 A 
HETATM   21  H   UNL     1      11.050  31.505  58.189  1.00  0.00     0.169 HD
HETATM   22  C   UNL     1      10.783  29.637  56.464  1.00  0.00     0.069 C 
HETATM   23  C   UNL     1       8.555  29.445  57.691  1.00  0.00    -0.003 A 
HETATM   24  C   UNL     1       7.694  29.948  58.758  1.00  0.00     0.037 A 
BRANCH  23  25
HETATM   25  C   UNL     1       8.109  28.326  56.838  1.00  0.00    -0.024 A 
HETATM   26  C   UNL     1       7.604  28.576  55.556  1.00  0.00     0.012 A 
HETATM   27  C   UNL     1       7.185  27.518  54.748  1.00  0.00     0.001 A 
HETATM   28  C   UNL     1       7.275  26.206  55.214  1.00  0.00     0.000 A 
HETATM   29  C   UNL     1       7.785  25.950  56.487  1.00  0.00     0.001 A 
HETATM   30  C   UNL     1       8.205  27.007  57.297  1.00  0.00     0.012 A 
ENDBRANCH  23  25
ENDBRANCH  13  16
ENDBRANCH  10  12
ENDBRANCH   1  10
TORSDOF 4
ENDMDL
MODEL 9
REMARK VINA RESULT:      -8.9      5.420      7.512
REMARK  4 active torsions:
REMARK  status: ('A' for Active; 'I' for Inactive)
REMARK    1  A    between atoms: C_6  and  C_7 
REMARK       I    between atoms: C_7  and  N_8 
REMARK    2  A    between atoms: N_8  and  N_9 
REMARK    3  A    between atoms: N_9  and  C_10 
REMARK    4  A    between atoms: C_21  and  C_22 
ROOT
HETATM    1  C   UNL     1       5.194  29.334  48.888  1.00  0.00     0.124 A 
HETATM    2  N   UNL     1       4.569  29.626  47.733  1.00  0.00    -0.223 NA
HETATM    3  C   UNL     1       4.302  30.920  47.474  1.00  0.00     0.129 A 
HETATM    4 CL   UNL     1       3.499  31.200  45.985  1.00  0.00    -0.062 Cl
HETATM    5  C   UNL     1       4.633  31.971  48.303  1.00  0.00     0.067 A 
HETATM    6  C   UNL     1       5.293  31.659  49.485  1.00  0.00     0.051 A 
HETATM    7  C   UNL     1       5.678  32.698  50.390  1.00  0.00     0.099 C 
HETATM    8  N   UNL     1       5.987  33.544  51.121  1.00  0.00    -0.191 NA
HETATM    9  C   UNL     1       5.584  30.327  49.782  1.00  0.00     0.068 A 
ENDROOT
BRANCH   1  10
HETATM   10  N   UNL     1       5.501  27.978  49.120  1.00  0.00    -0.186 NA
HETATM   11  H   UNL     1       4.649  27.454  48.871  1.00  0.00     0.154 HD
BRANCH  10  12
HETATM   12  N   UNL     1       5.888  27.716  50.451  1.00  0.00    -0.281 N 
HETATM   13  C   UNL     1       5.543  26.494  50.993  1.00  0.00     0.271 C 
HETATM   14  O   UNL     1       4.764  25.718  50.441  1.00  0.00    -0.266 OA
HETATM   15  H   UNL     1       6.671  28.254  50.829  1.00  0.00     0.184 HD
BRANCH  13  16
HETATM   16  C   UNL     1       6.200  26.174  52.293  1.00  0.00     0.102 A 
HETATM   17  C   UNL     1       6.523  27.201  53.319  1.00  0.00     0.261 A 
HETATM   18  N   UNL     1       7.124  26.752  54.468  1.00  0.00    -0.326 N 
HETATM   19  O   UNL     1       6.272  28.393  53.150  1.00  0.00    -0.267 OA
HETATM   20  C   UNL     1       7.456  25.436  54.728  1.00  0.00     0.019 A 
HETATM   21  H   UNL     1       7.335  27.466  55.157  1.00  0.00     0.169 HD
HETATM   22  C   UNL     1       8.116  25.206  56.061  1.00  0.00     0.069 C 
HETATM   23  C   UNL     1       7.177  24.491  53.800  1.00  0.00    -0.003 A 
HETATM   24  C   UNL     1       6.529  24.897  52.556  1.00  0.00     0.037 A 
BRANCH  23  25
HETATM   25  C   UNL     1       7.515  23.074  54.036  1.00  0.00    -0.024 A 
HETATM   26  C   UNL     1       7.422  22.534  55.325  1.00  0.00     0.012 A 
HETATM   27  C   UNL     1       7.739  21.193  55.549  1.00  0.00     0.001 A 
HETATM   28  C   UNL     1       8.144  20.385  54.486  1.00  0.00     0.000 A 
HETATM   29  C   UNL     1       8.231  20.915  53.199  1.00  0.00     0.001 A 
HETATM   30  C   UNL     1       7.914  22.256  52.972  1.00  0.00     0.012 A 
ENDBRANCH  23  25
ENDBRANCH  13  16
ENDBRANCH  10  12
ENDBRANCH   1  10
TORSDOF 4
ENDMDL
MODEL 10
REMARK VINA RESULT:      -8.8      4.105      9.511
REMARK  4 active torsions:
REMARK  status: ('A' for Active; 'I' for Inactive)
REMARK    1  A    between atoms: C_6  and  C_7 
REMARK       I    between atoms: C_7  and  N_8 
REMARK    2  A    between atoms: N_8  and  N_9 
REMARK    3  A    between atoms: N_9  and  C_10 
REMARK    4  A    between atoms: C_21  and  C_22 
ROOT
HETATM    1  C   UNL     1       6.255  28.578  57.470  1.00  0.00     0.124 A 
HETATM    2  N   UNL     1       6.264  27.239  57.342  1.00  0.00    -0.223 NA
HETATM    3  C   UNL     1       7.453  26.635  57.147  1.00  0.00     0.129 A 
HETATM    4 CL   UNL     1       7.369  24.930  56.988  1.00  0.00    -0.062 Cl
HETATM    5  C   UNL     1       8.663  27.290  57.080  1.00  0.00     0.067 A 
HETATM    6  C   UNL     1       8.644  28.671  57.231  1.00  0.00     0.051 A 
HETATM    7  C   UNL     1       9.863  29.418  57.184  1.00  0.00     0.099 C 
HETATM    8  N   UNL     1      10.855  30.018  57.144  1.00  0.00    -0.191 NA
HETATM    9  C   UNL     1       7.429  29.326  57.434  1.00  0.00     0.068 A 
ENDROOT
BRANCH   1  10
HETATM   10  N   UNL     1       5.007  29.186  57.714  1.00  0.00    -0.186 NA
HETATM   11  H   UNL     1       4.521  29.195  56.805  1.00  0.00     0.154 HD
BRANCH  10  12
HETATM   12  N   UNL     1       5.117  30.487  58.244  1.00  0.00    -0.281 N 
HETATM   13  C   UNL     1       3.951  31.190  58.473  1.00  0.00     0.271 C 
HETATM   14  O   UNL     1       2.855  30.810  58.063  1.00  0.00    -0.266 OA
HETATM   15  H   UNL     1       5.976  30.721  58.749  1.00  0.00     0.184 HD
BRANCH  13  16
HETATM   16  C   UNL     1       4.115  32.439  59.271  1.00  0.00     0.102 A 
HETATM   17  C   UNL     1       3.549  33.752  58.859  1.00  0.00     0.261 A 
HETATM   18  N   UNL     1       3.779  34.810  59.701  1.00  0.00    -0.326 N 
HETATM   19  O   UNL     1       2.911  33.888  57.817  1.00  0.00    -0.267 OA
HETATM   20  C   UNL     1       4.499  34.745  60.879  1.00  0.00     0.019 A 
HETATM   21  H   UNL     1       3.385  35.696  59.406  1.00  0.00     0.169 HD
HETATM   22  C   UNL     1       4.614  36.051  61.618  1.00  0.00     0.069 C 
HETATM   23  C   UNL     1       5.029  33.560  61.263  1.00  0.00    -0.003 A 
HETATM   24  C   UNL     1       4.814  32.388  60.419  1.00  0.00     0.037 A 
BRANCH  23  25
HETATM   25  C   UNL     1       5.804  33.446  62.513  1.00  0.00    -0.024 A 
HETATM   26  C   UNL     1       7.170  33.136  62.469  1.00  0.00     0.012 A 
HETATM   27  C   UNL     1       7.904  33.032  63.652  1.00  0.00     0.001 A 
HETATM   28  C   UNL     1       7.280  33.241  64.881  1.00  0.00     0.000 A 
HETATM   29  C   UNL     1       5.923  33.558  64.932  1.00  0.00     0.001 A 
HETATM   30  C   UNL     1       5.186  33.664  63.751  1.00  0.00     0.012 A 
ENDBRANCH  23  25
ENDBRANCH  13  16
ENDBRANCH  10  12
ENDBRANCH   1  10
TORSDOF 4
ENDMDL
